MODEL 1
REMARK VINA RESULT:      -8.3      0.000      0.000
REMARK  Name = 
REMARK  9 active torsions:
REMARK  status: ('A' for Active; 'I' for Inactive)
REMARK    1  A    between atoms: C_1  and  O_2
REMARK    2  A    between atoms: O_2  and  C_3
REMARK    3  A    between atoms: C_6  and  O_7
REMARK    4  A    between atoms: O_7  and  C_8
REMARK    5  A    between atoms: C_8  and  C_9
REMARK    6  A    between atoms: N_11  and  C_12
REMARK    7  A    between atoms: C_16  and  C_17
REMARK    8  A    between atoms: N_19  and  C_20
REMARK    9  A    between atoms: C_20  and  C_21
REMARK                            x       y       z     vdW  Elec       q    Type
REMARK                         _______ _______ _______ _____ _____    ______ ____
ROOT
ATOM      1  C   UNL     1       3.558   5.206  17.823  0.00  0.00    +0.000 A 
ATOM      2  S   UNL     1       3.459   3.490  17.777  0.00  0.00    +0.000 S 
ATOM      3  C   UNL     1       2.370   3.512  19.027  0.00  0.00    +0.000 A 
ATOM      4  C   UNL     1       2.041   4.758  19.487  0.00  0.00    +0.000 A 
ATOM      5  C   UNL     1       2.670   5.797  18.722  0.00  0.00    +0.000 A 
ATOM      6  C   UNL     1       1.071   4.648  20.610  0.00  0.00    +0.000 C 
ATOM      7  C   UNL     1       1.153   3.130  20.980  0.00  0.00    +0.000 C 
ATOM      8  C   UNL     1       1.689   2.394  19.723  0.00  0.00    +0.000 C 
ENDROOT
BRANCH   1  11
ATOM      9  C   UNL     1       5.761   5.969  17.299  0.00  0.00    +0.000 C 
ATOM     10  O   UNL     1       6.232   5.690  18.402  0.00  0.00    +0.000 OA
ATOM     11  N   UNL     1       4.431   5.794  16.918  0.00  0.00    +0.000 N 
ATOM     12  H   UNL     1       4.038   6.528  16.332  0.00  0.00    +0.000 HD
BRANCH   9  13
ATOM     13  C   UNL     1       6.638   6.598  16.227  0.00  0.00    +0.000 C 
BRANCH  13  14
ATOM     14  O   UNL     1       7.534   5.606  15.744  0.00  0.00    +0.000 OA
BRANCH  14  18
ATOM     15  C   UNL     1       6.142   3.502  12.420  0.00  0.00    +0.000 A 
ATOM     16  C   UNL     1       5.616   3.310  13.697  0.00  0.00    +0.000 A 
ATOM     17  C   UNL     1       6.103   4.043  14.781  0.00  0.00    +0.000 A 
ATOM     18  C   UNL     1       7.151   4.948  14.609  0.00  0.00    +0.000 A 
ATOM     19  C   UNL     1       7.683   5.139  13.332  0.00  0.00    +0.000 A 
ATOM     20  C   UNL     1       7.181   4.415  12.240  0.00  0.00    +0.000 A 
BRANCH  15  22
ATOM     21  C   UNL     1       6.167   1.431  11.279  0.00  0.00    +0.000 C 
ATOM     22  O   UNL     1       5.592   2.722  11.440  0.00  0.00    +0.000 OA
ENDBRANCH  15  22
ENDBRANCH  14  18
ENDBRANCH  13  14
ENDBRANCH   9  13
ENDBRANCH   1  11
BRANCH   5  23
ATOM     23  C   UNL     1       2.502   7.251  18.822  0.00  0.00    +0.000 C 
ATOM     24  O   UNL     1       3.036   8.009  18.013  0.00  0.00    +0.000 OA
ATOM     25  N   UNL     1       1.738   7.706  19.869  0.00  0.00    +0.000 N 
ATOM     26  H   UNL     1       1.471   7.068  20.605  0.00  0.00    +0.000 HD
BRANCH  25  27
ATOM     27  C   UNL     1       1.397   9.109  20.066  0.00  0.00    +0.000 C 
BRANCH  27  28
ATOM     28  C   UNL     1       1.005   9.444  21.510  0.00  0.00    +0.000 C 
ATOM     29  C   UNL     1      -0.207   8.694  22.041  0.00  0.00    +0.000 C 
ATOM     30  C   UNL     1      -0.720   9.637  23.101  0.00  0.00    +0.000 C 
ATOM     31  C   UNL     1      -0.439  10.994  22.493  0.00  0.00    +0.000 C 
ATOM     32  O   UNL     1       0.699  10.849  21.631  0.00  0.00    +0.000 OA
ENDBRANCH  27  28
ENDBRANCH  25  27
ENDBRANCH   5  23
TORSDOF 8
ENDMDL
MODEL 2
REMARK VINA RESULT:      -8.2      4.297      9.028
REMARK  Name = 
REMARK  9 active torsions:
REMARK  status: ('A' for Active; 'I' for Inactive)
REMARK    1  A    between atoms: C_1  and  O_2
REMARK    2  A    between atoms: O_2  and  C_3
REMARK    3  A    between atoms: C_6  and  O_7
REMARK    4  A    between atoms: O_7  and  C_8
REMARK    5  A    between atoms: C_8  and  C_9
REMARK    6  A    between atoms: N_11  and  C_12
REMARK    7  A    between atoms: C_16  and  C_17
REMARK    8  A    between atoms: N_19  and  C_20
REMARK    9  A    between atoms: C_20  and  C_21
REMARK                            x       y       z     vdW  Elec       q    Type
REMARK                         _______ _______ _______ _____ _____    ______ ____
ROOT
ATOM      1  C   UNL     1       5.272   6.378  17.271  0.00  0.00    +0.000 A 
ATOM      2  S   UNL     1       3.991   6.549  18.405  0.00  0.00    +0.000 S 
ATOM      3  C   UNL     1       3.420   5.047  17.998  0.00  0.00    +0.000 A 
ATOM      4  C   UNL     1       4.156   4.385  17.052  0.00  0.00    +0.000 A 
ATOM      5  C   UNL     1       5.323   5.124  16.664  0.00  0.00    +0.000 A 
ATOM      6  C   UNL     1       3.541   3.061  16.762  0.00  0.00    +0.000 C 
ATOM      7  C   UNL     1       2.128   3.193  17.422  0.00  0.00    +0.000 C 
ATOM      8  C   UNL     1       2.243   4.301  18.502  0.00  0.00    +0.000 C 
ENDROOT
BRANCH   1  11
ATOM      9  C   UNL     1       7.320   7.440  17.896  0.00  0.00    +0.000 C 
ATOM     10  O   UNL     1       7.653   6.561  18.692  0.00  0.00    +0.000 OA
ATOM     11  N   UNL     1       6.137   7.458  17.158  0.00  0.00    +0.000 N 
ATOM     12  H   UNL     1       5.700   8.371  17.046  0.00  0.00    +0.000 HD
BRANCH   9  13
ATOM     13  C   UNL     1       8.208   8.656  17.681  0.00  0.00    +0.000 C 
BRANCH  13  14
ATOM     14  O   UNL     1       8.852   8.961  18.910  0.00  0.00    +0.000 OA
BRANCH  14  18
ATOM     15  C   UNL     1      10.433  12.769  19.552  0.00  0.00    +0.000 A 
ATOM     16  C   UNL     1      10.148  11.894  20.600  0.00  0.00    +0.000 A 
ATOM     17  C   UNL     1       9.629  10.624  20.340  0.00  0.00    +0.000 A 
ATOM     18  C   UNL     1       9.352  10.228  19.032  0.00  0.00    +0.000 A 
ATOM     19  C   UNL     1       9.632  11.103  17.981  0.00  0.00    +0.000 A 
ATOM     20  C   UNL     1      10.169  12.373  18.241  0.00  0.00    +0.000 A 
BRANCH  15  22
ATOM     21  C   UNL     1      10.287  14.602  21.040  0.00  0.00    +0.000 C 
ATOM     22  O   UNL     1      10.928  13.987  19.928  0.00  0.00    +0.000 OA
ENDBRANCH  15  22
ENDBRANCH  14  18
ENDBRANCH  13  14
ENDBRANCH   9  13
ENDBRANCH   1  11
BRANCH   5  23
ATOM     23  C   UNL     1       6.413   4.728  15.765  0.00  0.00    +0.000 C 
ATOM     24  O   UNL     1       7.521   4.425  16.206  0.00  0.00    +0.000 OA
ATOM     25  N   UNL     1       6.128   4.733  14.422  0.00  0.00    +0.000 N 
ATOM     26  H   UNL     1       5.270   5.157  14.096  0.00  0.00    +0.000 HD
BRANCH  25  27
ATOM     27  C   UNL     1       7.063   4.285  13.399  0.00  0.00    +0.000 C 
BRANCH  27  28
ATOM     28  C   UNL     1       6.378   3.794  12.118  0.00  0.00    +0.000 C 
ATOM     29  C   UNL     1       4.865   3.671  12.201  0.00  0.00    +0.000 C 
ATOM     30  C   UNL     1       4.578   2.619  11.159  0.00  0.00    +0.000 C 
ATOM     31  C   UNL     1       5.771   1.697  11.291  0.00  0.00    +0.000 C 
ATOM     32  O   UNL     1       6.874   2.488  11.756  0.00  0.00    +0.000 OA
ENDBRANCH  27  28
ENDBRANCH  25  27
ENDBRANCH   5  23
TORSDOF 8
ENDMDL
MODEL 3
REMARK VINA RESULT:      -8.2      0.559      1.042
REMARK  Name = 
REMARK  9 active torsions:
REMARK  status: ('A' for Active; 'I' for Inactive)
REMARK    1  A    between atoms: C_1  and  O_2
REMARK    2  A    between atoms: O_2  and  C_3
REMARK    3  A    between atoms: C_6  and  O_7
REMARK    4  A    between atoms: O_7  and  C_8
REMARK    5  A    between atoms: C_8  and  C_9
REMARK    6  A    between atoms: N_11  and  C_12
REMARK    7  A    between atoms: C_16  and  C_17
REMARK    8  A    between atoms: N_19  and  C_20
REMARK    9  A    between atoms: C_20  and  C_21
REMARK                            x       y       z     vdW  Elec       q    Type
REMARK                         _______ _______ _______ _____ _____    ______ ____
ROOT
ATOM      1  C   UNL     1       3.738   5.330  18.107  0.00  0.00    +0.000 A 
ATOM      2  S   UNL     1       3.846   3.615  18.169  0.00  0.00    +0.000 S 
ATOM      3  C   UNL     1       2.630   3.573  19.296  0.00  0.00    +0.000 A 
ATOM      4  C   UNL     1       2.108   4.793  19.631  0.00  0.00    +0.000 A 
ATOM      5  C   UNL     1       2.694   5.857  18.866  0.00  0.00    +0.000 A 
ATOM      6  C   UNL     1       1.040   4.628  20.654  0.00  0.00    +0.000 C 
ATOM      7  C   UNL     1       1.257   3.154  21.135  0.00  0.00    +0.000 C 
ATOM      8  C   UNL     1       2.011   2.421  19.993  0.00  0.00    +0.000 C 
ENDROOT
BRANCH   1  11
ATOM      9  C   UNL     1       5.983   5.979  17.604  0.00  0.00    +0.000 C 
ATOM     10  O   UNL     1       6.461   5.505  18.635  0.00  0.00    +0.000 OA
ATOM     11  N   UNL     1       4.632   5.969  17.258  0.00  0.00    +0.000 N 
ATOM     12  H   UNL     1       4.287   6.810  16.798  0.00  0.00    +0.000 HD
BRANCH   9  13
ATOM     13  C   UNL     1       6.879   6.682  16.596  0.00  0.00    +0.000 C 
BRANCH  13  14
ATOM     14  O   UNL     1       7.680   5.701  15.951  0.00  0.00    +0.000 OA
BRANCH  14  18
ATOM     15  C   UNL     1       6.064   3.622  12.714  0.00  0.00    +0.000 A 
ATOM     16  C   UNL     1       7.135   4.504  12.574  0.00  0.00    +0.000 A 
ATOM     17  C   UNL     1       7.652   5.172  13.685  0.00  0.00    +0.000 A 
ATOM     18  C   UNL     1       7.080   4.997  14.945  0.00  0.00    +0.000 A 
ATOM     19  C   UNL     1       6.005   4.117  15.089  0.00  0.00    +0.000 A 
ATOM     20  C   UNL     1       5.496   3.433  13.975  0.00  0.00    +0.000 A 
BRANCH  15  22
ATOM     21  C   UNL     1       4.238   3.097  11.306  0.00  0.00    +0.000 C 
ATOM     22  O   UNL     1       5.637   3.034  11.556  0.00  0.00    +0.000 OA
ENDBRANCH  15  22
ENDBRANCH  14  18
ENDBRANCH  13  14
ENDBRANCH   9  13
ENDBRANCH   1  11
BRANCH   5  23
ATOM     23  C   UNL     1       2.347   7.282  18.847  0.00  0.00    +0.000 C 
ATOM     24  O   UNL     1       2.576   7.978  17.858  0.00  0.00    +0.000 OA
ATOM     25  N   UNL     1       1.775   7.786  19.990  0.00  0.00    +0.000 N 
ATOM     26  H   UNL     1       1.770   7.229  20.832  0.00  0.00    +0.000 HD
BRANCH  25  27
ATOM     27  C   UNL     1       1.291   9.155  20.111  0.00  0.00    +0.000 C 
BRANCH  27  28
ATOM     28  C   UNL     1       0.934   9.551  21.548  0.00  0.00    +0.000 C 
ATOM     29  C   UNL     1      -0.302   8.873  22.118  0.00  0.00    +0.000 C 
ATOM     30  C   UNL     1      -0.756   9.869  23.155  0.00  0.00    +0.000 C 
ATOM     31  C   UNL     1      -0.424  11.194  22.502  0.00  0.00    +0.000 C 
ATOM     32  O   UNL     1       0.695  10.972  21.630  0.00  0.00    +0.000 OA
ENDBRANCH  27  28
ENDBRANCH  25  27
ENDBRANCH   5  23
TORSDOF 8
ENDMDL
MODEL 4
REMARK VINA RESULT:      -8.1      3.710      5.858
REMARK  Name = 
REMARK  9 active torsions:
REMARK  status: ('A' for Active; 'I' for Inactive)
REMARK    1  A    between atoms: C_1  and  O_2
REMARK    2  A    between atoms: O_2  and  C_3
REMARK    3  A    between atoms: C_6  and  O_7
REMARK    4  A    between atoms: O_7  and  C_8
REMARK    5  A    between atoms: C_8  and  C_9
REMARK    6  A    between atoms: N_11  and  C_12
REMARK    7  A    between atoms: C_16  and  C_17
REMARK    8  A    between atoms: N_19  and  C_20
REMARK    9  A    between atoms: C_20  and  C_21
REMARK                            x       y       z     vdW  Elec       q    Type
REMARK                         _______ _______ _______ _____ _____    ______ ____
ROOT
ATOM      1  C   UNL     1       4.704   6.157  17.377  0.00  0.00    +0.000 A 
ATOM      2  S   UNL     1       5.117   4.535  16.982  0.00  0.00    +0.000 S 
ATOM      3  C   UNL     1       3.646   4.016  17.544  0.00  0.00    +0.000 A 
ATOM      4  C   UNL     1       2.821   5.006  18.006  0.00  0.00    +0.000 A 
ATOM      5  C   UNL     1       3.396   6.310  17.834  0.00  0.00    +0.000 A 
ATOM      6  C   UNL     1       1.543   4.419  18.492  0.00  0.00    +0.000 C 
ATOM      7  C   UNL     1       1.882   2.893  18.577  0.00  0.00    +0.000 C 
ATOM      8  C   UNL     1       3.078   2.650  17.617  0.00  0.00    +0.000 C 
ENDROOT
BRANCH   1  11
ATOM      9  C   UNL     1       6.858   7.077  17.856  0.00  0.00    +0.000 C 
ATOM     10  O   UNL     1       7.109   6.284  18.765  0.00  0.00    +0.000 OA
ATOM     11  N   UNL     1       5.675   7.116  17.119  0.00  0.00    +0.000 N 
ATOM     12  H   UNL     1       5.332   8.045  16.883  0.00  0.00    +0.000 HD
BRANCH   9  13
ATOM     13  C   UNL     1       7.863   8.154  17.479  0.00  0.00    +0.000 C 
BRANCH  13  14
ATOM     14  O   UNL     1       8.629   8.474  18.633  0.00  0.00    +0.000 OA
BRANCH  14  18
ATOM     15  C   UNL     1       9.332  12.572  18.984  0.00  0.00    +0.000 A 
ATOM     16  C   UNL     1       8.759  12.009  17.844  0.00  0.00    +0.000 A 
ATOM     17  C   UNL     1       8.531  10.633  17.772  0.00  0.00    +0.000 A 
ATOM     18  C   UNL     1       8.910   9.798  18.823  0.00  0.00    +0.000 A 
ATOM     19  C   UNL     1       9.487  10.357  19.964  0.00  0.00    +0.000 A 
ATOM     20  C   UNL     1       9.700  11.742  20.044  0.00  0.00    +0.000 A 
BRANCH  15  22
ATOM     21  C   UNL     1       8.527  14.661  18.223  0.00  0.00    +0.000 C 
ATOM     22  O   UNL     1       9.514  13.926  18.937  0.00  0.00    +0.000 OA
ENDBRANCH  15  22
ENDBRANCH  14  18
ENDBRANCH  13  14
ENDBRANCH   9  13
ENDBRANCH   1  11
BRANCH   5  23
ATOM     23  C   UNL     1       2.803   7.625  18.101  0.00  0.00    +0.000 C 
ATOM     24  O   UNL     1       2.968   8.564  17.324  0.00  0.00    +0.000 OA
ATOM     25  N   UNL     1       2.079   7.743  19.262  0.00  0.00    +0.000 N 
ATOM     26  H   UNL     1       2.119   7.006  19.951  0.00  0.00    +0.000 HD
BRANCH  25  27
ATOM     27  C   UNL     1       1.352   8.948  19.638  0.00  0.00    +0.000 C 
BRANCH  27  28
ATOM     28  C   UNL     1       1.083   9.055  21.143  0.00  0.00    +0.000 C 
ATOM     29  C   UNL     1      -0.185   8.367  21.624  0.00  0.00    +0.000 C 
ATOM     30  C   UNL     1      -0.514   9.151  22.870  0.00  0.00    +0.000 C 
ATOM     31  C   UNL     1      -0.094  10.555  22.491  0.00  0.00    +0.000 C 
ATOM     32  O   UNL     1       0.969  10.440  21.533  0.00  0.00    +0.000 OA
ENDBRANCH  27  28
ENDBRANCH  25  27
ENDBRANCH   5  23
TORSDOF 8
ENDMDL
MODEL 5
REMARK VINA RESULT:      -8.0      4.381      9.054
REMARK  Name = 
REMARK  9 active torsions:
REMARK  status: ('A' for Active; 'I' for Inactive)
REMARK    1  A    between atoms: C_1  and  O_2
REMARK    2  A    between atoms: O_2  and  C_3
REMARK    3  A    between atoms: C_6  and  O_7
REMARK    4  A    between atoms: O_7  and  C_8
REMARK    5  A    between atoms: C_8  and  C_9
REMARK    6  A    between atoms: N_11  and  C_12
REMARK    7  A    between atoms: C_16  and  C_17
REMARK    8  A    between atoms: N_19  and  C_20
REMARK    9  A    between atoms: C_20  and  C_21
REMARK                            x       y       z     vdW  Elec       q    Type
REMARK                         _______ _______ _______ _____ _____    ______ ____
ROOT
ATOM      1  C   UNL     1       5.423   6.523  17.295  0.00  0.00    +0.000 A 
ATOM      2  S   UNL     1       4.174   6.637  18.470  0.00  0.00    +0.000 S 
ATOM      3  C   UNL     1       3.603   5.148  18.018  0.00  0.00    +0.000 A 
ATOM      4  C   UNL     1       4.316   4.530  17.026  0.00  0.00    +0.000 A 
ATOM      5  C   UNL     1       5.467   5.294  16.636  0.00  0.00    +0.000 A 
ATOM      6  C   UNL     1       3.704   3.214  16.701  0.00  0.00    +0.000 C 
ATOM      7  C   UNL     1       2.308   3.307  17.404  0.00  0.00    +0.000 C 
ATOM      8  C   UNL     1       2.445   4.372  18.524  0.00  0.00    +0.000 C 
ENDROOT
BRANCH   1  11
ATOM      9  C   UNL     1       7.445   7.608  17.962  0.00  0.00    +0.000 C 
ATOM     10  O   UNL     1       7.775   6.731  18.762  0.00  0.00    +0.000 OA
ATOM     11  N   UNL     1       6.278   7.614  17.201  0.00  0.00    +0.000 N 
ATOM     12  H   UNL     1       5.831   8.521  17.083  0.00  0.00    +0.000 HD
BRANCH   9  13
ATOM     13  C   UNL     1       8.322   8.836  17.767  0.00  0.00    +0.000 C 
BRANCH  13  14
ATOM     14  O   UNL     1       8.676   9.339  19.048  0.00  0.00    +0.000 OA
BRANCH  14  18
ATOM     15  C   UNL     1      10.932  12.841  18.812  0.00  0.00    +0.000 A 
ATOM     16  C   UNL     1      10.493  12.160  17.678  0.00  0.00    +0.000 A 
ATOM     17  C   UNL     1       9.731  10.997  17.802  0.00  0.00    +0.000 A 
ATOM     18  C   UNL     1       9.432  10.478  19.062  0.00  0.00    +0.000 A 
ATOM     19  C   UNL     1       9.874  11.155  20.200  0.00  0.00    +0.000 A 
ATOM     20  C   UNL     1      10.626  12.334  20.075  0.00  0.00    +0.000 A 
BRANCH  15  22
ATOM     21  C   UNL     1      11.539  15.018  19.511  0.00  0.00    +0.000 C 
ATOM     22  O   UNL     1      11.677  13.962  18.567  0.00  0.00    +0.000 OA
ENDBRANCH  15  22
ENDBRANCH  14  18
ENDBRANCH  13  14
ENDBRANCH   9  13
ENDBRANCH   1  11
BRANCH   5  23
ATOM     23  C   UNL     1       6.534   4.943  15.693  0.00  0.00    +0.000 C 
ATOM     24  O   UNL     1       7.718   5.011  16.020  0.00  0.00    +0.000 OA
ATOM     25  N   UNL     1       6.135   4.558  14.436  0.00  0.00    +0.000 N 
ATOM     26  H   UNL     1       5.173   4.688  14.158  0.00  0.00    +0.000 HD
BRANCH  25  27
ATOM     27  C   UNL     1       7.055   4.094  13.407  0.00  0.00    +0.000 C 
BRANCH  27  28
ATOM     28  C   UNL     1       6.356   3.666  12.112  0.00  0.00    +0.000 C 
ATOM     29  C   UNL     1       4.836   3.662  12.168  0.00  0.00    +0.000 C 
ATOM     30  C   UNL     1       4.485   2.641  11.114  0.00  0.00    +0.000 C 
ATOM     31  C   UNL     1       5.599   1.627  11.260  0.00  0.00    +0.000 C 
ATOM     32  O   UNL     1       6.753   2.326  11.749  0.00  0.00    +0.000 OA
ENDBRANCH  27  28
ENDBRANCH  25  27
ENDBRANCH   5  23
TORSDOF 8
ENDMDL
MODEL 6
REMARK VINA RESULT:      -8.0      3.504      5.608
REMARK  Name = 
REMARK  9 active torsions:
REMARK  status: ('A' for Active; 'I' for Inactive)
REMARK    1  A    between atoms: C_1  and  O_2
REMARK    2  A    between atoms: O_2  and  C_3
REMARK    3  A    between atoms: C_6  and  O_7
REMARK    4  A    between atoms: O_7  and  C_8
REMARK    5  A    between atoms: C_8  and  C_9
REMARK    6  A    between atoms: N_11  and  C_12
REMARK    7  A    between atoms: C_16  and  C_17
REMARK    8  A    between atoms: N_19  and  C_20
REMARK    9  A    between atoms: C_20  and  C_21
REMARK                            x       y       z     vdW  Elec       q    Type
REMARK                         _______ _______ _______ _____ _____    ______ ____
ROOT
ATOM      1  C   UNL     1       4.656   5.567  17.336  0.00  0.00    +0.000 A 
ATOM      2  S   UNL     1       4.911   3.946  16.824  0.00  0.00    +0.000 S 
ATOM      3  C   UNL     1       3.425   3.517  17.420  0.00  0.00    +0.000 A 
ATOM      4  C   UNL     1       2.707   4.539  17.979  0.00  0.00    +0.000 A 
ATOM      5  C   UNL     1       3.385   5.799  17.862  0.00  0.00    +0.000 A 
ATOM      6  C   UNL     1       1.404   4.030  18.486  0.00  0.00    +0.000 C 
ATOM      7  C   UNL     1       1.613   2.479  18.461  0.00  0.00    +0.000 C 
ATOM      8  C   UNL     1       2.743   2.200  17.435  0.00  0.00    +0.000 C 
ENDROOT
BRANCH   1  11
ATOM      9  C   UNL     1       6.771   6.475  17.978  0.00  0.00    +0.000 C 
ATOM     10  O   UNL     1       6.869   5.796  19.002  0.00  0.00    +0.000 OA
ATOM     11  N   UNL     1       5.694   6.457  17.094  0.00  0.00    +0.000 N 
ATOM     12  H   UNL     1       5.427   7.359  16.704  0.00  0.00    +0.000 HD
BRANCH   9  13
ATOM     13  C   UNL     1       7.865   7.466  17.609  0.00  0.00    +0.000 C 
BRANCH  13  14
ATOM     14  O   UNL     1       7.292   8.766  17.562  0.00  0.00    +0.000 OA
BRANCH  14  18
ATOM     15  C   UNL     1       9.858  11.704  19.042  0.00  0.00    +0.000 A 
ATOM     16  C   UNL     1       9.823  10.413  19.567  0.00  0.00    +0.000 A 
ATOM     17  C   UNL     1       8.956   9.456  19.035  0.00  0.00    +0.000 A 
ATOM     18  C   UNL     1       8.085   9.790  17.998  0.00  0.00    +0.000 A 
ATOM     19  C   UNL     1       8.115  11.084  17.473  0.00  0.00    +0.000 A 
ATOM     20  C   UNL     1       8.998  12.040  17.996  0.00  0.00    +0.000 A 
BRANCH  15  22
ATOM     21  C   UNL     1      12.050  12.045  19.862  0.00  0.00    +0.000 C 
ATOM     22  O   UNL     1      10.739  12.556  19.649  0.00  0.00    +0.000 OA
ENDBRANCH  15  22
ENDBRANCH  14  18
ENDBRANCH  13  14
ENDBRANCH   9  13
ENDBRANCH   1  11
BRANCH   5  23
ATOM     23  C   UNL     1       2.919   7.139  18.236  0.00  0.00    +0.000 C 
ATOM     24  O   UNL     1       3.077   8.098  17.483  0.00  0.00    +0.000 OA
ATOM     25  N   UNL     1       2.321   7.255  19.467  0.00  0.00    +0.000 N 
ATOM     26  H   UNL     1       2.373   6.486  20.120  0.00  0.00    +0.000 HD
BRANCH  25  27
ATOM     27  C   UNL     1       1.724   8.490  19.958  0.00  0.00    +0.000 C 
BRANCH  27  28
ATOM     28  C   UNL     1       0.961   8.316  21.276  0.00  0.00    +0.000 C 
ATOM     29  C   UNL     1      -0.464   8.847  21.273  0.00  0.00    +0.000 C 
ATOM     30  C   UNL     1      -0.691   9.146  22.734  0.00  0.00    +0.000 C 
ATOM     31  C   UNL     1       0.670   9.635  23.182  0.00  0.00    +0.000 C 
ATOM     32  O   UNL     1       1.649   9.001  22.345  0.00  0.00    +0.000 OA
ENDBRANCH  27  28
ENDBRANCH  25  27
ENDBRANCH   5  23
TORSDOF 8
ENDMDL
MODEL 7
REMARK VINA RESULT:      -8.0      2.455      8.746
REMARK  Name = 
REMARK  9 active torsions:
REMARK  status: ('A' for Active; 'I' for Inactive)
REMARK    1  A    between atoms: C_1  and  O_2
REMARK    2  A    between atoms: O_2  and  C_3
REMARK    3  A    between atoms: C_6  and  O_7
REMARK    4  A    between atoms: O_7  and  C_8
REMARK    5  A    between atoms: C_8  and  C_9
REMARK    6  A    between atoms: N_11  and  C_12
REMARK    7  A    between atoms: C_16  and  C_17
REMARK    8  A    between atoms: N_19  and  C_20
REMARK    9  A    between atoms: C_20  and  C_21
REMARK                            x       y       z     vdW  Elec       q    Type
REMARK                         _______ _______ _______ _____ _____    ______ ____
ROOT
ATOM      1  C   UNL     1       4.595   5.945  17.523  0.00  0.00    +0.000 A 
ATOM      2  S   UNL     1       4.834   6.929  16.134  0.00  0.00    +0.000 S 
ATOM      3  C   UNL     1       5.531   5.651  15.340  0.00  0.00    +0.000 A 
ATOM      4  C   UNL     1       5.583   4.485  16.054  0.00  0.00    +0.000 A 
ATOM      5  C   UNL     1       4.947   4.609  17.335  0.00  0.00    +0.000 A 
ATOM      6  C   UNL     1       6.237   3.420  15.246  0.00  0.00    +0.000 C 
ATOM      7  C   UNL     1       6.886   4.234  14.076  0.00  0.00    +0.000 C 
ATOM      8  C   UNL     1       6.099   5.568  13.974  0.00  0.00    +0.000 C 
ENDROOT
BRANCH   1  11
ATOM      9  C   UNL     1       2.625   6.501  18.758  0.00  0.00    +0.000 C 
ATOM     10  O   UNL     1       1.850   5.975  17.958  0.00  0.00    +0.000 OA
ATOM     11  N   UNL     1       4.011   6.566  18.620  0.00  0.00    +0.000 N 
ATOM     12  H   UNL     1       4.445   7.435  18.924  0.00  0.00    +0.000 HD
BRANCH   9  13
ATOM     13  C   UNL     1       2.090   7.189  20.004  0.00  0.00    +0.000 C 
BRANCH  13  14
ATOM     14  O   UNL     1       1.620   8.479  19.634  0.00  0.00    +0.000 OA
BRANCH  14  18
ATOM     15  C   UNL     1      -0.369  10.859  22.426  0.00  0.00    +0.000 A 
ATOM     16  C   UNL     1       0.180  11.383  21.256  0.00  0.00    +0.000 A 
ATOM     17  C   UNL     1       0.829  10.549  20.343  0.00  0.00    +0.000 A 
ATOM     18  C   UNL     1       0.971   9.187  20.607  0.00  0.00    +0.000 A 
ATOM     19  C   UNL     1       0.426   8.659  21.779  0.00  0.00    +0.000 A 
ATOM     20  C   UNL     1      -0.241   9.495  22.689  0.00  0.00    +0.000 A 
BRANCH  15  22
ATOM     21  C   UNL     1      -2.394  11.775  23.233  0.00  0.00    +0.000 C 
ATOM     22  O   UNL     1      -0.971  11.771  23.247  0.00  0.00    +0.000 OA
ENDBRANCH  15  22
ENDBRANCH  14  18
ENDBRANCH  13  14
ENDBRANCH   9  13
ENDBRANCH   1  11
BRANCH   5  23
ATOM     23  C   UNL     1       4.700   3.579  18.349  0.00  0.00    +0.000 C 
ATOM     24  O   UNL     1       5.249   3.626  19.449  0.00  0.00    +0.000 OA
ATOM     25  N   UNL     1       3.844   2.565  17.993  0.00  0.00    +0.000 N 
ATOM     26  H   UNL     1       3.560   2.469  17.028  0.00  0.00    +0.000 HD
BRANCH  25  27
ATOM     27  C   UNL     1       3.421   1.511  18.905  0.00  0.00    +0.000 C 
BRANCH  27  28
ATOM     28  C   UNL     1       2.216   1.899  19.768  0.00  0.00    +0.000 C 
ATOM     29  C   UNL     1       1.242   2.870  19.120  0.00  0.00    +0.000 C 
ATOM     30  C   UNL     1       0.618   3.538  20.320  0.00  0.00    +0.000 C 
ATOM     31  C   UNL     1       1.779   3.617  21.288  0.00  0.00    +0.000 C 
ATOM     32  O   UNL     1       2.658   2.522  20.993  0.00  0.00    +0.000 OA
ENDBRANCH  27  28
ENDBRANCH  25  27
ENDBRANCH   5  23
TORSDOF 8
ENDMDL
MODEL 8
REMARK VINA RESULT:      -8.0      0.844      1.068
REMARK  Name = 
REMARK  9 active torsions:
REMARK  status: ('A' for Active; 'I' for Inactive)
REMARK    1  A    between atoms: C_1  and  O_2
REMARK    2  A    between atoms: O_2  and  C_3
REMARK    3  A    between atoms: C_6  and  O_7
REMARK    4  A    between atoms: O_7  and  C_8
REMARK    5  A    between atoms: C_8  and  C_9
REMARK    6  A    between atoms: N_11  and  C_12
REMARK    7  A    between atoms: C_16  and  C_17
REMARK    8  A    between atoms: N_19  and  C_20
REMARK    9  A    between atoms: C_20  and  C_21
REMARK                            x       y       z     vdW  Elec       q    Type
REMARK                         _______ _______ _______ _____ _____    ______ ____
ROOT
ATOM      1  C   UNL     1       3.398   5.161  17.847  0.00  0.00    +0.000 A 
ATOM      2  S   UNL     1       3.241   3.468  17.592  0.00  0.00    +0.000 S 
ATOM      3  C   UNL     1       2.206   3.362  18.882  0.00  0.00    +0.000 A 
ATOM      4  C   UNL     1       1.936   4.550  19.508  0.00  0.00    +0.000 A 
ATOM      5  C   UNL     1       2.568   5.659  18.852  0.00  0.00    +0.000 A 
ATOM      6  C   UNL     1       1.011   4.326  20.651  0.00  0.00    +0.000 C 
ATOM      7  C   UNL     1       1.057   2.771  20.825  0.00  0.00    +0.000 C 
ATOM      8  C   UNL     1       1.516   2.186  19.463  0.00  0.00    +0.000 C 
ENDROOT
BRANCH   1  11
ATOM      9  C   UNL     1       5.613   5.867  17.291  0.00  0.00    +0.000 C 
ATOM     10  O   UNL     1       6.131   5.387  18.300  0.00  0.00    +0.000 OA
ATOM     11  N   UNL     1       4.253   5.834  16.984  0.00  0.00    +0.000 N 
ATOM     12  H   UNL     1       3.877   6.674  16.549  0.00  0.00    +0.000 HD
BRANCH   9  13
ATOM     13  C   UNL     1       6.464   6.606  16.270  0.00  0.00    +0.000 C 
BRANCH  13  14
ATOM     14  O   UNL     1       7.430   5.701  15.755  0.00  0.00    +0.000 OA
BRANCH  14  18
ATOM     15  C   UNL     1       6.054   3.433  12.534  0.00  0.00    +0.000 A 
ATOM     16  C   UNL     1       5.459   3.376  13.794  0.00  0.00    +0.000 A 
ATOM     17  C   UNL     1       5.945   4.160  14.842  0.00  0.00    +0.000 A 
ATOM     18  C   UNL     1       7.057   4.981  14.654  0.00  0.00    +0.000 A 
ATOM     19  C   UNL     1       7.657   5.037  13.395  0.00  0.00    +0.000 A 
ATOM     20  C   UNL     1       7.158   4.262  12.337  0.00  0.00    +0.000 A 
BRANCH  15  22
ATOM     21  C   UNL     1       6.307   1.526  11.158  0.00  0.00    +0.000 C 
ATOM     22  O   UNL     1       5.498   2.615  11.589  0.00  0.00    +0.000 OA
ENDBRANCH  15  22
ENDBRANCH  14  18
ENDBRANCH  13  14
ENDBRANCH   9  13
ENDBRANCH   1  11
BRANCH   5  23
ATOM     23  C   UNL     1       2.453   7.092  19.139  0.00  0.00    +0.000 C 
ATOM     24  O   UNL     1       2.808   7.935  18.317  0.00  0.00    +0.000 OA
ATOM     25  N   UNL     1       1.946   7.429  20.371  0.00  0.00    +0.000 N 
ATOM     26  H   UNL     1       1.837   6.714  21.076  0.00  0.00    +0.000 HD
BRANCH  25  27
ATOM     27  C   UNL     1       1.683   8.800  20.786  0.00  0.00    +0.000 C 
BRANCH  27  28
ATOM     28  C   UNL     1       0.267   9.279  20.447  0.00  0.00    +0.000 C 
ATOM     29  C   UNL     1       0.143  10.065  19.152  0.00  0.00    +0.000 C 
ATOM     30  C   UNL     1      -1.080  10.909  19.412  0.00  0.00    +0.000 C 
ATOM     31  C   UNL     1      -0.951  11.222  20.888  0.00  0.00    +0.000 C 
ATOM     32  O   UNL     1      -0.234  10.136  21.494  0.00  0.00    +0.000 OA
ENDBRANCH  27  28
ENDBRANCH  25  27
ENDBRANCH   5  23
TORSDOF 8
ENDMDL
MODEL 9
REMARK VINA RESULT:      -8.0      0.988      1.507
REMARK  Name = 
REMARK  9 active torsions:
REMARK  status: ('A' for Active; 'I' for Inactive)
REMARK    1  A    between atoms: C_1  and  O_2
REMARK    2  A    between atoms: O_2  and  C_3
REMARK    3  A    between atoms: C_6  and  O_7
REMARK    4  A    between atoms: O_7  and  C_8
REMARK    5  A    between atoms: C_8  and  C_9
REMARK    6  A    between atoms: N_11  and  C_12
REMARK    7  A    between atoms: C_16  and  C_17
REMARK    8  A    between atoms: N_19  and  C_20
REMARK    9  A    between atoms: C_20  and  C_21
REMARK                            x       y       z     vdW  Elec       q    Type
REMARK                         _______ _______ _______ _____ _____    ______ ____
ROOT
ATOM      1  C   UNL     1       3.560   5.250  18.051  0.00  0.00    +0.000 A 
ATOM      2  S   UNL     1       3.472   3.549  17.816  0.00  0.00    +0.000 S 
ATOM      3  C   UNL     1       2.336   3.434  19.018  0.00  0.00    +0.000 A 
ATOM      4  C   UNL     1       1.983   4.624  19.597  0.00  0.00    +0.000 A 
ATOM      5  C   UNL     1       2.636   5.740  18.975  0.00  0.00    +0.000 A 
ATOM      6  C   UNL     1       0.972   4.391  20.664  0.00  0.00    +0.000 C 
ATOM      7  C   UNL     1       1.047   2.842  20.870  0.00  0.00    +0.000 C 
ATOM      8  C   UNL     1       1.634   2.248  19.562  0.00  0.00    +0.000 C 
ENDROOT
BRANCH   1  11
ATOM      9  C   UNL     1       5.789   6.025  17.674  0.00  0.00    +0.000 C 
ATOM     10  O   UNL     1       6.231   5.590  18.738  0.00  0.00    +0.000 OA
ATOM     11  N   UNL     1       4.464   5.933  17.249  0.00  0.00    +0.000 N 
ATOM     12  H   UNL     1       4.099   6.748  16.760  0.00  0.00    +0.000 HD
BRANCH   9  13
ATOM     13  C   UNL     1       6.701   6.771  16.713  0.00  0.00    +0.000 C 
BRANCH  13  14
ATOM     14  O   UNL     1       7.576   5.830  16.106  0.00  0.00    +0.000 OA
BRANCH  14  18
ATOM     15  C   UNL     1       6.165   3.636  12.849  0.00  0.00    +0.000 A 
ATOM     16  C   UNL     1       7.127   4.637  12.713  0.00  0.00    +0.000 A 
ATOM     17  C   UNL     1       7.579   5.340  13.831  0.00  0.00    +0.000 A 
ATOM     18  C   UNL     1       7.047   5.079  15.094  0.00  0.00    +0.000 A 
ATOM     19  C   UNL     1       6.081   4.080  15.233  0.00  0.00    +0.000 A 
ATOM     20  C   UNL     1       5.638   3.362  14.112  0.00  0.00    +0.000 A 
BRANCH  15  22
ATOM     21  C   UNL     1       4.408   3.082  11.367  0.00  0.00    +0.000 C 
ATOM     22  O   UNL     1       5.793   3.023  11.685  0.00  0.00    +0.000 OA
ENDBRANCH  15  22
ENDBRANCH  14  18
ENDBRANCH  13  14
ENDBRANCH   9  13
ENDBRANCH   1  11
BRANCH   5  23
ATOM     23  C   UNL     1       2.457   7.174  19.225  0.00  0.00    +0.000 C 
ATOM     24  O   UNL     1       2.781   8.010  18.382  0.00  0.00    +0.000 OA
ATOM     25  N   UNL     1       1.929   7.519  20.445  0.00  0.00    +0.000 N 
ATOM     26  H   UNL     1       1.846   6.818  21.168  0.00  0.00    +0.000 HD
BRANCH  25  27
ATOM     27  C   UNL     1       1.604   8.888  20.823  0.00  0.00    +0.000 C 
BRANCH  27  28
ATOM     28  C   UNL     1       0.198   9.322  20.395  0.00  0.00    +0.000 C 
ATOM     29  C   UNL     1       0.123  10.041  19.057  0.00  0.00    +0.000 C 
ATOM     30  C   UNL     1      -1.125  10.873  19.217  0.00  0.00    +0.000 C 
ATOM     31  C   UNL     1      -1.072  11.260  20.680  0.00  0.00    +0.000 C 
ATOM     32  O   UNL     1      -0.367  10.220  21.373  0.00  0.00    +0.000 OA
ENDBRANCH  27  28
ENDBRANCH  25  27
ENDBRANCH   5  23
TORSDOF 8
ENDMDL
