MODEL 1
REMARK VINA RESULT:      -8.0      0.000      0.000
REMARK  Name = 
REMARK  6 active torsions:
REMARK  status: ('A' for Active; 'I' for Inactive)
REMARK    1  A    between atoms: C_1  and  C_2
REMARK    2  A    between atoms: C_2  and  C_4
REMARK    3  A    between atoms: C_8  and  N_9
REMARK    4  A    between atoms: N_12  and  C_13
REMARK    5  A    between atoms: C_13  and  C_14
REMARK    6  A    between atoms: C_13  and  C_15
REMARK                            x       y       z     vdW  Elec       q    Type
REMARK                         _______ _______ _______ _____ _____    ______ ____
ROOT
ATOM      1  N   UNL     1       1.550   9.486  18.163  0.00  0.00    +0.000 N 
ATOM      2  C   UNL     1       1.949   8.368  18.873  0.00  0.00    +0.000 C 
ATOM      3  O   UNL     1       1.695   8.161  20.055  0.00  0.00    +0.000 OA
ATOM      4  N   UNL     1       2.638   7.468  18.109  0.00  0.00    +0.000 N 
ATOM      5  H   UNL     1       2.101   9.728  17.351  0.00  0.00    +0.000 HD
ATOM      6  H   UNL     1       2.978   7.756  17.208  0.00  0.00    +0.000 HD
ENDROOT
BRANCH   1  11
ATOM      7  C   UNL     1      -1.680  11.271  18.663  0.00  0.00    +0.000 A 
ATOM      8  C   UNL     1      -1.288  12.335  19.481  0.00  0.00    +0.000 A 
ATOM      9  C   UNL     1       0.040  12.438  19.888  0.00  0.00    +0.000 A 
ATOM     10  C   UNL     1       0.976  11.499  19.462  0.00  0.00    +0.000 A 
ATOM     11  C   UNL     1       0.611  10.447  18.616  0.00  0.00    +0.000 A 
ATOM     12  C   UNL     1      -0.731  10.324  18.238  0.00  0.00    +0.000 A 
BRANCH   7  14
ATOM     13  C   UNL     1      -3.452  10.049  17.223  0.00  0.00    +0.000 C 
ATOM     14  C   UNL     1      -3.102  11.126  18.220  0.00  0.00    +0.000 C 
ATOM     15  O   UNL     1      -3.962  11.878  18.678  0.00  0.00    +0.000 OA
ENDBRANCH   7  14
ENDBRANCH   1  11
BRANCH   4  16
ATOM     16  C   UNL     1       3.194   6.255  18.704  0.00  0.00    +0.000 C 
ATOM     17  C   UNL     1       2.236   5.085  18.533  0.00  0.00    +0.000 C 
BRANCH  16  18
ATOM     18  C   UNL     1       4.581   6.015  18.134  0.00  0.00    +0.000 A 
ATOM     19  C   UNL     1       5.573   5.314  18.864  0.00  0.00    +0.000 A 
ATOM     20  C   UNL     1       6.726   4.833  18.235  0.00  0.00    +0.000 A 
ATOM     21  C   UNL     1       6.839   5.047  16.881  0.00  0.00    +0.000 A 
ATOM     22  C   UNL     1       5.925   5.804  16.183  0.00  0.00    +0.000 A 
ATOM     23  C   UNL     1       4.810   6.335  16.784  0.00  0.00    +0.000 A 
ATOM     24  O   UNL     1       6.187   5.823  14.846  0.00  0.00    +0.000 OA
ATOM     25  C   UNL     1       7.104   4.714  14.783  0.00  0.00    +0.000 C 
ATOM     26  O   UNL     1       7.758   4.477  16.050  0.00  0.00    +0.000 OA
ENDBRANCH  16  18
ENDBRANCH   4  16
TORSDOF 4
ENDMDL
MODEL 2
REMARK VINA RESULT:      -7.8      1.403      8.942
REMARK  Name = 
REMARK  6 active torsions:
REMARK  status: ('A' for Active; 'I' for Inactive)
REMARK    1  A    between atoms: C_1  and  C_2
REMARK    2  A    between atoms: C_2  and  C_4
REMARK    3  A    between atoms: C_8  and  N_9
REMARK    4  A    between atoms: N_12  and  C_13
REMARK    5  A    between atoms: C_13  and  C_14
REMARK    6  A    between atoms: C_13  and  C_15
REMARK                            x       y       z     vdW  Elec       q    Type
REMARK                         _______ _______ _______ _____ _____    ______ ____
ROOT
ATOM      1  N   UNL     1       2.520   7.965  17.482  0.00  0.00    +0.000 N 
ATOM      2  C   UNL     1       1.868   8.658  18.487  0.00  0.00    +0.000 C 
ATOM      3  O   UNL     1       1.773   8.280  19.650  0.00  0.00    +0.000 OA
ATOM      4  N   UNL     1       1.358   9.854  18.068  0.00  0.00    +0.000 N 
ATOM      5  H   UNL     1       2.231   8.163  16.534  0.00  0.00    +0.000 HD
ATOM      6  H   UNL     1       1.299  10.038  17.081  0.00  0.00    +0.000 HD
ENDROOT
BRANCH   1  11
ATOM      7  C   UNL     1       5.587   5.858  17.622  0.00  0.00    +0.000 A 
ATOM      8  C   UNL     1       5.065   4.632  18.047  0.00  0.00    +0.000 A 
ATOM      9  C   UNL     1       3.703   4.519  18.314  0.00  0.00    +0.000 A 
ATOM     10  C   UNL     1       2.863   5.616  18.136  0.00  0.00    +0.000 A 
ATOM     11  C   UNL     1       3.360   6.840  17.679  0.00  0.00    +0.000 A 
ATOM     12  C   UNL     1       4.734   6.962  17.446  0.00  0.00    +0.000 A 
BRANCH   7  14
ATOM     13  C   UNL     1       7.860   6.965  18.185  0.00  0.00    +0.000 C 
ATOM     14  C   UNL     1       7.048   6.014  17.340  0.00  0.00    +0.000 C 
ATOM     15  O   UNL     1       7.566   5.364  16.433  0.00  0.00    +0.000 OA
ENDBRANCH   7  14
ENDBRANCH   1  11
BRANCH   4  16
ATOM     16  C   UNL     1       0.582  10.694  18.976  0.00  0.00    +0.000 C 
ATOM     17  C   UNL     1       1.188  12.087  19.070  0.00  0.00    +0.000 C 
BRANCH  16  18
ATOM     18  C   UNL     1      -0.874  10.674  18.546  0.00  0.00    +0.000 A 
ATOM     19  C   UNL     1      -1.833  11.541  19.129  0.00  0.00    +0.000 A 
ATOM     20  C   UNL     1      -3.083  11.737  18.533  0.00  0.00    +0.000 A 
ATOM     21  C   UNL     1      -3.328  11.076  17.352  0.00  0.00    +0.000 A 
ATOM     22  C   UNL     1      -2.438  10.165  16.828  0.00  0.00    +0.000 A 
ATOM     23  C   UNL     1      -1.225   9.911  17.419  0.00  0.00    +0.000 A 
ATOM     24  O   UNL     1      -2.844   9.688  15.618  0.00  0.00    +0.000 OA
ATOM     25  C   UNL     1      -3.849  10.674  15.316  0.00  0.00    +0.000 C 
ATOM     26  O   UNL     1      -4.376  11.298  16.508  0.00  0.00    +0.000 OA
ENDBRANCH  16  18
ENDBRANCH   4  16
TORSDOF 4
ENDMDL
MODEL 3
REMARK VINA RESULT:      -7.8      2.735      3.597
REMARK  Name = 
REMARK  6 active torsions:
REMARK  status: ('A' for Active; 'I' for Inactive)
REMARK    1  A    between atoms: C_1  and  C_2
REMARK    2  A    between atoms: C_2  and  C_4
REMARK    3  A    between atoms: C_8  and  N_9
REMARK    4  A    between atoms: N_12  and  C_13
REMARK    5  A    between atoms: C_13  and  C_14
REMARK    6  A    between atoms: C_13  and  C_15
REMARK                            x       y       z     vdW  Elec       q    Type
REMARK                         _______ _______ _______ _____ _____    ______ ____
ROOT
ATOM      1  N   UNL     1       2.094   6.360  20.469  0.00  0.00    +0.000 N 
ATOM      2  C   UNL     1       2.501   5.605  19.383  0.00  0.00    +0.000 C 
ATOM      3  O   UNL     1       2.309   5.907  18.209  0.00  0.00    +0.000 OA
ATOM      4  N   UNL     1       3.190   4.481  19.741  0.00  0.00    +0.000 N 
ATOM      5  H   UNL     1       1.970   5.866  21.342  0.00  0.00    +0.000 HD
ATOM      6  H   UNL     1       3.165   4.181  20.700  0.00  0.00    +0.000 HD
ENDROOT
BRANCH   1  11
ATOM      7  C   UNL     1       0.521   9.573  21.500  0.00  0.00    +0.000 A 
ATOM      8  C   UNL     1       0.593  10.313  20.315  0.00  0.00    +0.000 A 
ATOM      9  C   UNL     1       1.191   9.753  19.189  0.00  0.00    +0.000 A 
ATOM     10  C   UNL     1       1.692   8.454  19.237  0.00  0.00    +0.000 A 
ATOM     11  C   UNL     1       1.598   7.686  20.401  0.00  0.00    +0.000 A 
ATOM     12  C   UNL     1       1.030   8.263  21.542  0.00  0.00    +0.000 A 
BRANCH   7  14
ATOM     13  C   UNL     1      -1.110  11.269  22.583  0.00  0.00    +0.000 C 
ATOM     14  C   UNL     1      -0.104  10.153  22.729  0.00  0.00    +0.000 C 
ATOM     15  O   UNL     1       0.202   9.710  23.836  0.00  0.00    +0.000 OA
ENDBRANCH   7  14
ENDBRANCH   1  11
BRANCH   4  16
ATOM     16  C   UNL     1       3.644   3.530  18.729  0.00  0.00    +0.000 C 
ATOM     17  C   UNL     1       2.497   3.133  17.811  0.00  0.00    +0.000 C 
BRANCH  16  18
ATOM     18  C   UNL     1       4.848   4.111  18.009  0.00  0.00    +0.000 A 
ATOM     19  C   UNL     1       4.909   4.172  16.594  0.00  0.00    +0.000 A 
ATOM     20  C   UNL     1       5.859   4.969  15.947  0.00  0.00    +0.000 A 
ATOM     21  C   UNL     1       6.708   5.705  16.740  0.00  0.00    +0.000 A 
ATOM     22  C   UNL     1       6.714   5.582  18.112  0.00  0.00    +0.000 A 
ATOM     23  C   UNL     1       5.829   4.767  18.773  0.00  0.00    +0.000 A 
ATOM     24  O   UNL     1       7.577   6.456  18.702  0.00  0.00    +0.000 OA
ATOM     25  C   UNL     1       7.789   7.345  17.589  0.00  0.00    +0.000 C 
ATOM     26  O   UNL     1       7.543   6.698  16.321  0.00  0.00    +0.000 OA
ENDBRANCH  16  18
ENDBRANCH   4  16
TORSDOF 4
ENDMDL
MODEL 4
REMARK VINA RESULT:      -7.8      2.265      8.657
REMARK  Name = 
REMARK  6 active torsions:
REMARK  status: ('A' for Active; 'I' for Inactive)
REMARK    1  A    between atoms: C_1  and  C_2
REMARK    2  A    between atoms: C_2  and  C_4
REMARK    3  A    between atoms: C_8  and  N_9
REMARK    4  A    between atoms: N_12  and  C_13
REMARK    5  A    between atoms: C_13  and  C_14
REMARK    6  A    between atoms: C_13  and  C_15
REMARK                            x       y       z     vdW  Elec       q    Type
REMARK                         _______ _______ _______ _____ _____    ______ ____
ROOT
ATOM      1  N   UNL     1       2.401   7.284  17.799  0.00  0.00    +0.000 N 
ATOM      2  C   UNL     1       1.893   8.158  18.745  0.00  0.00    +0.000 C 
ATOM      3  O   UNL     1       1.892   7.956  19.956  0.00  0.00    +0.000 OA
ATOM      4  N   UNL     1       1.416   9.317  18.201  0.00  0.00    +0.000 N 
ATOM      5  H   UNL     1       2.031   7.367  16.863  0.00  0.00    +0.000 HD
ATOM      6  H   UNL     1       1.270   9.363  17.208  0.00  0.00    +0.000 HD
ENDROOT
BRANCH   1  11
ATOM      7  C   UNL     1       3.327   3.735  18.441  0.00  0.00    +0.000 A 
ATOM      8  C   UNL     1       4.705   3.840  18.655  0.00  0.00    +0.000 A 
ATOM      9  C   UNL     1       5.325   5.083  18.555  0.00  0.00    +0.000 A 
ATOM     10  C   UNL     1       4.571   6.218  18.267  0.00  0.00    +0.000 A 
ATOM     11  C   UNL     1       3.187   6.140  18.084  0.00  0.00    +0.000 A 
ATOM     12  C   UNL     1       2.571   4.885  18.149  0.00  0.00    +0.000 A 
BRANCH   7  14
ATOM     13  C   UNL     1       1.143   2.380  18.761  0.00  0.00    +0.000 C 
ATOM     14  C   UNL     1       2.634   2.412  18.529  0.00  0.00    +0.000 C 
ATOM     15  O   UNL     1       3.285   1.375  18.405  0.00  0.00    +0.000 OA
ENDBRANCH   7  14
ENDBRANCH   1  11
BRANCH   4  16
ATOM     16  C   UNL     1       0.785  10.332  19.041  0.00  0.00    +0.000 C 
ATOM     17  C   UNL     1       1.581  11.629  19.007  0.00  0.00    +0.000 C 
BRANCH  16  18
ATOM     18  C   UNL     1      -0.669  10.480  18.630  0.00  0.00    +0.000 A 
ATOM     19  C   UNL     1      -1.513  11.455  19.221  0.00  0.00    +0.000 A 
ATOM     20  C   UNL     1      -2.739  11.793  18.640  0.00  0.00    +0.000 A 
ATOM     21  C   UNL     1      -3.075  11.161  17.465  0.00  0.00    +0.000 A 
ATOM     22  C   UNL     1      -2.305  10.151  16.935  0.00  0.00    +0.000 A 
ATOM     23  C   UNL     1      -1.121   9.759  17.511  0.00  0.00    +0.000 A 
ATOM     24  O   UNL     1      -2.779   9.720  15.732  0.00  0.00    +0.000 OA
ATOM     25  C   UNL     1      -3.666  10.816  15.438  0.00  0.00    +0.000 C 
ATOM     26  O   UNL     1      -4.101  11.501  16.634  0.00  0.00    +0.000 OA
ENDBRANCH  16  18
ENDBRANCH   4  16
TORSDOF 4
ENDMDL
MODEL 5
REMARK VINA RESULT:      -7.7      4.776      8.947
REMARK  Name = 
REMARK  6 active torsions:
REMARK  status: ('A' for Active; 'I' for Inactive)
REMARK    1  A    between atoms: C_1  and  C_2
REMARK    2  A    between atoms: C_2  and  C_4
REMARK    3  A    between atoms: C_8  and  N_9
REMARK    4  A    between atoms: N_12  and  C_13
REMARK    5  A    between atoms: C_13  and  C_14
REMARK    6  A    between atoms: C_13  and  C_15
REMARK                            x       y       z     vdW  Elec       q    Type
REMARK                         _______ _______ _______ _____ _____    ______ ____
ROOT
ATOM      1  N   UNL     1       6.301   4.796  15.857  0.00  0.00    +0.000 N 
ATOM      2  C   UNL     1       5.362   5.681  16.359  0.00  0.00    +0.000 C 
ATOM      3  O   UNL     1       4.813   6.563  15.706  0.00  0.00    +0.000 OA
ATOM      4  N   UNL     1       5.062   5.453  17.672  0.00  0.00    +0.000 N 
ATOM      5  H   UNL     1       6.936   4.383  16.526  0.00  0.00    +0.000 HD
ATOM      6  H   UNL     1       5.659   4.849  18.209  0.00  0.00    +0.000 HD
ENDROOT
BRANCH   1  11
ATOM      7  C   UNL     1       6.126   3.551  12.353  0.00  0.00    +0.000 A 
ATOM      8  C   UNL     1       7.186   4.243  11.757  0.00  0.00    +0.000 A 
ATOM      9  C   UNL     1       7.934   5.141  12.513  0.00  0.00    +0.000 A 
ATOM     10  C   UNL     1       7.642   5.332  13.862  0.00  0.00    +0.000 A 
ATOM     11  C   UNL     1       6.609   4.624  14.485  0.00  0.00    +0.000 A 
ATOM     12  C   UNL     1       5.835   3.749  13.714  0.00  0.00    +0.000 A 
BRANCH   7  14
ATOM     13  C   UNL     1       3.922   3.012  11.106  0.00  0.00    +0.000 C 
ATOM     14  C   UNL     1       5.297   2.589  11.562  0.00  0.00    +0.000 C 
ATOM     15  O   UNL     1       5.746   1.476  11.291  0.00  0.00    +0.000 OA
ENDBRANCH   7  14
ENDBRANCH   1  11
BRANCH   4  16
ATOM     16  C   UNL     1       4.136   6.328  18.388  0.00  0.00    +0.000 C 
ATOM     17  C   UNL     1       3.688   7.479  17.499  0.00  0.00    +0.000 C 
BRANCH  16  18
ATOM     18  C   UNL     1       2.999   5.492  18.948  0.00  0.00    +0.000 A 
ATOM     19  C   UNL     1       2.094   4.807  18.100  0.00  0.00    +0.000 A 
ATOM     20  C   UNL     1       1.251   3.809  18.601  0.00  0.00    +0.000 A 
ATOM     21  C   UNL     1       1.358   3.508  19.939  0.00  0.00    +0.000 A 
ATOM     22  C   UNL     1       2.170   4.231  20.786  0.00  0.00    +0.000 A 
ATOM     23  C   UNL     1       2.969   5.251  20.333  0.00  0.00    +0.000 A 
ATOM     24  O   UNL     1       2.184   3.716  22.048  0.00  0.00    +0.000 OA
ATOM     25  C   UNL     1       1.611   2.424  21.767  0.00  0.00    +0.000 C 
ATOM     26  O   UNL     1       0.800   2.436  20.571  0.00  0.00    +0.000 OA
ENDBRANCH  16  18
ENDBRANCH   4  16
TORSDOF 4
ENDMDL
MODEL 6
REMARK VINA RESULT:      -7.7      1.240      9.328
REMARK  Name = 
REMARK  6 active torsions:
REMARK  status: ('A' for Active; 'I' for Inactive)
REMARK    1  A    between atoms: C_1  and  C_2
REMARK    2  A    between atoms: C_2  and  C_4
REMARK    3  A    between atoms: C_8  and  N_9
REMARK    4  A    between atoms: N_12  and  C_13
REMARK    5  A    between atoms: C_13  and  C_14
REMARK    6  A    between atoms: C_13  and  C_15
REMARK                            x       y       z     vdW  Elec       q    Type
REMARK                         _______ _______ _______ _____ _____    ______ ____
ROOT
ATOM      1  N   UNL     1       2.303   7.945  17.485  0.00  0.00    +0.000 N 
ATOM      2  C   UNL     1       1.691   8.711  18.461  0.00  0.00    +0.000 C 
ATOM      3  O   UNL     1       1.767   8.500  19.667  0.00  0.00    +0.000 OA
ATOM      4  N   UNL     1       1.008   9.779  17.952  0.00  0.00    +0.000 N 
ATOM      5  H   UNL     1       1.891   7.974  16.562  0.00  0.00    +0.000 HD
ATOM      6  H   UNL     1       0.821   9.810  16.965  0.00  0.00    +0.000 HD
ENDROOT
BRANCH   1  11
ATOM      7  C   UNL     1       5.597   6.211  17.581  0.00  0.00    +0.000 A 
ATOM      8  C   UNL     1       5.253   4.990  18.172  0.00  0.00    +0.000 A 
ATOM      9  C   UNL     1       3.937   4.761  18.563  0.00  0.00    +0.000 A 
ATOM     10  C   UNL     1       2.964   5.734  18.344  0.00  0.00    +0.000 A 
ATOM     11  C   UNL     1       3.280   6.946  17.724  0.00  0.00    +0.000 A 
ATOM     12  C   UNL     1       4.610   7.190  17.365  0.00  0.00    +0.000 A 
BRANCH   7  14
ATOM     13  C   UNL     1       7.879   7.341  18.054  0.00  0.00    +0.000 C 
ATOM     14  C   UNL     1       7.006   6.492  17.163  0.00  0.00    +0.000 C 
ATOM     15  O   UNL     1       7.433   6.023  16.108  0.00  0.00    +0.000 OA
ENDBRANCH   7  14
ENDBRANCH   1  11
BRANCH   4  16
ATOM     16  C   UNL     1       0.246  10.665  18.830  0.00  0.00    +0.000 C 
ATOM     17  C   UNL     1       0.995  11.970  19.057  0.00  0.00    +0.000 C 
BRANCH  16  18
ATOM     18  C   UNL     1      -1.153  10.838  18.264  0.00  0.00    +0.000 A 
ATOM     19  C   UNL     1      -1.679   9.944  17.298  0.00  0.00    +0.000 A 
ATOM     20  C   UNL     1      -3.047   9.919  17.009  0.00  0.00    +0.000 A 
ATOM     21  C   UNL     1      -3.856  10.776  17.718  0.00  0.00    +0.000 A 
ATOM     22  C   UNL     1      -3.342  11.708  18.592  0.00  0.00    +0.000 A 
ATOM     23  C   UNL     1      -1.997  11.793  18.857  0.00  0.00    +0.000 A 
ATOM     24  O   UNL     1      -4.321  12.398  19.241  0.00  0.00    +0.000 OA
ATOM     25  C   UNL     1      -5.435  11.532  18.949  0.00  0.00    +0.000 C 
ATOM     26  O   UNL     1      -5.219  10.754  17.750  0.00  0.00    +0.000 OA
ENDBRANCH  16  18
ENDBRANCH   4  16
TORSDOF 4
ENDMDL
MODEL 7
REMARK VINA RESULT:      -7.7      1.861      2.211
REMARK  Name = 
REMARK  6 active torsions:
REMARK  status: ('A' for Active; 'I' for Inactive)
REMARK    1  A    between atoms: C_1  and  C_2
REMARK    2  A    between atoms: C_2  and  C_4
REMARK    3  A    between atoms: C_8  and  N_9
REMARK    4  A    between atoms: N_12  and  C_13
REMARK    5  A    between atoms: C_13  and  C_14
REMARK    6  A    between atoms: C_13  and  C_15
REMARK                            x       y       z     vdW  Elec       q    Type
REMARK                         _______ _______ _______ _____ _____    ______ ____
ROOT
ATOM      1  N   UNL     1       1.601   8.755  20.002  0.00  0.00    +0.000 N 
ATOM      2  C   UNL     1       1.899   7.404  20.004  0.00  0.00    +0.000 C 
ATOM      3  O   UNL     1       1.635   6.630  20.918  0.00  0.00    +0.000 OA
ATOM      4  N   UNL     1       2.495   6.987  18.847  0.00  0.00    +0.000 N 
ATOM      5  H   UNL     1       2.166   9.343  19.405  0.00  0.00    +0.000 HD
ATOM      6  H   UNL     1       2.853   7.676  18.209  0.00  0.00    +0.000 HD
ENDROOT
BRANCH   1  11
ATOM      7  C   UNL     1      -0.918  11.106  21.415  0.00  0.00    +0.000 A 
ATOM      8  C   UNL     1      -0.921  10.735  22.764  0.00  0.00    +0.000 A 
ATOM      9  C   UNL     1      -0.111   9.687  23.192  0.00  0.00    +0.000 A 
ATOM     10  C   UNL     1       0.716   9.028  22.285  0.00  0.00    +0.000 A 
ATOM     11  C   UNL     1       0.760   9.406  20.939  0.00  0.00    +0.000 A 
ATOM     12  C   UNL     1      -0.082  10.435  20.504  0.00  0.00    +0.000 A 
BRANCH   7  14
ATOM     13  C   UNL     1      -1.350  13.010  19.714  0.00  0.00    +0.000 C 
ATOM     14  C   UNL     1      -1.788  12.219  20.923  0.00  0.00    +0.000 C 
ATOM     15  O   UNL     1      -2.844  12.469  21.502  0.00  0.00    +0.000 OA
ENDBRANCH   7  14
ENDBRANCH   1  11
BRANCH   4  16
ATOM     16  C   UNL     1       2.938   5.603  18.693  0.00  0.00    +0.000 C 
ATOM     17  C   UNL     1       1.946   4.812  17.853  0.00  0.00    +0.000 C 
BRANCH  16  18
ATOM     18  C   UNL     1       4.358   5.596  18.153  0.00  0.00    +0.000 A 
ATOM     19  C   UNL     1       5.430   5.036  18.893  0.00  0.00    +0.000 A 
ATOM     20  C   UNL     1       6.657   4.756  18.282  0.00  0.00    +0.000 A 
ATOM     21  C   UNL     1       6.767   5.024  16.937  0.00  0.00    +0.000 A 
ATOM     22  C   UNL     1       5.762   5.651  16.235  0.00  0.00    +0.000 A 
ATOM     23  C   UNL     1       4.565   5.986  16.819  0.00  0.00    +0.000 A 
ATOM     24  O   UNL     1       6.047   5.748  14.906  0.00  0.00    +0.000 OA
ATOM     25  C   UNL     1       7.126   4.796  14.840  0.00  0.00    +0.000 C 
ATOM     26  O   UNL     1       7.781   4.626  16.117  0.00  0.00    +0.000 OA
ENDBRANCH  16  18
ENDBRANCH   4  16
TORSDOF 4
ENDMDL
MODEL 8
REMARK VINA RESULT:      -7.7      2.368      2.937
REMARK  Name = 
REMARK  6 active torsions:
REMARK  status: ('A' for Active; 'I' for Inactive)
REMARK    1  A    between atoms: C_1  and  C_2
REMARK    2  A    between atoms: C_2  and  C_4
REMARK    3  A    between atoms: C_8  and  N_9
REMARK    4  A    between atoms: N_12  and  C_13
REMARK    5  A    between atoms: C_13  and  C_14
REMARK    6  A    between atoms: C_13  and  C_15
REMARK                            x       y       z     vdW  Elec       q    Type
REMARK                         _______ _______ _______ _____ _____    ______ ____
ROOT
ATOM      1  N   UNL     1       2.276   7.111  20.587  0.00  0.00    +0.000 N 
ATOM      2  C   UNL     1       2.642   6.231  19.583  0.00  0.00    +0.000 C 
ATOM      3  O   UNL     1       2.221   6.269  18.431  0.00  0.00    +0.000 OA
ATOM      4  N   UNL     1       3.571   5.315  19.988  0.00  0.00    +0.000 N 
ATOM      5  H   UNL     1       2.379   6.782  21.537  0.00  0.00    +0.000 HD
ATOM      6  H   UNL     1       3.748   5.205  20.971  0.00  0.00    +0.000 HD
ENDROOT
BRANCH   1  11
ATOM      7  C   UNL     1       0.165  10.088  21.325  0.00  0.00    +0.000 A 
ATOM      8  C   UNL     1       0.070  10.683  20.063  0.00  0.00    +0.000 A 
ATOM      9  C   UNL     1       0.732  10.111  18.980  0.00  0.00    +0.000 A 
ATOM     10  C   UNL     1       1.465   8.939  19.150  0.00  0.00    +0.000 A 
ATOM     11  C   UNL     1       1.543   8.309  20.395  0.00  0.00    +0.000 A 
ATOM     12  C   UNL     1       0.908   8.905  21.490  0.00  0.00    +0.000 A 
BRANCH   7  14
ATOM     13  C   UNL     1      -1.523  11.798  22.292  0.00  0.00    +0.000 C 
ATOM     14  C   UNL     1      -0.525  10.686  22.510  0.00  0.00    +0.000 C 
ATOM     15  O   UNL     1      -0.277  10.262  23.638  0.00  0.00    +0.000 OA
ENDBRANCH   7  14
ENDBRANCH   1  11
BRANCH   4  16
ATOM     16  C   UNL     1       4.030   4.266  19.080  0.00  0.00    +0.000 C 
ATOM     17  C   UNL     1       2.849   3.480  18.527  0.00  0.00    +0.000 C 
BRANCH  16  18
ATOM     18  C   UNL     1       4.919   4.886  18.017  0.00  0.00    +0.000 A 
ATOM     19  C   UNL     1       6.158   5.492  18.348  0.00  0.00    +0.000 A 
ATOM     20  C   UNL     1       7.103   5.784  17.359  0.00  0.00    +0.000 A 
ATOM     21  C   UNL     1       6.790   5.436  16.066  0.00  0.00    +0.000 A 
ATOM     22  C   UNL     1       5.554   4.930  15.726  0.00  0.00    +0.000 A 
ATOM     23  C   UNL     1       4.586   4.682  16.667  0.00  0.00    +0.000 A 
ATOM     24  O   UNL     1       5.485   4.583  14.410  0.00  0.00    +0.000 OA
ATOM     25  C   UNL     1       6.894   4.580  14.107  0.00  0.00    +0.000 C 
ATOM     26  O   UNL     1       7.646   5.427  15.004  0.00  0.00    +0.000 OA
ENDBRANCH  16  18
ENDBRANCH   4  16
TORSDOF 4
ENDMDL
MODEL 9
REMARK VINA RESULT:      -7.7      5.502      8.190
REMARK  Name = 
REMARK  6 active torsions:
REMARK  status: ('A' for Active; 'I' for Inactive)
REMARK    1  A    between atoms: C_1  and  C_2
REMARK    2  A    between atoms: C_2  and  C_4
REMARK    3  A    between atoms: C_8  and  N_9
REMARK    4  A    between atoms: N_12  and  C_13
REMARK    5  A    between atoms: C_13  and  C_14
REMARK    6  A    between atoms: C_13  and  C_15
REMARK                            x       y       z     vdW  Elec       q    Type
REMARK                         _______ _______ _______ _____ _____    ______ ____
ROOT
ATOM      1  N   UNL     1       8.831   8.698  19.065  0.00  0.00    +0.000 N 
ATOM      2  C   UNL     1       7.971   8.155  18.126  0.00  0.00    +0.000 C 
ATOM      3  O   UNL     1       7.360   8.799  17.280  0.00  0.00    +0.000 OA
ATOM      4  N   UNL     1       7.892   6.793  18.200  0.00  0.00    +0.000 N 
ATOM      5  H   UNL     1       8.978   8.161  19.908  0.00  0.00    +0.000 HD
ATOM      6  H   UNL     1       8.260   6.328  19.012  0.00  0.00    +0.000 HD
ENDROOT
BRANCH   1  11
ATOM      7  C   UNL     1       9.708  12.116  20.254  0.00  0.00    +0.000 A 
ATOM      8  C   UNL     1      10.235  12.690  19.092  0.00  0.00    +0.000 A 
ATOM      9  C   UNL     1      10.325  11.930  17.929  0.00  0.00    +0.000 A 
ATOM     10  C   UNL     1       9.870  10.614  17.917  0.00  0.00    +0.000 A 
ATOM     11  C   UNL     1       9.308  10.033  19.058  0.00  0.00    +0.000 A 
ATOM     12  C   UNL     1       9.252  10.786  20.236  0.00  0.00    +0.000 A 
BRANCH   7  14
ATOM     13  C   UNL     1       8.770  12.364  22.655  0.00  0.00    +0.000 C 
ATOM     14  C   UNL     1       9.610  12.903  21.523  0.00  0.00    +0.000 C 
ATOM     15  O   UNL     1      10.218  13.968  21.628  0.00  0.00    +0.000 OA
ENDBRANCH   7  14
ENDBRANCH   1  11
BRANCH   4  16
ATOM     16  C   UNL     1       6.985   6.049  17.328  0.00  0.00    +0.000 C 
ATOM     17  C   UNL     1       7.568   4.687  16.983  0.00  0.00    +0.000 C 
BRANCH  16  18
ATOM     18  C   UNL     1       5.612   5.995  17.974  0.00  0.00    +0.000 A 
ATOM     19  C   UNL     1       4.521   6.744  17.464  0.00  0.00    +0.000 A 
ATOM     20  C   UNL     1       3.209   6.466  17.859  0.00  0.00    +0.000 A 
ATOM     21  C   UNL     1       3.023   5.425  18.739  0.00  0.00    +0.000 A 
ATOM     22  C   UNL     1       4.083   4.753  19.307  0.00  0.00    +0.000 A 
ATOM     23  C   UNL     1       5.386   5.039  18.979  0.00  0.00    +0.000 A 
ATOM     24  O   UNL     1       3.674   3.713  20.086  0.00  0.00    +0.000 OA
ATOM     25  C   UNL     1       2.314   3.609  19.622  0.00  0.00    +0.000 C 
ATOM     26  O   UNL     1       1.830   4.855  19.072  0.00  0.00    +0.000 OA
ENDBRANCH  16  18
ENDBRANCH   4  16
TORSDOF 4
ENDMDL
