MODEL 1
REMARK VINA RESULT:      -6.6      0.000      0.000
REMARK  Name = 
REMARK  11 active torsions:
REMARK  status: ('A' for Active; 'I' for Inactive)
REMARK    1  A    between atoms: C_1  and  C_2
REMARK    2  A    between atoms: C_2  and  N_3
REMARK    3  A    between atoms: N_3  and  C_4
REMARK    4  A    between atoms: N_3  and  C_5
REMARK    5  A    between atoms: C_9  and  N_10
REMARK    6  A    between atoms: N_13  and  C_14
REMARK    7  A    between atoms: N_13  and  C_15
REMARK    8  A    between atoms: C_15  and  C_16
REMARK    9  A    between atoms: C_16  and  C_17
REMARK   10  A    between atoms: C_16  and  C_18
REMARK   11  A    between atoms: N_20  and  C_21
REMARK                            x       y       z     vdW  Elec       q    Type
REMARK                         _______ _______ _______ _____ _____    ______ ____
ROOT
ATOM      1  N   UNL     1       6.127   4.731  15.879  0.00  0.00    +0.000 N 
ATOM      2  C   UNL     1       5.502   5.810  16.469  0.00  0.00    +0.000 C 
ATOM      3  O   UNL     1       5.192   6.844  15.877  0.00  0.00    +0.000 OA
ATOM      4  N   UNL     1       5.217   5.687  17.831  0.00  0.00    +0.000 N 
ATOM      5  C   UNL     1       5.575   4.570  18.699  0.00  0.00    +0.000 C 
ATOM      6  H   UNL     1       6.427   3.980  16.467  0.00  0.00    +0.000 HD
ENDROOT
BRANCH   1  11
ATOM      7  C   UNL     1       6.044   3.525  12.336  0.00  0.00    +0.000 A 
ATOM      8  C   UNL     1       7.147   4.233  11.831  0.00  0.00    +0.000 A 
ATOM      9  C   UNL     1       7.880   5.128  12.611  0.00  0.00    +0.000 A 
ATOM     10  C   UNL     1       7.552   5.323  13.947  0.00  0.00    +0.000 A 
ATOM     11  C   UNL     1       6.501   4.609  14.517  0.00  0.00    +0.000 A 
ATOM     12  C   UNL     1       5.754   3.732  13.704  0.00  0.00    +0.000 A 
BRANCH   7  13
ATOM     13  N   UNL     1       5.297   2.666  11.527  0.00  0.00    +0.000 N 
ATOM     14  C   UNL     1       5.821   1.355  11.156  0.00  0.00    +0.000 C 
BRANCH  13  16
ATOM     15  C   UNL     1       3.556   3.795  10.168  0.00  0.00    +0.000 C 
ATOM     16  C   UNL     1       3.852   2.870  11.342  0.00  0.00    +0.000 C 
ENDBRANCH  13  16
ENDBRANCH   7  13
ENDBRANCH   1  11
BRANCH   4  17
ATOM     17  C   UNL     1       4.327   6.700  18.423  0.00  0.00    +0.000 C 
BRANCH  17  18
ATOM     18  C   UNL     1       2.827   6.466  18.217  0.00  0.00    +0.000 C 
ATOM     19  C   UNL     1       2.128   7.805  17.960  0.00  0.00    +0.000 C 
BRANCH  18  20
ATOM     20  C   UNL     1       2.085   5.748  19.342  0.00  0.00    +0.000 C 
ATOM     21  O   UNL     1       1.949   6.298  20.438  0.00  0.00    +0.000 OA
ATOM     22  N   UNL     1       1.713   4.447  19.115  0.00  0.00    +0.000 N 
ATOM     23  C   UNL     1       0.996   3.671  20.100  0.00  0.00    +0.000 C 
ATOM     24  H   UNL     1       1.581   4.145  18.151  0.00  0.00    +0.000 HD
ENDBRANCH  18  20
ENDBRANCH  17  18
ENDBRANCH   4  17
TORSDOF 6
ENDMDL
MODEL 2
REMARK VINA RESULT:      -6.6      3.876      6.399
REMARK  Name = 
REMARK  11 active torsions:
REMARK  status: ('A' for Active; 'I' for Inactive)
REMARK    1  A    between atoms: C_1  and  C_2
REMARK    2  A    between atoms: C_2  and  N_3
REMARK    3  A    between atoms: N_3  and  C_4
REMARK    4  A    between atoms: N_3  and  C_5
REMARK    5  A    between atoms: C_9  and  N_10
REMARK    6  A    between atoms: N_13  and  C_14
REMARK    7  A    between atoms: N_13  and  C_15
REMARK    8  A    between atoms: C_15  and  C_16
REMARK    9  A    between atoms: C_16  and  C_17
REMARK   10  A    between atoms: C_16  and  C_18
REMARK   11  A    between atoms: N_20  and  C_21
REMARK                            x       y       z     vdW  Elec       q    Type
REMARK                         _______ _______ _______ _____ _____    ______ ____
ROOT
ATOM      1  N   UNL     1       2.381   6.890  19.117  0.00  0.00    +0.000 N 
ATOM      2  C   UNL     1       2.013   8.145  18.679  0.00  0.00    +0.000 C 
ATOM      3  O   UNL     1       2.190   8.563  17.536  0.00  0.00    +0.000 OA
ATOM      4  N   UNL     1       1.399   8.972  19.625  0.00  0.00    +0.000 N 
ATOM      5  C   UNL     1       1.176   8.667  21.034  0.00  0.00    +0.000 C 
ATOM      6  H   UNL     1       2.284   6.683  20.092  0.00  0.00    +0.000 HD
ENDROOT
BRANCH   1  11
ATOM      7  C   UNL     1       5.077   5.076  17.260  0.00  0.00    +0.000 A 
ATOM      8  C   UNL     1       4.336   3.971  16.808  0.00  0.00    +0.000 A 
ATOM      9  C   UNL     1       2.993   3.789  17.140  0.00  0.00    +0.000 A 
ATOM     10  C   UNL     1       2.329   4.730  17.916  0.00  0.00    +0.000 A 
ATOM     11  C   UNL     1       2.998   5.872  18.349  0.00  0.00    +0.000 A 
ATOM     12  C   UNL     1       4.363   6.024  18.028  0.00  0.00    +0.000 A 
BRANCH   7  13
ATOM     13  N   UNL     1       6.432   5.220  16.952  0.00  0.00    +0.000 N 
ATOM     14  C   UNL     1       7.001   4.552  15.785  0.00  0.00    +0.000 C 
BRANCH  13  16
ATOM     15  C   UNL     1       7.845   5.912  18.869  0.00  0.00    +0.000 C 
ATOM     16  C   UNL     1       7.227   6.311  17.535  0.00  0.00    +0.000 C 
ENDBRANCH  13  16
ENDBRANCH   7  13
ENDBRANCH   1  11
BRANCH   4  17
ATOM     17  C   UNL     1       0.765  10.204  19.127  0.00  0.00    +0.000 C 
BRANCH  17  18
ATOM     18  C   UNL     1      -0.743  10.318  19.370  0.00  0.00    +0.000 C 
ATOM     19  C   UNL     1      -1.482  10.320  18.027  0.00  0.00    +0.000 C 
BRANCH  18  20
ATOM     20  C   UNL     1      -1.218  11.523  20.178  0.00  0.00    +0.000 C 
ATOM     21  O   UNL     1      -2.153  12.213  19.762  0.00  0.00    +0.000 OA
ATOM     22  N   UNL     1      -0.480  11.865  21.283  0.00  0.00    +0.000 N 
ATOM     23  C   UNL     1      -0.837  12.978  22.130  0.00  0.00    +0.000 C 
ATOM     24  H   UNL     1       0.071  11.138  21.738  0.00  0.00    +0.000 HD
ENDBRANCH  18  20
ENDBRANCH  17  18
ENDBRANCH   4  17
TORSDOF 6
ENDMDL
MODEL 3
REMARK VINA RESULT:      -6.5      4.016      6.364
REMARK  Name = 
REMARK  11 active torsions:
REMARK  status: ('A' for Active; 'I' for Inactive)
REMARK    1  A    between atoms: C_1  and  C_2
REMARK    2  A    between atoms: C_2  and  N_3
REMARK    3  A    between atoms: N_3  and  C_4
REMARK    4  A    between atoms: N_3  and  C_5
REMARK    5  A    between atoms: C_9  and  N_10
REMARK    6  A    between atoms: N_13  and  C_14
REMARK    7  A    between atoms: N_13  and  C_15
REMARK    8  A    between atoms: C_15  and  C_16
REMARK    9  A    between atoms: C_16  and  C_17
REMARK   10  A    between atoms: C_16  and  C_18
REMARK   11  A    between atoms: N_20  and  C_21
REMARK                            x       y       z     vdW  Elec       q    Type
REMARK                         _______ _______ _______ _____ _____    ______ ____
ROOT
ATOM      1  N   UNL     1       2.291   7.206  18.965  0.00  0.00    +0.000 N 
ATOM      2  C   UNL     1       1.956   8.437  18.442  0.00  0.00    +0.000 C 
ATOM      3  O   UNL     1       2.184   8.787  17.285  0.00  0.00    +0.000 OA
ATOM      4  N   UNL     1       1.314   9.322  19.313  0.00  0.00    +0.000 N 
ATOM      5  C   UNL     1       1.031   9.101  20.727  0.00  0.00    +0.000 C 
ATOM      6  H   UNL     1       2.153   7.056  19.945  0.00  0.00    +0.000 HD
ENDROOT
BRANCH   1  11
ATOM      7  C   UNL     1       4.970   5.354  17.121  0.00  0.00    +0.000 A 
ATOM      8  C   UNL     1       4.289   4.147  16.885  0.00  0.00    +0.000 A 
ATOM      9  C   UNL     1       2.998   3.916  17.358  0.00  0.00    +0.000 A 
ATOM     10  C   UNL     1       2.322   4.904  18.063  0.00  0.00    +0.000 A 
ATOM     11  C   UNL     1       2.927   6.140  18.283  0.00  0.00    +0.000 A 
ATOM     12  C   UNL     1       4.244   6.343  17.822  0.00  0.00    +0.000 A 
BRANCH   7  13
ATOM     13  N   UNL     1       6.279   5.551  16.676  0.00  0.00    +0.000 N 
ATOM     14  C   UNL     1       7.121   6.580  17.281  0.00  0.00    +0.000 C 
BRANCH  13  16
ATOM     15  C   UNL     1       6.896   4.810  14.391  0.00  0.00    +0.000 C 
ATOM     16  C   UNL     1       6.971   4.521  15.885  0.00  0.00    +0.000 C 
ENDBRANCH  13  16
ENDBRANCH   7  13
ENDBRANCH   1  11
BRANCH   4  17
ATOM     17  C   UNL     1       0.715  10.530  18.719  0.00  0.00    +0.000 C 
BRANCH  17  18
ATOM     18  C   UNL     1      -0.807  10.647  18.850  0.00  0.00    +0.000 C 
ATOM     19  C   UNL     1      -1.475  10.112  17.580  0.00  0.00    +0.000 C 
BRANCH  18  20
ATOM     20  C   UNL     1      -1.364  12.040  19.132  0.00  0.00    +0.000 C 
ATOM     21  O   UNL     1      -0.985  13.003  18.460  0.00  0.00    +0.000 OA
ATOM     22  N   UNL     1      -2.178  12.177  20.229  0.00  0.00    +0.000 N 
ATOM     23  C   UNL     1      -2.773  13.443  20.589  0.00  0.00    +0.000 C 
ATOM     24  H   UNL     1      -2.681  11.356  20.561  0.00  0.00    +0.000 HD
ENDBRANCH  18  20
ENDBRANCH  17  18
ENDBRANCH   4  17
TORSDOF 6
ENDMDL
MODEL 4
REMARK VINA RESULT:      -6.4      3.874      6.687
REMARK  Name = 
REMARK  11 active torsions:
REMARK  status: ('A' for Active; 'I' for Inactive)
REMARK    1  A    between atoms: C_1  and  C_2
REMARK    2  A    between atoms: C_2  and  N_3
REMARK    3  A    between atoms: N_3  and  C_4
REMARK    4  A    between atoms: N_3  and  C_5
REMARK    5  A    between atoms: C_9  and  N_10
REMARK    6  A    between atoms: N_13  and  C_14
REMARK    7  A    between atoms: N_13  and  C_15
REMARK    8  A    between atoms: C_15  and  C_16
REMARK    9  A    between atoms: C_16  and  C_17
REMARK   10  A    between atoms: C_16  and  C_18
REMARK   11  A    between atoms: N_20  and  C_21
REMARK                            x       y       z     vdW  Elec       q    Type
REMARK                         _______ _______ _______ _____ _____    ______ ____
ROOT
ATOM      1  N   UNL     1       2.251   7.050  19.017  0.00  0.00    +0.000 N 
ATOM      2  C   UNL     1       2.057   8.294  18.455  0.00  0.00    +0.000 C 
ATOM      3  O   UNL     1       2.427   8.612  17.325  0.00  0.00    +0.000 OA
ATOM      4  N   UNL     1       1.392   9.232  19.249  0.00  0.00    +0.000 N 
ATOM      5  C   UNL     1       0.950   9.049  20.627  0.00  0.00    +0.000 C 
ATOM      6  H   UNL     1       2.002   6.922  19.978  0.00  0.00    +0.000 HD
ENDROOT
BRANCH   1  11
ATOM      7  C   UNL     1       5.016   4.876  17.739  0.00  0.00    +0.000 A 
ATOM      8  C   UNL     1       4.249   3.826  17.205  0.00  0.00    +0.000 A 
ATOM      9  C   UNL     1       2.858   3.796  17.300  0.00  0.00    +0.000 A 
ATOM     10  C   UNL     1       2.175   4.841  17.909  0.00  0.00    +0.000 A 
ATOM     11  C   UNL     1       2.878   5.934  18.410  0.00  0.00    +0.000 A 
ATOM     12  C   UNL     1       4.286   5.931  18.332  0.00  0.00    +0.000 A 
BRANCH   7  13
ATOM     13  N   UNL     1       6.411   4.866  17.671  0.00  0.00    +0.000 N 
ATOM     14  C   UNL     1       7.090   4.545  16.419  0.00  0.00    +0.000 C 
BRANCH  13  16
ATOM     15  C   UNL     1       7.802   6.848  18.208  0.00  0.00    +0.000 C 
ATOM     16  C   UNL     1       7.221   5.530  18.704  0.00  0.00    +0.000 C 
ENDBRANCH  13  16
ENDBRANCH   7  13
ENDBRANCH   1  11
BRANCH   4  17
ATOM     17  C   UNL     1       0.942  10.470  18.590  0.00  0.00    +0.000 C 
BRANCH  17  18
ATOM     18  C   UNL     1       0.523  11.606  19.528  0.00  0.00    +0.000 C 
ATOM     19  C   UNL     1      -0.609  12.413  18.884  0.00  0.00    +0.000 C 
BRANCH  18  20
ATOM     20  C   UNL     1       1.618  12.579  19.958  0.00  0.00    +0.000 C 
ATOM     21  O   UNL     1       1.821  12.786  21.158  0.00  0.00    +0.000 OA
ATOM     22  N   UNL     1       2.247  13.290  18.968  0.00  0.00    +0.000 N 
ATOM     23  C   UNL     1       3.305  14.231  19.252  0.00  0.00    +0.000 C 
ATOM     24  H   UNL     1       2.263  12.897  18.028  0.00  0.00    +0.000 HD
ENDBRANCH  18  20
ENDBRANCH  17  18
ENDBRANCH   4  17
TORSDOF 6
ENDMDL
MODEL 5
REMARK VINA RESULT:      -6.4      4.464      8.371
REMARK  Name = 
REMARK  11 active torsions:
REMARK  status: ('A' for Active; 'I' for Inactive)
REMARK    1  A    between atoms: C_1  and  C_2
REMARK    2  A    between atoms: C_2  and  N_3
REMARK    3  A    between atoms: N_3  and  C_4
REMARK    4  A    between atoms: N_3  and  C_5
REMARK    5  A    between atoms: C_9  and  N_10
REMARK    6  A    between atoms: N_13  and  C_14
REMARK    7  A    between atoms: N_13  and  C_15
REMARK    8  A    between atoms: C_15  and  C_16
REMARK    9  A    between atoms: C_16  and  C_17
REMARK   10  A    between atoms: C_16  and  C_18
REMARK   11  A    between atoms: N_20  and  C_21
REMARK                            x       y       z     vdW  Elec       q    Type
REMARK                         _______ _______ _______ _____ _____    ______ ____
ROOT
ATOM      1  N   UNL     1       3.130   7.053  18.946  0.00  0.00    +0.000 N 
ATOM      2  C   UNL     1       3.040   5.806  18.363  0.00  0.00    +0.000 C 
ATOM      3  O   UNL     1       2.054   5.392  17.755  0.00  0.00    +0.000 OA
ATOM      4  N   UNL     1       4.163   4.984  18.492  0.00  0.00    +0.000 N 
ATOM      5  C   UNL     1       5.382   5.284  19.234  0.00  0.00    +0.000 C 
ATOM      6  H   UNL     1       3.936   7.256  19.503  0.00  0.00    +0.000 HD
ENDROOT
BRANCH   1  11
ATOM      7  C   UNL     1       0.503   9.368  20.267  0.00  0.00    +0.000 A 
ATOM      8  C   UNL     1       0.141  10.006  19.068  0.00  0.00    +0.000 A 
ATOM      9  C   UNL     1       0.772   9.728  17.856  0.00  0.00    +0.000 A 
ATOM     10  C   UNL     1       1.774   8.768  17.792  0.00  0.00    +0.000 A 
ATOM     11  C   UNL     1       2.139   8.066  18.938  0.00  0.00    +0.000 A 
ATOM     12  C   UNL     1       1.511   8.383  20.160  0.00  0.00    +0.000 A 
BRANCH   7  13
ATOM     13  N   UNL     1      -0.111   9.692  21.479  0.00  0.00    +0.000 N 
ATOM     14  C   UNL     1      -0.392   8.654  22.467  0.00  0.00    +0.000 C 
BRANCH  13  16
ATOM     15  C   UNL     1      -1.337  11.334  22.877  0.00  0.00    +0.000 C 
ATOM     16  C   UNL     1      -0.146  11.081  21.960  0.00  0.00    +0.000 C 
ENDBRANCH  13  16
ENDBRANCH   7  13
ENDBRANCH   1  11
BRANCH   4  17
ATOM     17  C   UNL     1       4.197   3.764  17.667  0.00  0.00    +0.000 C 
BRANCH  17  18
ATOM     18  C   UNL     1       3.663   2.495  18.338  0.00  0.00    +0.000 C 
ATOM     19  C   UNL     1       2.364   2.058  17.652  0.00  0.00    +0.000 C 
BRANCH  18  20
ATOM     20  C   UNL     1       3.406   2.571  19.841  0.00  0.00    +0.000 C 
ATOM     21  O   UNL     1       4.279   2.208  20.634  0.00  0.00    +0.000 OA
ATOM     22  N   UNL     1       2.142   2.922  20.242  0.00  0.00    +0.000 N 
ATOM     23  C   UNL     1       1.783   3.037  21.636  0.00  0.00    +0.000 C 
ATOM     24  H   UNL     1       1.569   3.473  19.605  0.00  0.00    +0.000 HD
ENDBRANCH  18  20
ENDBRANCH  17  18
ENDBRANCH   4  17
TORSDOF 6
ENDMDL
MODEL 6
REMARK VINA RESULT:      -6.4      3.889      6.361
REMARK  Name = 
REMARK  11 active torsions:
REMARK  status: ('A' for Active; 'I' for Inactive)
REMARK    1  A    between atoms: C_1  and  C_2
REMARK    2  A    between atoms: C_2  and  N_3
REMARK    3  A    between atoms: N_3  and  C_4
REMARK    4  A    between atoms: N_3  and  C_5
REMARK    5  A    between atoms: C_9  and  N_10
REMARK    6  A    between atoms: N_13  and  C_14
REMARK    7  A    between atoms: N_13  and  C_15
REMARK    8  A    between atoms: C_15  and  C_16
REMARK    9  A    between atoms: C_16  and  C_17
REMARK   10  A    between atoms: C_16  and  C_18
REMARK   11  A    between atoms: N_20  and  C_21
REMARK                            x       y       z     vdW  Elec       q    Type
REMARK                         _______ _______ _______ _____ _____    ______ ____
ROOT
ATOM      1  N   UNL     1       2.349   6.596  19.245  0.00  0.00    +0.000 N 
ATOM      2  C   UNL     1       2.079   7.900  18.883  0.00  0.00    +0.000 C 
ATOM      3  O   UNL     1       2.324   8.379  17.776  0.00  0.00    +0.000 OA
ATOM      4  N   UNL     1       1.489   8.701  19.864  0.00  0.00    +0.000 N 
ATOM      5  C   UNL     1       1.197   8.320  21.241  0.00  0.00    +0.000 C 
ATOM      6  H   UNL     1       2.204   6.332  20.199  0.00  0.00    +0.000 HD
ENDROOT
BRANCH   1  11
ATOM      7  C   UNL     1       4.978   4.743  17.332  0.00  0.00    +0.000 A 
ATOM      8  C   UNL     1       4.186   3.711  16.800  0.00  0.00    +0.000 A 
ATOM      9  C   UNL     1       2.828   3.588  17.095  0.00  0.00    +0.000 A 
ATOM     10  C   UNL     1       2.201   4.518  17.914  0.00  0.00    +0.000 A 
ATOM     11  C   UNL     1       2.925   5.591  18.428  0.00  0.00    +0.000 A 
ATOM     12  C   UNL     1       4.302   5.682  18.143  0.00  0.00    +0.000 A 
BRANCH   7  13
ATOM     13  N   UNL     1       6.346   4.825  17.060  0.00  0.00    +0.000 N 
ATOM     14  C   UNL     1       6.815   5.186  15.725  0.00  0.00    +0.000 C 
BRANCH  13  16
ATOM     15  C   UNL     1       7.688   6.381  18.449  0.00  0.00    +0.000 C 
ATOM     16  C   UNL     1       7.327   4.931  18.150  0.00  0.00    +0.000 C 
ENDBRANCH  13  16
ENDBRANCH   7  13
ENDBRANCH   1  11
BRANCH   4  17
ATOM     17  C   UNL     1       0.955  10.004  19.431  0.00  0.00    +0.000 C 
BRANCH  17  18
ATOM     18  C   UNL     1      -0.348  10.443  20.107  0.00  0.00    +0.000 C 
ATOM     19  C   UNL     1      -1.353  10.895  19.041  0.00  0.00    +0.000 C 
BRANCH  18  20
ATOM     20  C   UNL     1      -0.238  11.546  21.156  0.00  0.00    +0.000 C 
ATOM     21  O   UNL     1       0.838  12.126  21.330  0.00  0.00    +0.000 OA
ATOM     22  N   UNL     1      -1.328  11.751  21.964  0.00  0.00    +0.000 N 
ATOM     23  C   UNL     1      -1.345  12.773  22.985  0.00  0.00    +0.000 C 
ATOM     24  H   UNL     1      -2.245  11.479  21.614  0.00  0.00    +0.000 HD
ENDBRANCH  18  20
ENDBRANCH  17  18
ENDBRANCH   4  17
TORSDOF 6
ENDMDL
MODEL 7
REMARK VINA RESULT:      -6.4      2.044      3.388
REMARK  Name = 
REMARK  11 active torsions:
REMARK  status: ('A' for Active; 'I' for Inactive)
REMARK    1  A    between atoms: C_1  and  C_2
REMARK    2  A    between atoms: C_2  and  N_3
REMARK    3  A    between atoms: N_3  and  C_4
REMARK    4  A    between atoms: N_3  and  C_5
REMARK    5  A    between atoms: C_9  and  N_10
REMARK    6  A    between atoms: N_13  and  C_14
REMARK    7  A    between atoms: N_13  and  C_15
REMARK    8  A    between atoms: C_15  and  C_16
REMARK    9  A    between atoms: C_16  and  C_17
REMARK   10  A    between atoms: C_16  and  C_18
REMARK   11  A    between atoms: N_20  and  C_21
REMARK                            x       y       z     vdW  Elec       q    Type
REMARK                         _______ _______ _______ _____ _____    ______ ____
ROOT
ATOM      1  N   UNL     1       4.614   3.202  17.340  0.00  0.00    +0.000 N 
ATOM      2  C   UNL     1       4.664   3.158  18.717  0.00  0.00    +0.000 C 
ATOM      3  O   UNL     1       5.504   3.739  19.402  0.00  0.00    +0.000 OA
ATOM      4  N   UNL     1       3.677   2.392  19.344  0.00  0.00    +0.000 N 
ATOM      5  C   UNL     1       2.653   1.585  18.690  0.00  0.00    +0.000 C 
ATOM      6  H   UNL     1       3.952   2.615  16.872  0.00  0.00    +0.000 HD
ENDROOT
BRANCH   1  11
ATOM      7  C   UNL     1       6.273   4.272  14.160  0.00  0.00    +0.000 A 
ATOM      8  C   UNL     1       7.173   5.217  14.682  0.00  0.00    +0.000 A 
ATOM      9  C   UNL     1       7.210   5.541  16.038  0.00  0.00    +0.000 A 
ATOM     10  C   UNL     1       6.363   4.902  16.934  0.00  0.00    +0.000 A 
ATOM     11  C   UNL     1       5.486   3.919  16.483  0.00  0.00    +0.000 A 
ATOM     12  C   UNL     1       5.442   3.627  15.104  0.00  0.00    +0.000 A 
BRANCH   7  13
ATOM     13  N   UNL     1       6.222   3.993  12.793  0.00  0.00    +0.000 N 
ATOM     14  C   UNL     1       7.390   4.218  11.946  0.00  0.00    +0.000 C 
BRANCH  13  16
ATOM     15  C   UNL     1       5.746   1.941  11.482  0.00  0.00    +0.000 C 
ATOM     16  C   UNL     1       5.167   3.132  12.237  0.00  0.00    +0.000 C 
ENDBRANCH  13  16
ENDBRANCH   7  13
ENDBRANCH   1  11
BRANCH   4  17
ATOM     17  C   UNL     1       3.546   2.535  20.804  0.00  0.00    +0.000 C 
BRANCH  17  18
ATOM     18  C   UNL     1       2.466   3.513  21.280  0.00  0.00    +0.000 C 
ATOM     19  C   UNL     1       1.205   2.735  21.671  0.00  0.00    +0.000 C 
BRANCH  18  20
ATOM     20  C   UNL     1       2.063   4.616  20.304  0.00  0.00    +0.000 C 
ATOM     21  O   UNL     1       1.069   4.470  19.588  0.00  0.00    +0.000 OA
ATOM     22  N   UNL     1       2.919   5.680  20.175  0.00  0.00    +0.000 N 
ATOM     23  C   UNL     1       2.639   6.788  19.292  0.00  0.00    +0.000 C 
ATOM     24  H   UNL     1       3.538   5.898  20.955  0.00  0.00    +0.000 HD
ENDBRANCH  18  20
ENDBRANCH  17  18
ENDBRANCH   4  17
TORSDOF 6
ENDMDL
MODEL 8
REMARK VINA RESULT:      -6.4      3.875      6.167
REMARK  Name = 
REMARK  11 active torsions:
REMARK  status: ('A' for Active; 'I' for Inactive)
REMARK    1  A    between atoms: C_1  and  C_2
REMARK    2  A    between atoms: C_2  and  N_3
REMARK    3  A    between atoms: N_3  and  C_4
REMARK    4  A    between atoms: N_3  and  C_5
REMARK    5  A    between atoms: C_9  and  N_10
REMARK    6  A    between atoms: N_13  and  C_14
REMARK    7  A    between atoms: N_13  and  C_15
REMARK    8  A    between atoms: C_15  and  C_16
REMARK    9  A    between atoms: C_16  and  C_17
REMARK   10  A    between atoms: C_16  and  C_18
REMARK   11  A    between atoms: N_20  and  C_21
REMARK                            x       y       z     vdW  Elec       q    Type
REMARK                         _______ _______ _______ _____ _____    ______ ____
ROOT
ATOM      1  N   UNL     1       2.321   6.614  19.333  0.00  0.00    +0.000 N 
ATOM      2  C   UNL     1       2.025   7.902  18.939  0.00  0.00    +0.000 C 
ATOM      3  O   UNL     1       2.188   8.336  17.799  0.00  0.00    +0.000 OA
ATOM      4  N   UNL     1       1.508   8.744  19.927  0.00  0.00    +0.000 N 
ATOM      5  C   UNL     1       1.317   8.420  21.336  0.00  0.00    +0.000 C 
ATOM      6  H   UNL     1       2.247   6.389  20.305  0.00  0.00    +0.000 HD
ENDROOT
BRANCH   1  11
ATOM      7  C   UNL     1       4.819   4.649  17.357  0.00  0.00    +0.000 A 
ATOM      8  C   UNL     1       3.979   3.625  16.884  0.00  0.00    +0.000 A 
ATOM      9  C   UNL     1       2.633   3.543  17.240  0.00  0.00    +0.000 A 
ATOM     10  C   UNL     1       2.065   4.509  18.061  0.00  0.00    +0.000 A 
ATOM     11  C   UNL     1       2.836   5.575  18.518  0.00  0.00    +0.000 A 
ATOM     12  C   UNL     1       4.202   5.624  18.172  0.00  0.00    +0.000 A 
BRANCH   7  13
ATOM     13  N   UNL     1       6.175   4.690  17.024  0.00  0.00    +0.000 N 
ATOM     14  C   UNL     1       7.176   5.018  18.036  0.00  0.00    +0.000 C 
BRANCH  13  16
ATOM     15  C   UNL     1       6.471   4.942  14.575  0.00  0.00    +0.000 C 
ATOM     16  C   UNL     1       6.671   4.052  15.795  0.00  0.00    +0.000 C 
ENDBRANCH  13  16
ENDBRANCH   7  13
ENDBRANCH   1  11
BRANCH   4  17
ATOM     17  C   UNL     1       0.943  10.030  19.482  0.00  0.00    +0.000 C 
BRANCH  17  18
ATOM     18  C   UNL     1      -0.338  10.473  20.196  0.00  0.00    +0.000 C 
ATOM     19  C   UNL     1      -1.369  10.938  19.162  0.00  0.00    +0.000 C 
BRANCH  18  20
ATOM     20  C   UNL     1      -0.191  11.569  21.249  0.00  0.00    +0.000 C 
ATOM     21  O   UNL     1       0.918  12.062  21.474  0.00  0.00    +0.000 OA
ATOM     22  N   UNL     1      -1.299  11.865  22.002  0.00  0.00    +0.000 N 
ATOM     23  C   UNL     1      -1.285  12.890  23.020  0.00  0.00    +0.000 C 
ATOM     24  H   UNL     1      -2.217  11.665  21.608  0.00  0.00    +0.000 HD
ENDBRANCH  18  20
ENDBRANCH  17  18
ENDBRANCH   4  17
TORSDOF 6
ENDMDL
MODEL 9
REMARK VINA RESULT:      -6.4      3.900      6.217
REMARK  Name = 
REMARK  11 active torsions:
REMARK  status: ('A' for Active; 'I' for Inactive)
REMARK    1  A    between atoms: C_1  and  C_2
REMARK    2  A    between atoms: C_2  and  N_3
REMARK    3  A    between atoms: N_3  and  C_4
REMARK    4  A    between atoms: N_3  and  C_5
REMARK    5  A    between atoms: C_9  and  N_10
REMARK    6  A    between atoms: N_13  and  C_14
REMARK    7  A    between atoms: N_13  and  C_15
REMARK    8  A    between atoms: C_15  and  C_16
REMARK    9  A    between atoms: C_16  and  C_17
REMARK   10  A    between atoms: C_16  and  C_18
REMARK   11  A    between atoms: N_20  and  C_21
REMARK                            x       y       z     vdW  Elec       q    Type
REMARK                         _______ _______ _______ _____ _____    ______ ____
ROOT
ATOM      1  N   UNL     1       2.296   6.926  18.936  0.00  0.00    +0.000 N 
ATOM      2  C   UNL     1       2.072   8.187  18.424  0.00  0.00    +0.000 C 
ATOM      3  O   UNL     1       2.348   8.531  17.276  0.00  0.00    +0.000 OA
ATOM      4  N   UNL     1       1.491   9.111  19.297  0.00  0.00    +0.000 N 
ATOM      5  C   UNL     1       1.166   8.897  20.703  0.00  0.00    +0.000 C 
ATOM      6  H   UNL     1       2.129   6.776  19.911  0.00  0.00    +0.000 HD
ENDROOT
BRANCH   1  11
ATOM      7  C   UNL     1       4.812   4.917  17.028  0.00  0.00    +0.000 A 
ATOM      8  C   UNL     1       4.065   3.742  16.836  0.00  0.00    +0.000 A 
ATOM      9  C   UNL     1       2.782   3.582  17.360  0.00  0.00    +0.000 A 
ATOM     10  C   UNL     1       2.182   4.612  18.072  0.00  0.00    +0.000 A 
ATOM     11  C   UNL     1       2.854   5.819  18.249  0.00  0.00    +0.000 A 
ATOM     12  C   UNL     1       4.161   5.951  17.738  0.00  0.00    +0.000 A 
BRANCH   7  13
ATOM     13  N   UNL     1       6.112   5.042  16.533  0.00  0.00    +0.000 N 
ATOM     14  C   UNL     1       7.251   4.573  17.316  0.00  0.00    +0.000 C 
BRANCH  13  16
ATOM     15  C   UNL     1       6.347   3.985  14.301  0.00  0.00    +0.000 C 
ATOM     16  C   UNL     1       6.355   5.281  15.102  0.00  0.00    +0.000 C 
ENDBRANCH  13  16
ENDBRANCH   7  13
ENDBRANCH   1  11
BRANCH   4  17
ATOM     17  C   UNL     1       1.003  10.371  18.711  0.00  0.00    +0.000 C 
BRANCH  17  18
ATOM     18  C   UNL     1      -0.443  10.744  19.051  0.00  0.00    +0.000 C 
ATOM     19  C   UNL     1      -1.365  10.336  17.896  0.00  0.00    +0.000 C 
BRANCH  18  20
ATOM     20  C   UNL     1      -0.714  12.209  19.381  0.00  0.00    +0.000 C 
ATOM     21  O   UNL     1      -1.525  12.502  20.264  0.00  0.00    +0.000 OA
ATOM     22  N   UNL     1      -0.128  13.151  18.573  0.00  0.00    +0.000 N 
ATOM     23  C   UNL     1      -0.302  14.568  18.794  0.00  0.00    +0.000 C 
ATOM     24  H   UNL     1       0.723  12.896  18.075  0.00  0.00    +0.000 HD
ENDBRANCH  18  20
ENDBRANCH  17  18
ENDBRANCH   4  17
TORSDOF 6
ENDMDL
