MODEL 1
REMARK VINA RESULT:      -7.7      0.000      0.000
REMARK  Name = 
REMARK  7 active torsions:
REMARK  status: ('A' for Active; 'I' for Inactive)
REMARK    1  A    between atoms: C_1  and  C_2
REMARK    2  A    between atoms: C_2  and  C_3
REMARK    3  A    between atoms: C_5  and  O_6
REMARK    4  A    between atoms: C_8  and  C_9
REMARK    5  A    between atoms: C_8  and  C_10
REMARK    6  A    between atoms: C_10  and  N_11
REMARK    7  A    between atoms: N_14  and  C_15
REMARK                            x       y       z     vdW  Elec       q    Type
REMARK                         _______ _______ _______ _____ _____    ______ ____
ROOT
ATOM      1  N   UNL     1       8.138   9.215  17.905  0.00  0.00    +0.000 N 
ATOM      2  C   UNL     1       7.728   7.902  17.866  0.00  0.00    +0.000 C 
ATOM      3  O   UNL     1       8.160   7.045  18.631  0.00  0.00    +0.000 OA
ATOM      4  N   UNL     1       6.822   7.688  16.851  0.00  0.00    +0.000 N 
ATOM      5  H   UNL     1       7.373   9.855  17.740  0.00  0.00    +0.000 HD
ATOM      6  H   UNL     1       7.039   8.213  16.011  0.00  0.00    +0.000 HD
ENDROOT
BRANCH   4   7
ATOM      7  C   UNL     1       6.251   6.411  16.645  0.00  0.00    +0.000 A 
ATOM      8  C   UNL     1       7.005   5.389  16.061  0.00  0.00    +0.000 A 
ATOM      9  C   UNL     1       6.468   4.107  15.923  0.00  0.00    +0.000 A 
ATOM     10  C   UNL     1       5.169   3.844  16.353  0.00  0.00    +0.000 A 
ATOM     11  C   UNL     1       4.394   4.868  16.901  0.00  0.00    +0.000 A 
ATOM     12  C   UNL     1       4.935   6.146  17.052  0.00  0.00    +0.000 A 
ATOM     13 CL   UNL     1       3.919   7.408  17.659  0.00  0.00    +0.000 Cl
ENDBRANCH   4   7
BRANCH   1  14
ATOM     14  C   UNL     1       9.142   9.591  18.887  0.00  0.00    +0.000 C 
BRANCH  14  21
ATOM     15  C   UNL     1      10.973  13.759  20.302  0.00  0.00    +0.000 C 
ATOM     16  C   UNL     1       9.534  13.222  20.408  0.00  0.00    +0.000 C 
ATOM     17  C   UNL     1       9.071  13.589  21.843  0.00  0.00    +0.000 C 
ATOM     18  C   UNL     1       8.566  13.901  19.410  0.00  0.00    +0.000 C 
ATOM     19  C   UNL     1       8.566  13.350  17.982  0.00  0.00    +0.000 C 
ATOM     20  C   UNL     1       8.545  11.822  17.915  0.00  0.00    +0.000 C 
ATOM     21  C   UNL     1       9.559  11.091  18.832  0.00  0.00    +0.000 C 
ATOM     22  C   UNL     1      10.974  11.128  18.222  0.00  0.00    +0.000 C 
ATOM     23  C   UNL     1       9.477  11.685  20.264  0.00  0.00    +0.000 C 
BRANCH  19  24
ATOM     24  O   UNL     1       9.616  13.888  17.191  0.00  0.00    +0.000 OA
ATOM     25  H   UNL     1      10.014  13.186  16.663  0.00  0.00    +0.000 HD
ENDBRANCH  19  24
ENDBRANCH  14  21
ENDBRANCH   1  14
TORSDOF 4
ENDMDL
MODEL 2
REMARK VINA RESULT:      -7.6      6.380      9.604
REMARK  Name = 
REMARK  7 active torsions:
REMARK  status: ('A' for Active; 'I' for Inactive)
REMARK    1  A    between atoms: C_1  and  C_2
REMARK    2  A    between atoms: C_2  and  C_3
REMARK    3  A    between atoms: C_5  and  O_6
REMARK    4  A    between atoms: C_8  and  C_9
REMARK    5  A    between atoms: C_8  and  C_10
REMARK    6  A    between atoms: C_10  and  N_11
REMARK    7  A    between atoms: N_14  and  C_15
REMARK                            x       y       z     vdW  Elec       q    Type
REMARK                         _______ _______ _______ _____ _____    ______ ____
ROOT
ATOM      1  N   UNL     1       2.265   7.716  18.547  0.00  0.00    +0.000 N 
ATOM      2  C   UNL     1       1.880   9.021  18.348  0.00  0.00    +0.000 C 
ATOM      3  O   UNL     1       2.384   9.743  17.492  0.00  0.00    +0.000 OA
ATOM      4  N   UNL     1       0.906   9.401  19.245  0.00  0.00    +0.000 N 
ATOM      5  H   UNL     1       1.477   7.116  18.753  0.00  0.00    +0.000 HD
ATOM      6  H   UNL     1       1.050   9.014  20.171  0.00  0.00    +0.000 HD
ENDROOT
BRANCH   4   7
ATOM      7  C   UNL     1       0.347  10.699  19.203  0.00  0.00    +0.000 A 
ATOM      8  C   UNL     1       0.873  11.717  20.005  0.00  0.00    +0.000 A 
ATOM      9  C   UNL     1       0.371  13.017  19.913  0.00  0.00    +0.000 A 
ATOM     10  C   UNL     1      -0.670  13.303  19.031  0.00  0.00    +0.000 A 
ATOM     11  C   UNL     1      -1.228  12.285  18.256  0.00  0.00    +0.000 A 
ATOM     12  C   UNL     1      -0.718  10.988  18.337  0.00  0.00    +0.000 A 
ATOM     13 CL   UNL     1      -1.487   9.737  17.424  0.00  0.00    +0.000 Cl
ENDBRANCH   4   7
BRANCH   1  14
ATOM     14  C   UNL     1       3.330   7.180  17.716  0.00  0.00    +0.000 C 
BRANCH  14  21
ATOM     15  C   UNL     1       2.623   2.473  17.456  0.00  0.00    +0.000 C 
ATOM     16  C   UNL     1       2.231   3.475  18.558  0.00  0.00    +0.000 C 
ATOM     17  C   UNL     1       0.779   3.095  18.950  0.00  0.00    +0.000 C 
ATOM     18  C   UNL     1       3.112   3.348  19.824  0.00  0.00    +0.000 C 
ATOM     19  C   UNL     1       4.465   4.064  19.785  0.00  0.00    +0.000 C 
ATOM     20  C   UNL     1       4.388   5.487  19.230  0.00  0.00    +0.000 C 
ATOM     21  C   UNL     1       3.590   5.657  17.911  0.00  0.00    +0.000 C 
ATOM     22  C   UNL     1       4.427   5.198  16.702  0.00  0.00    +0.000 C 
ATOM     23  C   UNL     1       2.224   4.931  18.042  0.00  0.00    +0.000 C 
BRANCH  19  24
ATOM     24  O   UNL     1       5.465   3.303  19.123  0.00  0.00    +0.000 OA
ATOM     25  H   UNL     1       5.078   2.487  18.784  0.00  0.00    +0.000 HD
ENDBRANCH  19  24
ENDBRANCH  14  21
ENDBRANCH   1  14
TORSDOF 4
ENDMDL
MODEL 3
REMARK VINA RESULT:      -7.5      2.511      8.121
REMARK  Name = 
REMARK  7 active torsions:
REMARK  status: ('A' for Active; 'I' for Inactive)
REMARK    1  A    between atoms: C_1  and  C_2
REMARK    2  A    between atoms: C_2  and  C_3
REMARK    3  A    between atoms: C_5  and  O_6
REMARK    4  A    between atoms: C_8  and  C_9
REMARK    5  A    between atoms: C_8  and  C_10
REMARK    6  A    between atoms: C_10  and  N_11
REMARK    7  A    between atoms: N_14  and  C_15
REMARK                            x       y       z     vdW  Elec       q    Type
REMARK                         _______ _______ _______ _____ _____    ______ ____
ROOT
ATOM      1  N   UNL     1       8.384   8.165  18.216  0.00  0.00    +0.000 N 
ATOM      2  C   UNL     1       8.522   9.504  18.500  0.00  0.00    +0.000 C 
ATOM      3  O   UNL     1       7.956  10.384  17.858  0.00  0.00    +0.000 OA
ATOM      4  N   UNL     1       9.390   9.710  19.549  0.00  0.00    +0.000 N 
ATOM      5  H   UNL     1       8.336   7.603  19.056  0.00  0.00    +0.000 HD
ATOM      6  H   UNL     1      10.180   9.074  19.538  0.00  0.00    +0.000 HD
ENDROOT
BRANCH   4   7
ATOM      7  C   UNL     1       9.659  11.013  20.025  0.00  0.00    +0.000 A 
ATOM      8  C   UNL     1       9.024  11.486  21.178  0.00  0.00    +0.000 A 
ATOM      9  C   UNL     1       9.342  12.745  21.692  0.00  0.00    +0.000 A 
ATOM     10  C   UNL     1      10.283  13.546  21.047  0.00  0.00    +0.000 A 
ATOM     11  C   UNL     1      10.892  13.099  19.874  0.00  0.00    +0.000 A 
ATOM     12  C   UNL     1      10.586  11.835  19.366  0.00  0.00    +0.000 A 
ATOM     13 CL   UNL     1      11.298  11.349  17.867  0.00  0.00    +0.000 Cl
ENDBRANCH   4   7
BRANCH   1  14
ATOM     14  C   UNL     1       7.545   7.785  17.092  0.00  0.00    +0.000 C 
BRANCH  14  21
ATOM     15  C   UNL     1       3.700   4.970  16.931  0.00  0.00    +0.000 C 
ATOM     16  C   UNL     1       4.096   6.050  17.955  0.00  0.00    +0.000 C 
ATOM     17  C   UNL     1       2.793   6.851  18.220  0.00  0.00    +0.000 C 
ATOM     18  C   UNL     1       4.568   5.455  19.303  0.00  0.00    +0.000 C 
ATOM     19  C   UNL     1       6.026   4.993  19.368  0.00  0.00    +0.000 C 
ATOM     20  C   UNL     1       7.012   5.991  18.758  0.00  0.00    +0.000 C 
ATOM     21  C   UNL     1       6.630   6.554  17.365  0.00  0.00    +0.000 C 
ATOM     22  C   UNL     1       6.939   5.528  16.257  0.00  0.00    +0.000 C 
ATOM     23  C   UNL     1       5.152   7.026  17.390  0.00  0.00    +0.000 C 
BRANCH  19  24
ATOM     24  O   UNL     1       6.210   3.691  18.831  0.00  0.00    +0.000 OA
ATOM     25  H   UNL     1       6.605   3.757  17.953  0.00  0.00    +0.000 HD
ENDBRANCH  19  24
ENDBRANCH  14  21
ENDBRANCH   1  14
TORSDOF 4
ENDMDL
MODEL 4
REMARK VINA RESULT:      -7.4      6.930      9.964
REMARK  Name = 
REMARK  7 active torsions:
REMARK  status: ('A' for Active; 'I' for Inactive)
REMARK    1  A    between atoms: C_1  and  C_2
REMARK    2  A    between atoms: C_2  and  C_3
REMARK    3  A    between atoms: C_5  and  O_6
REMARK    4  A    between atoms: C_8  and  C_9
REMARK    5  A    between atoms: C_8  and  C_10
REMARK    6  A    between atoms: C_10  and  N_11
REMARK    7  A    between atoms: N_14  and  C_15
REMARK                            x       y       z     vdW  Elec       q    Type
REMARK                         _______ _______ _______ _____ _____    ______ ____
ROOT
ATOM      1  N   UNL     1       2.232   7.769  18.734  0.00  0.00    +0.000 N 
ATOM      2  C   UNL     1       1.457   8.792  19.230  0.00  0.00    +0.000 C 
ATOM      3  O   UNL     1       1.296   8.985  20.432  0.00  0.00    +0.000 OA
ATOM      4  N   UNL     1       0.874   9.519  18.217  0.00  0.00    +0.000 N 
ATOM      5  H   UNL     1       2.761   8.056  17.922  0.00  0.00    +0.000 HD
ATOM      6  H   UNL     1       0.575   8.942  17.439  0.00  0.00    +0.000 HD
ENDROOT
BRANCH   4   7
ATOM      7  C   UNL     1       0.054  10.635  18.503  0.00  0.00    +0.000 A 
ATOM      8  C   UNL     1      -1.326  10.471  18.658  0.00  0.00    +0.000 A 
ATOM      9  C   UNL     1      -2.130  11.558  19.012  0.00  0.00    +0.000 A 
ATOM     10  C   UNL     1      -1.560  12.817  19.196  0.00  0.00    +0.000 A 
ATOM     11  C   UNL     1      -0.190  12.998  19.004  0.00  0.00    +0.000 A 
ATOM     12  C   UNL     1       0.616  11.909  18.664  0.00  0.00    +0.000 A 
ATOM     13 CL   UNL     1       2.295  12.187  18.354  0.00  0.00    +0.000 Cl
ENDBRANCH   4   7
BRANCH   1  14
ATOM     14  C   UNL     1       2.871   6.871  19.681  0.00  0.00    +0.000 C 
BRANCH  14  21
ATOM     15  C   UNL     1       1.154   2.446  19.234  0.00  0.00    +0.000 C 
ATOM     16  C   UNL     1       2.051   3.055  20.328  0.00  0.00    +0.000 C 
ATOM     17  C   UNL     1       1.464   2.534  21.666  0.00  0.00    +0.000 C 
ATOM     18  C   UNL     1       3.519   2.575  20.235  0.00  0.00    +0.000 C 
ATOM     19  C   UNL     1       4.411   3.306  19.228  0.00  0.00    +0.000 C 
ATOM     20  C   UNL     1       4.264   4.829  19.273  0.00  0.00    +0.000 C 
ATOM     21  C   UNL     1       2.810   5.368  19.278  0.00  0.00    +0.000 C 
ATOM     22  C   UNL     1       2.204   5.321  17.861  0.00  0.00    +0.000 C 
ATOM     23  C   UNL     1       1.981   4.598  20.341  0.00  0.00    +0.000 C 
BRANCH  19  24
ATOM     24  O   UNL     1       4.260   2.811  17.906  0.00  0.00    +0.000 OA
ATOM     25  H   UNL     1       3.649   2.065  17.909  0.00  0.00    +0.000 HD
ENDBRANCH  19  24
ENDBRANCH  14  21
ENDBRANCH   1  14
TORSDOF 4
ENDMDL
MODEL 5
REMARK VINA RESULT:      -7.4      6.437      9.594
REMARK  Name = 
REMARK  7 active torsions:
REMARK  status: ('A' for Active; 'I' for Inactive)
REMARK    1  A    between atoms: C_1  and  C_2
REMARK    2  A    between atoms: C_2  and  C_3
REMARK    3  A    between atoms: C_5  and  O_6
REMARK    4  A    between atoms: C_8  and  C_9
REMARK    5  A    between atoms: C_8  and  C_10
REMARK    6  A    between atoms: C_10  and  N_11
REMARK    7  A    between atoms: N_14  and  C_15
REMARK                            x       y       z     vdW  Elec       q    Type
REMARK                         _______ _______ _______ _____ _____    ______ ____
ROOT
ATOM      1  N   UNL     1       2.413   7.686  18.760  0.00  0.00    +0.000 N 
ATOM      2  C   UNL     1       1.737   8.798  18.318  0.00  0.00    +0.000 C 
ATOM      3  O   UNL     1       2.006   9.368  17.263  0.00  0.00    +0.000 OA
ATOM      4  N   UNL     1       0.772   9.193  19.217  0.00  0.00    +0.000 N 
ATOM      5  H   UNL     1       1.794   7.014  19.194  0.00  0.00    +0.000 HD
ATOM      6  H   UNL     1       1.065   9.085  20.182  0.00  0.00    +0.000 HD
ENDROOT
BRANCH   4   7
ATOM      7  C   UNL     1      -0.060  10.303  18.950  0.00  0.00    +0.000 A 
ATOM      8  C   UNL     1      -1.090  10.200  18.009  0.00  0.00    +0.000 A 
ATOM      9  C   UNL     1      -1.960  11.272  17.795  0.00  0.00    +0.000 A 
ATOM     10  C   UNL     1      -1.796  12.457  18.509  0.00  0.00    +0.000 A 
ATOM     11  C   UNL     1      -0.747  12.584  19.422  0.00  0.00    +0.000 A 
ATOM     12  C   UNL     1       0.115  11.508  19.646  0.00  0.00    +0.000 A 
ATOM     13 CL   UNL     1       1.451  11.729  20.722  0.00  0.00    +0.000 Cl
ENDBRANCH   4   7
BRANCH   1  14
ATOM     14  C   UNL     1       3.507   7.178  17.948  0.00  0.00    +0.000 C 
BRANCH  14  21
ATOM     15  C   UNL     1       2.581   2.533  17.413  0.00  0.00    +0.000 C 
ATOM     16  C   UNL     1       2.277   3.474  18.593  0.00  0.00    +0.000 C 
ATOM     17  C   UNL     1       0.825   3.131  19.020  0.00  0.00    +0.000 C 
ATOM     18  C   UNL     1       3.199   3.227  19.810  0.00  0.00    +0.000 C 
ATOM     19  C   UNL     1       4.580   3.886  19.762  0.00  0.00    +0.000 C 
ATOM     20  C   UNL     1       4.546   5.346  19.304  0.00  0.00    +0.000 C 
ATOM     21  C   UNL     1       3.705   5.636  18.033  0.00  0.00    +0.000 C 
ATOM     22  C   UNL     1       4.475   5.224  16.763  0.00  0.00    +0.000 C 
ATOM     23  C   UNL     1       2.315   4.961  18.173  0.00  0.00    +0.000 C 
BRANCH  19  24
ATOM     24  O   UNL     1       5.519   3.130  19.011  0.00  0.00    +0.000 OA
ATOM     25  H   UNL     1       5.070   2.701  18.273  0.00  0.00    +0.000 HD
ENDBRANCH  19  24
ENDBRANCH  14  21
ENDBRANCH   1  14
TORSDOF 4
ENDMDL
MODEL 6
REMARK VINA RESULT:      -7.3      6.576      9.910
REMARK  Name = 
REMARK  7 active torsions:
REMARK  status: ('A' for Active; 'I' for Inactive)
REMARK    1  A    between atoms: C_1  and  C_2
REMARK    2  A    between atoms: C_2  and  C_3
REMARK    3  A    between atoms: C_5  and  O_6
REMARK    4  A    between atoms: C_8  and  C_9
REMARK    5  A    between atoms: C_8  and  C_10
REMARK    6  A    between atoms: C_10  and  N_11
REMARK    7  A    between atoms: N_14  and  C_15
REMARK                            x       y       z     vdW  Elec       q    Type
REMARK                         _______ _______ _______ _____ _____    ______ ____
ROOT
ATOM      1  N   UNL     1       2.061   7.619  18.998  0.00  0.00    +0.000 N 
ATOM      2  C   UNL     1       1.768   8.875  18.518  0.00  0.00    +0.000 C 
ATOM      3  O   UNL     1       2.138   9.270  17.415  0.00  0.00    +0.000 OA
ATOM      4  N   UNL     1       1.059   9.613  19.438  0.00  0.00    +0.000 N 
ATOM      5  H   UNL     1       1.284   7.219  19.507  0.00  0.00    +0.000 HD
ATOM      6  H   UNL     1       1.367   9.456  20.391  0.00  0.00    +0.000 HD
ENDROOT
BRANCH   4   7
ATOM      7  C   UNL     1       0.632  10.928  19.140  0.00  0.00    +0.000 A 
ATOM      8  C   UNL     1       1.471  12.016  19.401  0.00  0.00    +0.000 A 
ATOM      9  C   UNL     1       1.083  13.308  19.042  0.00  0.00    +0.000 A 
ATOM     10  C   UNL     1      -0.154  13.522  18.435  0.00  0.00    +0.000 A 
ATOM     11  C   UNL     1      -1.015  12.448  18.207  0.00  0.00    +0.000 A 
ATOM     12  C   UNL     1      -0.622  11.153  18.553  0.00  0.00    +0.000 A 
ATOM     13 CL   UNL     1      -1.747   9.859  18.331  0.00  0.00    +0.000 Cl
ENDBRANCH   4   7
BRANCH   1  14
ATOM     14  C   UNL     1       2.859   6.734  18.165  0.00  0.00    +0.000 C 
BRANCH  14  21
ATOM     15  C   UNL     1       0.891   2.789  19.979  0.00  0.00    +0.000 C 
ATOM     16  C   UNL     1       2.206   3.502  20.349  0.00  0.00    +0.000 C 
ATOM     17  C   UNL     1       2.235   3.513  21.901  0.00  0.00    +0.000 C 
ATOM     18  C   UNL     1       3.459   2.740  19.858  0.00  0.00    +0.000 C 
ATOM     19  C   UNL     1       3.860   2.963  18.397  0.00  0.00    +0.000 C 
ATOM     20  C   UNL     1       3.826   4.432  17.970  0.00  0.00    +0.000 C 
ATOM     21  C   UNL     1       2.550   5.221  18.361  0.00  0.00    +0.000 C 
ATOM     22  C   UNL     1       1.386   4.886  17.408  0.00  0.00    +0.000 C 
ATOM     23  C   UNL     1       2.229   4.966  19.858  0.00  0.00    +0.000 C 
BRANCH  19  24
ATOM     24  O   UNL     1       3.123   2.146  17.499  0.00  0.00    +0.000 OA
ATOM     25  H   UNL     1       3.731   1.680  16.913  0.00  0.00    +0.000 HD
ENDBRANCH  19  24
ENDBRANCH  14  21
ENDBRANCH   1  14
TORSDOF 4
ENDMDL
MODEL 7
REMARK VINA RESULT:      -7.2      1.036      1.784
REMARK  Name = 
REMARK  7 active torsions:
REMARK  status: ('A' for Active; 'I' for Inactive)
REMARK    1  A    between atoms: C_1  and  C_2
REMARK    2  A    between atoms: C_2  and  C_3
REMARK    3  A    between atoms: C_5  and  O_6
REMARK    4  A    between atoms: C_8  and  C_9
REMARK    5  A    between atoms: C_8  and  C_10
REMARK    6  A    between atoms: C_10  and  N_11
REMARK    7  A    between atoms: N_14  and  C_15
REMARK                            x       y       z     vdW  Elec       q    Type
REMARK                         _______ _______ _______ _____ _____    ______ ____
ROOT
ATOM      1  N   UNL     1       8.193   9.180  17.991  0.00  0.00    +0.000 N 
ATOM      2  C   UNL     1       7.762   7.876  17.917  0.00  0.00    +0.000 C 
ATOM      3  O   UNL     1       8.167   6.996  18.671  0.00  0.00    +0.000 OA
ATOM      4  N   UNL     1       6.869   7.699  16.884  0.00  0.00    +0.000 N 
ATOM      5  H   UNL     1       7.442   9.837  17.827  0.00  0.00    +0.000 HD
ATOM      6  H   UNL     1       7.109   8.237  16.058  0.00  0.00    +0.000 HD
ENDROOT
BRANCH   4   7
ATOM      7  C   UNL     1       6.280   6.437  16.642  0.00  0.00    +0.000 A 
ATOM      8  C   UNL     1       7.024   5.417  16.041  0.00  0.00    +0.000 A 
ATOM      9  C   UNL     1       6.468   4.147  15.867  0.00  0.00    +0.000 A 
ATOM     10  C   UNL     1       5.160   3.895  16.278  0.00  0.00    +0.000 A 
ATOM     11  C   UNL     1       4.397   4.918  16.843  0.00  0.00    +0.000 A 
ATOM     12  C   UNL     1       4.956   6.183  17.030  0.00  0.00    +0.000 A 
ATOM     13 CL   UNL     1       3.954   7.447  17.656  0.00  0.00    +0.000 Cl
ENDBRANCH   4   7
BRANCH   1  14
ATOM     14  C   UNL     1       9.187   9.519  18.996  0.00  0.00    +0.000 C 
BRANCH  14  21
ATOM     15  C   UNL     1       8.770  14.246  19.444  0.00  0.00    +0.000 C 
ATOM     16  C   UNL     1       8.636  13.353  18.196  0.00  0.00    +0.000 C 
ATOM     17  C   UNL     1       7.385  13.887  17.450  0.00  0.00    +0.000 C 
ATOM     18  C   UNL     1       9.846  13.476  17.239  0.00  0.00    +0.000 C 
ATOM     19  C   UNL     1      11.078  12.639  17.591  0.00  0.00    +0.000 C 
ATOM     20  C   UNL     1      10.747  11.196  17.982  0.00  0.00    +0.000 C 
ATOM     21  C   UNL     1       9.598  11.021  19.008  0.00  0.00    +0.000 C 
ATOM     22  C   UNL     1      10.090  11.327  20.437  0.00  0.00    +0.000 C 
ATOM     23  C   UNL     1       8.380  11.876  18.566  0.00  0.00    +0.000 C 
BRANCH  19  24
ATOM     24  O   UNL     1      11.901  13.263  18.566  0.00  0.00    +0.000 OA
ATOM     25  H   UNL     1      11.428  13.309  19.406  0.00  0.00    +0.000 HD
ENDBRANCH  19  24
ENDBRANCH  14  21
ENDBRANCH   1  14
TORSDOF 4
ENDMDL
MODEL 8
REMARK VINA RESULT:      -7.2      6.880      9.889
REMARK  Name = 
REMARK  7 active torsions:
REMARK  status: ('A' for Active; 'I' for Inactive)
REMARK    1  A    between atoms: C_1  and  C_2
REMARK    2  A    between atoms: C_2  and  C_3
REMARK    3  A    between atoms: C_5  and  O_6
REMARK    4  A    between atoms: C_8  and  C_9
REMARK    5  A    between atoms: C_8  and  C_10
REMARK    6  A    between atoms: C_10  and  N_11
REMARK    7  A    between atoms: N_14  and  C_15
REMARK                            x       y       z     vdW  Elec       q    Type
REMARK                         _______ _______ _______ _____ _____    ______ ____
ROOT
ATOM      1  N   UNL     1       2.158   7.504  19.961  0.00  0.00    +0.000 N 
ATOM      2  C   UNL     1       1.646   8.530  19.202  0.00  0.00    +0.000 C 
ATOM      3  O   UNL     1       2.110   8.849  18.110  0.00  0.00    +0.000 OA
ATOM      4  N   UNL     1       0.598   9.154  19.840  0.00  0.00    +0.000 N 
ATOM      5  H   UNL     1       1.429   6.972  20.418  0.00  0.00    +0.000 HD
ATOM      6  H   UNL     1       0.739   9.240  20.840  0.00  0.00    +0.000 HD
ENDROOT
BRANCH   4   7
ATOM      7  C   UNL     1      -0.094  10.223  19.226  0.00  0.00    +0.000 A 
ATOM      8  C   UNL     1      -1.064   9.967  18.252  0.00  0.00    +0.000 A 
ATOM      9  C   UNL     1      -1.801  11.015  17.696  0.00  0.00    +0.000 A 
ATOM     10  C   UNL     1      -1.560  12.328  18.098  0.00  0.00    +0.000 A 
ATOM     11  C   UNL     1      -0.566  12.598  19.040  0.00  0.00    +0.000 A 
ATOM     12  C   UNL     1       0.162  11.549  19.607  0.00  0.00    +0.000 A 
ATOM     13 CL   UNL     1       1.440  11.928  20.708  0.00  0.00    +0.000 Cl
ENDBRANCH   4   7
BRANCH   1  14
ATOM     14  C   UNL     1       3.311   6.782  19.450  0.00  0.00    +0.000 C 
BRANCH  14  21
ATOM     15  C   UNL     1       1.015   2.605  19.346  0.00  0.00    +0.000 C 
ATOM     16  C   UNL     1       1.997   3.171  20.389  0.00  0.00    +0.000 C 
ATOM     17  C   UNL     1       1.361   2.837  21.764  0.00  0.00    +0.000 C 
ATOM     18  C   UNL     1       3.387   2.493  20.333  0.00  0.00    +0.000 C 
ATOM     19  C   UNL     1       4.358   3.019  19.273  0.00  0.00    +0.000 C 
ATOM     20  C   UNL     1       4.415   4.547  19.200  0.00  0.00    +0.000 C 
ATOM     21  C   UNL     1       3.046   5.274  19.164  0.00  0.00    +0.000 C 
ATOM     22  C   UNL     1       2.425   5.200  17.755  0.00  0.00    +0.000 C 
ATOM     23  C   UNL     1       2.134   4.706  20.284  0.00  0.00    +0.000 C 
BRANCH  19  24
ATOM     24  O   UNL     1       4.128   2.449  17.993  0.00  0.00    +0.000 OA
ATOM     25  H   UNL     1       4.933   2.017  17.683  0.00  0.00    +0.000 HD
ENDBRANCH  19  24
ENDBRANCH  14  21
ENDBRANCH   1  14
TORSDOF 4
ENDMDL
MODEL 9
REMARK VINA RESULT:      -7.1      2.375      8.056
REMARK  Name = 
REMARK  7 active torsions:
REMARK  status: ('A' for Active; 'I' for Inactive)
REMARK    1  A    between atoms: C_1  and  C_2
REMARK    2  A    between atoms: C_2  and  C_3
REMARK    3  A    between atoms: C_5  and  O_6
REMARK    4  A    between atoms: C_8  and  C_9
REMARK    5  A    between atoms: C_8  and  C_10
REMARK    6  A    between atoms: C_10  and  N_11
REMARK    7  A    between atoms: N_14  and  C_15
REMARK                            x       y       z     vdW  Elec       q    Type
REMARK                         _______ _______ _______ _____ _____    ______ ____
ROOT
ATOM      1  N   UNL     1       8.308   8.370  18.510  0.00  0.00    +0.000 N 
ATOM      2  C   UNL     1       8.796   9.655  18.542  0.00  0.00    +0.000 C 
ATOM      3  O   UNL     1       8.709  10.427  17.590  0.00  0.00    +0.000 OA
ATOM      4  N   UNL     1       9.411   9.931  19.742  0.00  0.00    +0.000 N 
ATOM      5  H   UNL     1       7.886   8.103  19.389  0.00  0.00    +0.000 HD
ATOM      6  H   UNL     1       9.936   9.143  20.107  0.00  0.00    +0.000 HD
ENDROOT
BRANCH   4   7
ATOM      7  C   UNL     1       9.963  11.207  20.000  0.00  0.00    +0.000 A 
ATOM      8  C   UNL     1      10.996  11.701  19.199  0.00  0.00    +0.000 A 
ATOM      9  C   UNL     1      11.494  12.989  19.404  0.00  0.00    +0.000 A 
ATOM     10  C   UNL     1      10.973  13.785  20.423  0.00  0.00    +0.000 A 
ATOM     11  C   UNL     1       9.968  13.286  21.254  0.00  0.00    +0.000 A 
ATOM     12  C   UNL     1       9.460  12.003  21.040  0.00  0.00    +0.000 A 
ATOM     13 CL   UNL     1       8.275  11.387  22.140  0.00  0.00    +0.000 Cl
ENDBRANCH   4   7
BRANCH   1  14
ATOM     14  C   UNL     1       7.680   7.905  17.284  0.00  0.00    +0.000 C 
BRANCH  14  21
ATOM     15  C   UNL     1       3.810   5.151  16.876  0.00  0.00    +0.000 C 
ATOM     16  C   UNL     1       4.184   6.180  17.959  0.00  0.00    +0.000 C 
ATOM     17  C   UNL     1       2.883   6.985  18.218  0.00  0.00    +0.000 C 
ATOM     18  C   UNL     1       4.606   5.519  19.293  0.00  0.00    +0.000 C 
ATOM     19  C   UNL     1       6.056   5.035  19.384  0.00  0.00    +0.000 C 
ATOM     20  C   UNL     1       7.073   6.047  18.851  0.00  0.00    +0.000 C 
ATOM     21  C   UNL     1       6.743   6.675  17.473  0.00  0.00    +0.000 C 
ATOM     22  C   UNL     1       7.075   5.694  16.331  0.00  0.00    +0.000 C 
ATOM     23  C   UNL     1       5.270   7.165  17.472  0.00  0.00    +0.000 C 
BRANCH  19  24
ATOM     24  O   UNL     1       6.241   3.756  18.796  0.00  0.00    +0.000 OA
ATOM     25  H   UNL     1       5.382   3.353  18.623  0.00  0.00    +0.000 HD
ENDBRANCH  19  24
ENDBRANCH  14  21
ENDBRANCH   1  14
TORSDOF 4
ENDMDL
