MODEL 1
REMARK VINA RESULT:      -9.3      0.000      0.000
REMARK  Name = 
REMARK  9 active torsions:
REMARK  status: ('A' for Active; 'I' for Inactive)
REMARK    1  A    between atoms: C_1  and  C_2
REMARK    2  A    between atoms: C_2  and  C_3
REMARK    3  A    between atoms: C_3  and  C_4
REMARK    4  A    between atoms: C_4  and  N_5
REMARK    5  A    between atoms: N_5  and  C_6
REMARK    6  A    between atoms: C_6  and  C_7
REMARK    7  A    between atoms: C_13  and  C_15
REMARK    8  A    between atoms: N_19  and  C_20
REMARK    9  A    between atoms: C_23  and  C_24
REMARK                            x       y       z     vdW  Elec       q    Type
REMARK                         _______ _______ _______ _____ _____    ______ ____
ROOT
ATOM      1  C   UNL     1       4.073   3.942  18.142  0.00  0.00    +0.000 A 
ATOM      2  C   UNL     1       3.729   2.714  17.597  0.00  0.00    +0.000 A 
ATOM      3  N   UNL     1       2.392   2.581  17.390  0.00  0.00    +0.000 NA
ATOM      4  C   UNL     1       1.901   3.748  17.712  0.00  0.00    +0.000 A 
ATOM      5  N   UNL     1       2.855   4.639  18.162  0.00  0.00    +0.000 N 
ENDROOT
BRANCH   5   6
ATOM      6  C   UNL     1       2.546   5.978  18.566  0.00  0.00    +0.000 A 
ATOM      7  C   UNL     1       2.233   6.311  19.886  0.00  0.00    +0.000 A 
ATOM      8  C   UNL     1       1.841   7.623  20.207  0.00  0.00    +0.000 A 
ATOM      9  C   UNL     1       1.748   8.625  19.228  0.00  0.00    +0.000 A 
ATOM     10  C   UNL     1       2.119   8.293  17.921  0.00  0.00    +0.000 A 
ATOM     11  C   UNL     1       2.507   6.989  17.591  0.00  0.00    +0.000 A 
BRANCH   9  12
ATOM     12  C   UNL     1       1.210   9.946  19.554  0.00  0.00    +0.000 A 
ATOM     13  C   UNL     1       0.360  10.411  20.540  0.00  0.00    +0.000 A 
ATOM     14  C   UNL     1       0.068  11.765  20.236  0.00  0.00    +0.000 A 
ATOM     15  C   UNL     1      -0.760  12.760  20.784  0.00  0.00    +0.000 A 
ATOM     16  C   UNL     1      -0.817  14.012  20.156  0.00  0.00    +0.000 A 
ATOM     17  C   UNL     1      -0.049  14.282  19.020  0.00  0.00    +0.000 A 
ATOM     18  C   UNL     1       0.795  13.310  18.468  0.00  0.00    +0.000 A 
ATOM     19  C   UNL     1       0.809  12.064  19.103  0.00  0.00    +0.000 A 
ATOM     20  O   UNL     1       1.514  10.972  18.695  0.00  0.00    +0.000 OA
ENDBRANCH   9  12
ENDBRANCH   5   6
BRANCH   1  22
ATOM     21  N   UNL     1       6.074   5.184  17.287  0.00  0.00    +0.000 N 
ATOM     22  C   UNL     1       5.379   4.532  18.339  0.00  0.00    +0.000 C 
ATOM     23  O   UNL     1       5.872   4.425  19.458  0.00  0.00    +0.000 OA
BRANCH  21  24
ATOM     24  C   UNL     1       7.499   5.612  17.435  0.00  0.00    +0.000 C 
BRANCH  24  25
ATOM     25  C   UNL     1       7.746   6.901  18.226  0.00  0.00    +0.000 C 
BRANCH  25  27
ATOM     26  C   UNL     1       8.477   9.262  18.219  0.00  0.00    +0.000 C 
ATOM     27  C   UNL     1       7.581   8.239  17.515  0.00  0.00    +0.000 C 
ENDBRANCH  25  27
ENDBRANCH  24  25
ENDBRANCH  21  24
BRANCH  21  28
ATOM     28  C   UNL     1       5.445   5.541  16.001  0.00  0.00    +0.000 C 
BRANCH  28  29
ATOM     29  C   UNL     1       6.092   4.937  14.761  0.00  0.00    +0.000 A 
ATOM     30  C   UNL     1       7.278   5.440  14.201  0.00  0.00    +0.000 A 
ATOM     31  C   UNL     1       7.718   5.003  12.948  0.00  0.00    +0.000 A 
ATOM     32  C   UNL     1       7.001   4.034  12.250  0.00  0.00    +0.000 A 
ATOM     33  C   UNL     1       5.863   3.471  12.823  0.00  0.00    +0.000 A 
ATOM     34  C   UNL     1       5.418   3.910  14.074  0.00  0.00    +0.000 A 
ENDBRANCH  28  29
ENDBRANCH  21  28
ENDBRANCH   1  22
TORSDOF 8
ENDMDL
MODEL 2
REMARK VINA RESULT:      -8.9      1.102      1.618
REMARK  Name = 
REMARK  9 active torsions:
REMARK  status: ('A' for Active; 'I' for Inactive)
REMARK    1  A    between atoms: C_1  and  C_2
REMARK    2  A    between atoms: C_2  and  C_3
REMARK    3  A    between atoms: C_3  and  C_4
REMARK    4  A    between atoms: C_4  and  N_5
REMARK    5  A    between atoms: N_5  and  C_6
REMARK    6  A    between atoms: C_6  and  C_7
REMARK    7  A    between atoms: C_13  and  C_15
REMARK    8  A    between atoms: N_19  and  C_20
REMARK    9  A    between atoms: C_23  and  C_24
REMARK                            x       y       z     vdW  Elec       q    Type
REMARK                         _______ _______ _______ _____ _____    ______ ____
ROOT
ATOM      1  C   UNL     1       4.289   4.150  18.332  0.00  0.00    +0.000 A 
ATOM      2  C   UNL     1       4.082   2.968  17.637  0.00  0.00    +0.000 A 
ATOM      3  N   UNL     1       2.766   2.709  17.410  0.00  0.00    +0.000 NA
ATOM      4  C   UNL     1       2.149   3.763  17.874  0.00  0.00    +0.000 A 
ATOM      5  N   UNL     1       3.000   4.695  18.436  0.00  0.00    +0.000 N 
ENDROOT
BRANCH   5   6
ATOM      6  C   UNL     1       2.544   5.928  19.003  0.00  0.00    +0.000 A 
ATOM      7  C   UNL     1       1.950   6.000  20.264  0.00  0.00    +0.000 A 
ATOM      8  C   UNL     1       1.431   7.222  20.730  0.00  0.00    +0.000 A 
ATOM      9  C   UNL     1       1.488   8.391  19.953  0.00  0.00    +0.000 A 
ATOM     10  C   UNL     1       2.137   8.318  18.716  0.00  0.00    +0.000 A 
ATOM     11  C   UNL     1       2.653   7.106  18.243  0.00  0.00    +0.000 A 
BRANCH   9  12
ATOM     12  C   UNL     1       0.826   9.619  20.394  0.00  0.00    +0.000 A 
ATOM     13  C   UNL     1       0.856  10.928  19.953  0.00  0.00    +0.000 A 
ATOM     14  C   UNL     1       0.132  11.704  20.894  0.00  0.00    +0.000 A 
ATOM     15  C   UNL     1      -0.147  13.070  21.063  0.00  0.00    +0.000 A 
ATOM     16  C   UNL     1      -0.888  13.474  22.183  0.00  0.00    +0.000 A 
ATOM     17  C   UNL     1      -1.364  12.538  23.105  0.00  0.00    +0.000 A 
ATOM     18  C   UNL     1      -1.111  11.170  22.946  0.00  0.00    +0.000 A 
ATOM     19  C   UNL     1      -0.347  10.803  21.832  0.00  0.00    +0.000 A 
ATOM     20  O   UNL     1       0.055   9.538  21.527  0.00  0.00    +0.000 OA
ENDBRANCH   9  12
ENDBRANCH   5   6
BRANCH   1  22
ATOM     21  N   UNL     1       6.172   5.640  17.617  0.00  0.00    +0.000 N 
ATOM     22  C   UNL     1       5.522   4.857  18.606  0.00  0.00    +0.000 C 
ATOM     23  O   UNL     1       5.993   4.732  19.733  0.00  0.00    +0.000 OA
BRANCH  21  24
ATOM     24  C   UNL     1       7.541   6.202  17.836  0.00  0.00    +0.000 C 
BRANCH  24  25
ATOM     25  C   UNL     1       7.829   7.565  17.199  0.00  0.00    +0.000 C 
BRANCH  25  27
ATOM     26  C   UNL     1       8.728   9.600  18.277  0.00  0.00    +0.000 C 
ATOM     27  C   UNL     1       7.443   8.826  17.964  0.00  0.00    +0.000 C 
ENDBRANCH  25  27
ENDBRANCH  24  25
ENDBRANCH  21  24
BRANCH  21  28
ATOM     28  C   UNL     1       5.543   6.010  16.335  0.00  0.00    +0.000 C 
BRANCH  28  29
ATOM     29  C   UNL     1       5.961   5.175  15.131  0.00  0.00    +0.000 A 
ATOM     30  C   UNL     1       7.190   5.350  14.475  0.00  0.00    +0.000 A 
ATOM     31  C   UNL     1       7.442   4.722  13.250  0.00  0.00    +0.000 A 
ATOM     32  C   UNL     1       6.486   3.884  12.681  0.00  0.00    +0.000 A 
ATOM     33  C   UNL     1       5.291   3.642  13.354  0.00  0.00    +0.000 A 
ATOM     34  C   UNL     1       5.034   4.273  14.575  0.00  0.00    +0.000 A 
ENDBRANCH  28  29
ENDBRANCH  21  28
ENDBRANCH   1  22
TORSDOF 8
ENDMDL
MODEL 3
REMARK VINA RESULT:      -8.9      0.645      1.053
REMARK  Name = 
REMARK  9 active torsions:
REMARK  status: ('A' for Active; 'I' for Inactive)
REMARK    1  A    between atoms: C_1  and  C_2
REMARK    2  A    between atoms: C_2  and  C_3
REMARK    3  A    between atoms: C_3  and  C_4
REMARK    4  A    between atoms: C_4  and  N_5
REMARK    5  A    between atoms: N_5  and  C_6
REMARK    6  A    between atoms: C_6  and  C_7
REMARK    7  A    between atoms: C_13  and  C_15
REMARK    8  A    between atoms: N_19  and  C_20
REMARK    9  A    between atoms: C_23  and  C_24
REMARK                            x       y       z     vdW  Elec       q    Type
REMARK                         _______ _______ _______ _____ _____    ______ ____
ROOT
ATOM      1  C   UNL     1       3.871   3.484  18.224  0.00  0.00    +0.000 A 
ATOM      2  C   UNL     1       3.453   2.287  17.663  0.00  0.00    +0.000 A 
ATOM      3  N   UNL     1       2.099   2.174  17.600  0.00  0.00    +0.000 NA
ATOM      4  C   UNL     1       1.663   3.328  18.029  0.00  0.00    +0.000 A 
ATOM      5  N   UNL     1       2.673   4.189  18.412  0.00  0.00    +0.000 N 
ENDROOT
BRANCH   5   6
ATOM      6  C   UNL     1       2.427   5.509  18.910  0.00  0.00    +0.000 A 
ATOM      7  C   UNL     1       2.016   5.752  20.222  0.00  0.00    +0.000 A 
ATOM      8  C   UNL     1       1.694   7.060  20.629  0.00  0.00    +0.000 A 
ATOM      9  C   UNL     1       1.771   8.147  19.743  0.00  0.00    +0.000 A 
ATOM     10  C   UNL     1       2.239   7.899  18.448  0.00  0.00    +0.000 A 
ATOM     11  C   UNL     1       2.558   6.601  18.034  0.00  0.00    +0.000 A 
BRANCH   9  12
ATOM     12  C   UNL     1       1.305   9.475  20.142  0.00  0.00    +0.000 A 
ATOM     13  C   UNL     1       0.740   9.979  21.299  0.00  0.00    +0.000 A 
ATOM     14  C   UNL     1       0.340  11.311  21.024  0.00  0.00    +0.000 A 
ATOM     15  C   UNL     1      -0.335  12.320  21.730  0.00  0.00    +0.000 A 
ATOM     16  C   UNL     1      -0.594  13.538  21.085  0.00  0.00    +0.000 A 
ATOM     17  C   UNL     1      -0.169  13.760  19.772  0.00  0.00    +0.000 A 
ATOM     18  C   UNL     1       0.521  12.773  19.057  0.00  0.00    +0.000 A 
ATOM     19  C   UNL     1       0.740  11.561  19.721  0.00  0.00    +0.000 A 
ATOM     20  O   UNL     1       1.338  10.460  19.187  0.00  0.00    +0.000 OA
ENDBRANCH   9  12
ENDBRANCH   5   6
BRANCH   1  22
ATOM     21  N   UNL     1       5.793   4.723  17.200  0.00  0.00    +0.000 N 
ATOM     22  C   UNL     1       5.199   4.053  18.301  0.00  0.00    +0.000 C 
ATOM     23  O   UNL     1       5.800   3.913  19.363  0.00  0.00    +0.000 OA
BRANCH  21  24
ATOM     24  C   UNL     1       7.233   5.130  17.213  0.00  0.00    +0.000 C 
BRANCH  24  25
ATOM     25  C   UNL     1       7.573   6.405  17.991  0.00  0.00    +0.000 C 
BRANCH  25  27
ATOM     26  C   UNL     1       8.129   8.814  18.011  0.00  0.00    +0.000 C 
ATOM     27  C   UNL     1       7.226   7.755  17.372  0.00  0.00    +0.000 C 
ENDBRANCH  25  27
ENDBRANCH  24  25
ENDBRANCH  21  24
BRANCH  21  28
ATOM     28  C   UNL     1       5.044   5.119  15.993  0.00  0.00    +0.000 C 
BRANCH  28  29
ATOM     29  C   UNL     1       5.708   4.782  14.665  0.00  0.00    +0.000 A 
ATOM     30  C   UNL     1       5.199   3.812  13.785  0.00  0.00    +0.000 A 
ATOM     31  C   UNL     1       5.950   3.377  12.689  0.00  0.00    +0.000 A 
ATOM     32  C   UNL     1       7.204   3.926  12.434  0.00  0.00    +0.000 A 
ATOM     33  C   UNL     1       7.694   4.940  13.254  0.00  0.00    +0.000 A 
ATOM     34  C   UNL     1       6.947   5.374  14.354  0.00  0.00    +0.000 A 
ENDBRANCH  28  29
ENDBRANCH  21  28
ENDBRANCH   1  22
TORSDOF 8
ENDMDL
MODEL 4
REMARK VINA RESULT:      -8.9      1.244      1.728
REMARK  Name = 
REMARK  9 active torsions:
REMARK  status: ('A' for Active; 'I' for Inactive)
REMARK    1  A    between atoms: C_1  and  C_2
REMARK    2  A    between atoms: C_2  and  C_3
REMARK    3  A    between atoms: C_3  and  C_4
REMARK    4  A    between atoms: C_4  and  N_5
REMARK    5  A    between atoms: N_5  and  C_6
REMARK    6  A    between atoms: C_6  and  C_7
REMARK    7  A    between atoms: C_13  and  C_15
REMARK    8  A    between atoms: N_19  and  C_20
REMARK    9  A    between atoms: C_23  and  C_24
REMARK                            x       y       z     vdW  Elec       q    Type
REMARK                         _______ _______ _______ _____ _____    ______ ____
ROOT
ATOM      1  C   UNL     1       4.327   3.527  18.200  0.00  0.00    +0.000 A 
ATOM      2  C   UNL     1       4.100   2.324  17.548  0.00  0.00    +0.000 A 
ATOM      3  N   UNL     1       2.796   1.938  17.586  0.00  0.00    +0.000 NA
ATOM      4  C   UNL     1       2.186   2.932  18.175  0.00  0.00    +0.000 A 
ATOM      5  N   UNL     1       3.038   3.946  18.564  0.00  0.00    +0.000 N 
ENDROOT
BRANCH   5   6
ATOM      6  C   UNL     1       2.588   5.135  19.224  0.00  0.00    +0.000 A 
ATOM      7  C   UNL     1       1.992   5.113  20.487  0.00  0.00    +0.000 A 
ATOM      8  C   UNL     1       1.480   6.298  21.044  0.00  0.00    +0.000 A 
ATOM      9  C   UNL     1       1.545   7.524  20.359  0.00  0.00    +0.000 A 
ATOM     10  C   UNL     1       2.195   7.542  19.121  0.00  0.00    +0.000 A 
ATOM     11  C   UNL     1       2.705   6.367  18.557  0.00  0.00    +0.000 A 
BRANCH   9  12
ATOM     12  C   UNL     1       0.889   8.718  20.892  0.00  0.00    +0.000 A 
ATOM     13  C   UNL     1       0.622   9.167  22.172  0.00  0.00    +0.000 A 
ATOM     14  C   UNL     1      -0.199  10.317  22.049  0.00  0.00    +0.000 A 
ATOM     15  C   UNL     1      -0.854  11.180  22.943  0.00  0.00    +0.000 A 
ATOM     16  C   UNL     1      -1.638  12.220  22.424  0.00  0.00    +0.000 A 
ATOM     17  C   UNL     1      -1.750  12.416  21.046  0.00  0.00    +0.000 A 
ATOM     18  C   UNL     1      -1.091  11.578  20.138  0.00  0.00    +0.000 A 
ATOM     19  C   UNL     1      -0.338  10.534  20.688  0.00  0.00    +0.000 A 
ATOM     20  O   UNL     1       0.331   9.580  19.982  0.00  0.00    +0.000 OA
ENDBRANCH   9  12
ENDBRANCH   5   6
BRANCH   1  22
ATOM     21  N   UNL     1       5.932   5.105  17.101  0.00  0.00    +0.000 N 
ATOM     22  C   UNL     1       5.515   4.351  18.228  0.00  0.00    +0.000 C 
ATOM     23  O   UNL     1       6.161   4.355  19.273  0.00  0.00    +0.000 OA
BRANCH  21  24
ATOM     24  C   UNL     1       7.261   5.793  17.064  0.00  0.00    +0.000 C 
BRANCH  24  25
ATOM     25  C   UNL     1       7.266   7.285  17.408  0.00  0.00    +0.000 C 
BRANCH  25  27
ATOM     26  C   UNL     1       8.413   9.322  18.214  0.00  0.00    +0.000 C 
ATOM     27  C   UNL     1       8.305   7.805  18.396  0.00  0.00    +0.000 C 
ENDBRANCH  25  27
ENDBRANCH  24  25
ENDBRANCH  21  24
BRANCH  21  28
ATOM     28  C   UNL     1       5.085   5.320  15.913  0.00  0.00    +0.000 C 
BRANCH  28  29
ATOM     29  C   UNL     1       5.691   4.885  14.584  0.00  0.00    +0.000 A 
ATOM     30  C   UNL     1       5.117   3.887  13.779  0.00  0.00    +0.000 A 
ATOM     31  C   UNL     1       5.814   3.364  12.685  0.00  0.00    +0.000 A 
ATOM     32  C   UNL     1       7.077   3.852  12.358  0.00  0.00    +0.000 A 
ATOM     33  C   UNL     1       7.630   4.891  13.102  0.00  0.00    +0.000 A 
ATOM     34  C   UNL     1       6.938   5.413  14.200  0.00  0.00    +0.000 A 
ENDBRANCH  28  29
ENDBRANCH  21  28
ENDBRANCH   1  22
TORSDOF 8
ENDMDL
MODEL 5
REMARK VINA RESULT:      -8.7      0.816      1.057
REMARK  Name = 
REMARK  9 active torsions:
REMARK  status: ('A' for Active; 'I' for Inactive)
REMARK    1  A    between atoms: C_1  and  C_2
REMARK    2  A    between atoms: C_2  and  C_3
REMARK    3  A    between atoms: C_3  and  C_4
REMARK    4  A    between atoms: C_4  and  N_5
REMARK    5  A    between atoms: N_5  and  C_6
REMARK    6  A    between atoms: C_6  and  C_7
REMARK    7  A    between atoms: C_13  and  C_15
REMARK    8  A    between atoms: N_19  and  C_20
REMARK    9  A    between atoms: C_23  and  C_24
REMARK                            x       y       z     vdW  Elec       q    Type
REMARK                         _______ _______ _______ _____ _____    ______ ____
ROOT
ATOM      1  C   UNL     1       4.320   3.995  18.806  0.00  0.00    +0.000 A 
ATOM      2  C   UNL     1       4.074   2.646  18.599  0.00  0.00    +0.000 A 
ATOM      3  N   UNL     1       2.753   2.330  18.676  0.00  0.00    +0.000 NA
ATOM      4  C   UNL     1       2.158   3.482  18.839  0.00  0.00    +0.000 A 
ATOM      5  N   UNL     1       3.034   4.547  18.911  0.00  0.00    +0.000 N 
ENDROOT
BRANCH   5   6
ATOM      6  C   UNL     1       2.605   5.902  19.082  0.00  0.00    +0.000 A 
ATOM      7  C   UNL     1       2.098   6.382  20.292  0.00  0.00    +0.000 A 
ATOM      8  C   UNL     1       1.599   7.694  20.376  0.00  0.00    +0.000 A 
ATOM      9  C   UNL     1       1.590   8.552  19.263  0.00  0.00    +0.000 A 
ATOM     10  C   UNL     1       2.153   8.078  18.073  0.00  0.00    +0.000 A 
ATOM     11  C   UNL     1       2.648   6.773  17.980  0.00  0.00    +0.000 A 
BRANCH   9  12
ATOM     12  C   UNL     1       0.946   9.864  19.332  0.00  0.00    +0.000 A 
ATOM     13  C   UNL     1       0.231  10.622  18.424  0.00  0.00    +0.000 A 
ATOM     14  C   UNL     1       0.008  11.889  19.021  0.00  0.00    +0.000 A 
ATOM     15  C   UNL     1      -0.578  13.099  18.613  0.00  0.00    +0.000 A 
ATOM     16  C   UNL     1      -0.571  14.184  19.501  0.00  0.00    +0.000 A 
ATOM     17  C   UNL     1      -0.016  14.065  20.778  0.00  0.00    +0.000 A 
ATOM     18  C   UNL     1       0.557  12.862  21.209  0.00  0.00    +0.000 A 
ATOM     19  C   UNL     1       0.558  11.808  20.290  0.00  0.00    +0.000 A 
ATOM     20  O   UNL     1       1.112  10.579  20.491  0.00  0.00    +0.000 OA
ENDBRANCH   9  12
ENDBRANCH   5   6
BRANCH   1  22
ATOM     21  N   UNL     1       6.000   5.147  17.347  0.00  0.00    +0.000 N 
ATOM     22  C   UNL     1       5.543   4.747  18.631  0.00  0.00    +0.000 C 
ATOM     23  O   UNL     1       6.182   5.010  19.646  0.00  0.00    +0.000 OA
BRANCH  21  24
ATOM     24  C   UNL     1       7.357   5.744  17.148  0.00  0.00    +0.000 C 
BRANCH  24  25
ATOM     25  C   UNL     1       7.462   7.265  17.300  0.00  0.00    +0.000 C 
BRANCH  25  27
ATOM     26  C   UNL     1       8.451   9.333  18.226  0.00  0.00    +0.000 C 
ATOM     27  C   UNL     1       8.273   7.830  18.461  0.00  0.00    +0.000 C 
ENDBRANCH  25  27
ENDBRANCH  24  25
ENDBRANCH  21  24
BRANCH  21  28
ATOM     28  C   UNL     1       5.171   5.063  16.131  0.00  0.00    +0.000 C 
BRANCH  28  29
ATOM     29  C   UNL     1       5.906   4.662  14.859  0.00  0.00    +0.000 A 
ATOM     30  C   UNL     1       7.115   5.255  14.460  0.00  0.00    +0.000 A 
ATOM     31  C   UNL     1       7.641   5.018  13.186  0.00  0.00    +0.000 A 
ATOM     32  C   UNL     1       6.988   4.161  12.304  0.00  0.00    +0.000 A 
ATOM     33  C   UNL     1       5.827   3.506  12.709  0.00  0.00    +0.000 A 
ATOM     34  C   UNL     1       5.296   3.745  13.981  0.00  0.00    +0.000 A 
ENDBRANCH  28  29
ENDBRANCH  21  28
ENDBRANCH   1  22
TORSDOF 8
ENDMDL
MODEL 6
REMARK VINA RESULT:      -8.5      1.647      3.603
REMARK  Name = 
REMARK  9 active torsions:
REMARK  status: ('A' for Active; 'I' for Inactive)
REMARK    1  A    between atoms: C_1  and  C_2
REMARK    2  A    between atoms: C_2  and  C_3
REMARK    3  A    between atoms: C_3  and  C_4
REMARK    4  A    between atoms: C_4  and  N_5
REMARK    5  A    between atoms: N_5  and  C_6
REMARK    6  A    between atoms: C_6  and  C_7
REMARK    7  A    between atoms: C_13  and  C_15
REMARK    8  A    between atoms: N_19  and  C_20
REMARK    9  A    between atoms: C_23  and  C_24
REMARK                            x       y       z     vdW  Elec       q    Type
REMARK                         _______ _______ _______ _____ _____    ______ ____
ROOT
ATOM      1  C   UNL     1       2.944   3.614  19.319  0.00  0.00    +0.000 A 
ATOM      2  C   UNL     1       2.875   2.528  20.178  0.00  0.00    +0.000 A 
ATOM      3  N   UNL     1       2.398   2.855  21.409  0.00  0.00    +0.000 NA
ATOM      4  C   UNL     1       2.079   4.118  21.302  0.00  0.00    +0.000 A 
ATOM      5  N   UNL     1       2.362   4.653  20.061  0.00  0.00    +0.000 N 
ENDROOT
BRANCH   5   6
ATOM      6  C   UNL     1       2.093   6.016  19.717  0.00  0.00    +0.000 A 
ATOM      7  C   UNL     1       2.355   6.537  18.448  0.00  0.00    +0.000 A 
ATOM      8  C   UNL     1       2.163   7.907  18.195  0.00  0.00    +0.000 A 
ATOM      9  C   UNL     1       1.713   8.785  19.195  0.00  0.00    +0.000 A 
ATOM     10  C   UNL     1       1.400   8.241  20.444  0.00  0.00    +0.000 A 
ATOM     11  C   UNL     1       1.591   6.879  20.706  0.00  0.00    +0.000 A 
BRANCH   9  12
ATOM     12  C   UNL     1       1.648  10.227  18.954  0.00  0.00    +0.000 A 
ATOM     13  C   UNL     1       2.314  11.080  18.094  0.00  0.00    +0.000 A 
ATOM     14  C   UNL     1       1.943  12.403  18.446  0.00  0.00    +0.000 A 
ATOM     15  C   UNL     1       2.305  13.692  18.021  0.00  0.00    +0.000 A 
ATOM     16  C   UNL     1       1.731  14.799  18.662  0.00  0.00    +0.000 A 
ATOM     17  C   UNL     1       0.797  14.632  19.688  0.00  0.00    +0.000 A 
ATOM     18  C   UNL     1       0.410  13.356  20.114  0.00  0.00    +0.000 A 
ATOM     19  C   UNL     1       1.020  12.273  19.472  0.00  0.00    +0.000 A 
ATOM     20  O   UNL     1       0.825  10.958  19.774  0.00  0.00    +0.000 OA
ENDBRANCH   9  12
ENDBRANCH   5   6
BRANCH   1  22
ATOM     21  N   UNL     1       4.479   4.059  17.389  0.00  0.00    +0.000 N 
ATOM     22  C   UNL     1       3.219   3.651  17.899  0.00  0.00    +0.000 C 
ATOM     23  O   UNL     1       2.302   3.329  17.149  0.00  0.00    +0.000 OA
BRANCH  21  24
ATOM     24  C   UNL     1       4.697   4.290  15.927  0.00  0.00    +0.000 C 
BRANCH  24  25
ATOM     25  C   UNL     1       5.837   3.502  15.274  0.00  0.00    +0.000 C 
BRANCH  25  27
ATOM     26  C   UNL     1       7.267   5.206  14.197  0.00  0.00    +0.000 C 
ATOM     27  C   UNL     1       6.386   3.981  13.935  0.00  0.00    +0.000 C 
ENDBRANCH  25  27
ENDBRANCH  24  25
ENDBRANCH  21  24
BRANCH  21  28
ATOM     28  C   UNL     1       5.676   4.233  18.233  0.00  0.00    +0.000 C 
BRANCH  28  29
ATOM     29  C   UNL     1       6.327   5.609  18.178  0.00  0.00    +0.000 A 
ATOM     30  C   UNL     1       5.841   6.648  17.367  0.00  0.00    +0.000 A 
ATOM     31  C   UNL     1       6.588   7.815  17.177  0.00  0.00    +0.000 A 
ATOM     32  C   UNL     1       7.813   7.978  17.820  0.00  0.00    +0.000 A 
ATOM     33  C   UNL     1       8.276   6.990  18.685  0.00  0.00    +0.000 A 
ATOM     34  C   UNL     1       7.534   5.819  18.873  0.00  0.00    +0.000 A 
ENDBRANCH  28  29
ENDBRANCH  21  28
ENDBRANCH   1  22
TORSDOF 8
ENDMDL
MODEL 7
REMARK VINA RESULT:      -8.5      1.593      3.558
REMARK  Name = 
REMARK  9 active torsions:
REMARK  status: ('A' for Active; 'I' for Inactive)
REMARK    1  A    between atoms: C_1  and  C_2
REMARK    2  A    between atoms: C_2  and  C_3
REMARK    3  A    between atoms: C_3  and  C_4
REMARK    4  A    between atoms: C_4  and  N_5
REMARK    5  A    between atoms: N_5  and  C_6
REMARK    6  A    between atoms: C_6  and  C_7
REMARK    7  A    between atoms: C_13  and  C_15
REMARK    8  A    between atoms: N_19  and  C_20
REMARK    9  A    between atoms: C_23  and  C_24
REMARK                            x       y       z     vdW  Elec       q    Type
REMARK                         _______ _______ _______ _____ _____    ______ ____
ROOT
ATOM      1  C   UNL     1       2.744   3.374  19.019  0.00  0.00    +0.000 A 
ATOM      2  C   UNL     1       2.501   2.203  19.720  0.00  0.00    +0.000 A 
ATOM      3  N   UNL     1       1.980   2.423  20.957  0.00  0.00    +0.000 NA
ATOM      4  C   UNL     1       1.806   3.717  21.003  0.00  0.00    +0.000 A 
ATOM      5  N   UNL     1       2.227   4.370  19.861  0.00  0.00    +0.000 N 
ENDROOT
BRANCH   5   6
ATOM      6  C   UNL     1       2.129   5.788  19.690  0.00  0.00    +0.000 A 
ATOM      7  C   UNL     1       1.786   6.648  20.736  0.00  0.00    +0.000 A 
ATOM      8  C   UNL     1       1.608   8.021  20.488  0.00  0.00    +0.000 A 
ATOM      9  C   UNL     1       1.762   8.565  19.202  0.00  0.00    +0.000 A 
ATOM     10  C   UNL     1       2.162   7.702  18.176  0.00  0.00    +0.000 A 
ATOM     11  C   UNL     1       2.338   6.334  18.412  0.00  0.00    +0.000 A 
BRANCH   9  12
ATOM     12  C   UNL     1       1.442   9.967  18.936  0.00  0.00    +0.000 A 
ATOM     13  C   UNL     1       2.141  11.011  18.360  0.00  0.00    +0.000 A 
ATOM     14  C   UNL     1       1.365  12.184  18.539  0.00  0.00    +0.000 A 
ATOM     15  C   UNL     1       1.532  13.550  18.254  0.00  0.00    +0.000 A 
ATOM     16  C   UNL     1       0.524  14.447  18.634  0.00  0.00    +0.000 A 
ATOM     17  C   UNL     1      -0.641  13.995  19.261  0.00  0.00    +0.000 A 
ATOM     18  C   UNL     1      -0.835  12.636  19.537  0.00  0.00    +0.000 A 
ATOM     19  C   UNL     1       0.202  11.772  19.169  0.00  0.00    +0.000 A 
ATOM     20  O   UNL     1       0.235  10.429  19.398  0.00  0.00    +0.000 OA
ENDBRANCH   9  12
ENDBRANCH   5   6
BRANCH   1  22
ATOM     21  N   UNL     1       4.396   4.049  17.259  0.00  0.00    +0.000 N 
ATOM     22  C   UNL     1       3.117   3.560  17.633  0.00  0.00    +0.000 C 
ATOM     23  O   UNL     1       2.265   3.292  16.790  0.00  0.00    +0.000 OA
BRANCH  21  24
ATOM     24  C   UNL     1       4.708   4.430  15.847  0.00  0.00    +0.000 C 
BRANCH  24  25
ATOM     25  C   UNL     1       5.844   3.659  15.167  0.00  0.00    +0.000 C 
BRANCH  25  27
ATOM     26  C   UNL     1       6.268   3.627  12.732  0.00  0.00    +0.000 C 
ATOM     27  C   UNL     1       6.619   4.337  14.043  0.00  0.00    +0.000 C 
ENDBRANCH  25  27
ENDBRANCH  24  25
ENDBRANCH  21  24
BRANCH  21  28
ATOM     28  C   UNL     1       5.524   4.168  18.202  0.00  0.00    +0.000 C 
BRANCH  28  29
ATOM     29  C   UNL     1       6.246   5.509  18.200  0.00  0.00    +0.000 A 
ATOM     30  C   UNL     1       5.835   6.592  17.405  0.00  0.00    +0.000 A 
ATOM     31  C   UNL     1       6.645   7.724  17.266  0.00  0.00    +0.000 A 
ATOM     32  C   UNL     1       7.859   7.806  17.942  0.00  0.00    +0.000 A 
ATOM     33  C   UNL     1       8.249   6.773  18.791  0.00  0.00    +0.000 A 
ATOM     34  C   UNL     1       7.443   5.638  18.929  0.00  0.00    +0.000 A 
ENDBRANCH  28  29
ENDBRANCH  21  28
ENDBRANCH   1  22
TORSDOF 8
ENDMDL
MODEL 8
REMARK VINA RESULT:      -8.4      3.303      9.255
REMARK  Name = 
REMARK  9 active torsions:
REMARK  status: ('A' for Active; 'I' for Inactive)
REMARK    1  A    between atoms: C_1  and  C_2
REMARK    2  A    between atoms: C_2  and  C_3
REMARK    3  A    between atoms: C_3  and  C_4
REMARK    4  A    between atoms: C_4  and  N_5
REMARK    5  A    between atoms: N_5  and  C_6
REMARK    6  A    between atoms: C_6  and  C_7
REMARK    7  A    between atoms: C_13  and  C_15
REMARK    8  A    between atoms: N_19  and  C_20
REMARK    9  A    between atoms: C_23  and  C_24
REMARK                            x       y       z     vdW  Elec       q    Type
REMARK                         _______ _______ _______ _____ _____    ______ ____
ROOT
ATOM      1  C   UNL     1      -0.187  11.083  21.535  0.00  0.00    +0.000 A 
ATOM      2  C   UNL     1      -0.880  11.265  22.723  0.00  0.00    +0.000 A 
ATOM      3  N   UNL     1      -1.084  10.104  23.401  0.00  0.00    +0.000 NA
ATOM      4  C   UNL     1      -0.446   9.207  22.698  0.00  0.00    +0.000 A 
ATOM      5  N   UNL     1       0.142   9.720  21.558  0.00  0.00    +0.000 N 
ENDROOT
BRANCH   5   6
ATOM      6  C   UNL     1       0.896   8.920  20.640  0.00  0.00    +0.000 A 
ATOM      7  C   UNL     1       1.428   7.676  20.989  0.00  0.00    +0.000 A 
ATOM      8  C   UNL     1       2.243   6.979  20.080  0.00  0.00    +0.000 A 
ATOM      9  C   UNL     1       2.550   7.502  18.813  0.00  0.00    +0.000 A 
ATOM     10  C   UNL     1       1.965   8.721  18.455  0.00  0.00    +0.000 A 
ATOM     11  C   UNL     1       1.155   9.424  19.354  0.00  0.00    +0.000 A 
BRANCH   9  12
ATOM     12  C   UNL     1       3.506   6.829  17.934  0.00  0.00    +0.000 A 
ATOM     13  C   UNL     1       4.336   7.265  16.918  0.00  0.00    +0.000 A 
ATOM     14  C   UNL     1       4.904   6.112  16.318  0.00  0.00    +0.000 A 
ATOM     15  C   UNL     1       5.752   5.866  15.225  0.00  0.00    +0.000 A 
ATOM     16  C   UNL     1       6.069   4.539  14.903  0.00  0.00    +0.000 A 
ATOM     17  C   UNL     1       5.576   3.477  15.665  0.00  0.00    +0.000 A 
ATOM     18  C   UNL     1       4.744   3.702  16.768  0.00  0.00    +0.000 A 
ATOM     19  C   UNL     1       4.425   5.035  17.047  0.00  0.00    +0.000 A 
ATOM     20  O   UNL     1       3.592   5.463  18.036  0.00  0.00    +0.000 OA
ENDBRANCH   9  12
ENDBRANCH   5   6
BRANCH   1  22
ATOM     21  N   UNL     1      -0.392  12.660  19.599  0.00  0.00    +0.000 N 
ATOM     22  C   UNL     1       0.375  12.066  20.635  0.00  0.00    +0.000 C 
ATOM     23  O   UNL     1       1.558  12.352  20.797  0.00  0.00    +0.000 OA
BRANCH  21  24
ATOM     24  C   UNL     1       0.239  13.519  18.549  0.00  0.00    +0.000 C 
BRANCH  24  25
ATOM     25  C   UNL     1      -0.017  15.026  18.656  0.00  0.00    +0.000 C 
BRANCH  25  27
ATOM     26  C   UNL     1       2.279  15.552  19.407  0.00  0.00    +0.000 C 
ATOM     27  C   UNL     1       0.796  15.837  19.660  0.00  0.00    +0.000 C 
ENDBRANCH  25  27
ENDBRANCH  24  25
ENDBRANCH  21  24
BRANCH  21  28
ATOM     28  C   UNL     1      -1.858  12.532  19.502  0.00  0.00    +0.000 C 
BRANCH  28  29
ATOM     29  C   UNL     1      -2.365  11.547  18.456  0.00  0.00    +0.000 A 
ATOM     30  C   UNL     1      -1.565  10.519  17.929  0.00  0.00    +0.000 A 
ATOM     31  C   UNL     1      -1.991   9.781  16.820  0.00  0.00    +0.000 A 
ATOM     32  C   UNL     1      -3.233  10.032  16.243  0.00  0.00    +0.000 A 
ATOM     33  C   UNL     1      -4.070  10.998  16.797  0.00  0.00    +0.000 A 
ATOM     34  C   UNL     1      -3.645  11.742  17.902  0.00  0.00    +0.000 A 
ENDBRANCH  28  29
ENDBRANCH  21  28
ENDBRANCH   1  22
TORSDOF 8
ENDMDL
MODEL 9
REMARK VINA RESULT:      -8.4      0.606      1.058
REMARK  Name = 
REMARK  9 active torsions:
REMARK  status: ('A' for Active; 'I' for Inactive)
REMARK    1  A    between atoms: C_1  and  C_2
REMARK    2  A    between atoms: C_2  and  C_3
REMARK    3  A    between atoms: C_3  and  C_4
REMARK    4  A    between atoms: C_4  and  N_5
REMARK    5  A    between atoms: N_5  and  C_6
REMARK    6  A    between atoms: C_6  and  C_7
REMARK    7  A    between atoms: C_13  and  C_15
REMARK    8  A    between atoms: N_19  and  C_20
REMARK    9  A    between atoms: C_23  and  C_24
REMARK                            x       y       z     vdW  Elec       q    Type
REMARK                         _______ _______ _______ _____ _____    ______ ____
ROOT
ATOM      1  C   UNL     1       4.327   4.349  18.485  0.00  0.00    +0.000 A 
ATOM      2  C   UNL     1       4.170   3.005  18.181  0.00  0.00    +0.000 A 
ATOM      3  N   UNL     1       2.866   2.627  18.103  0.00  0.00    +0.000 NA
ATOM      4  C   UNL     1       2.202   3.741  18.264  0.00  0.00    +0.000 A 
ATOM      5  N   UNL     1       3.012   4.837  18.484  0.00  0.00    +0.000 N 
ENDROOT
BRANCH   5   6
ATOM      6  C   UNL     1       2.501   6.160  18.682  0.00  0.00    +0.000 A 
ATOM      7  C   UNL     1       2.383   7.083  17.640  0.00  0.00    +0.000 A 
ATOM      8  C   UNL     1       1.968   8.400  17.910  0.00  0.00    +0.000 A 
ATOM      9  C   UNL     1       1.667   8.826  19.214  0.00  0.00    +0.000 A 
ATOM     10  C   UNL     1       1.735   7.876  20.239  0.00  0.00    +0.000 A 
ATOM     11  C   UNL     1       2.150   6.565  19.981  0.00  0.00    +0.000 A 
BRANCH   9  12
ATOM     12  C   UNL     1       1.368  10.230  19.495  0.00  0.00    +0.000 A 
ATOM     13  C   UNL     1       0.537  10.864  20.400  0.00  0.00    +0.000 A 
ATOM     14  C   UNL     1       0.544  12.245  20.077  0.00  0.00    +0.000 A 
ATOM     15  C   UNL     1      -0.122  13.388  20.551  0.00  0.00    +0.000 A 
ATOM     16  C   UNL     1       0.124  14.619  19.926  0.00  0.00    +0.000 A 
ATOM     17  C   UNL     1       1.031  14.720  18.869  0.00  0.00    +0.000 A 
ATOM     18  C   UNL     1       1.718  13.596  18.393  0.00  0.00    +0.000 A 
ATOM     19  C   UNL     1       1.430  12.379  19.020  0.00  0.00    +0.000 A 
ATOM     20  O   UNL     1       1.945  11.166  18.674  0.00  0.00    +0.000 OA
ENDBRANCH   9  12
ENDBRANCH   5   6
BRANCH   1  22
ATOM     21  N   UNL     1       6.045   5.720  17.282  0.00  0.00    +0.000 N 
ATOM     22  C   UNL     1       5.524   5.162  18.479  0.00  0.00    +0.000 C 
ATOM     23  O   UNL     1       6.081   5.335  19.559  0.00  0.00    +0.000 OA
BRANCH  21  24
ATOM     24  C   UNL     1       7.384   6.387  17.245  0.00  0.00    +0.000 C 
BRANCH  24  25
ATOM     25  C   UNL     1       7.395   7.905  17.450  0.00  0.00    +0.000 C 
BRANCH  25  27
ATOM     26  C   UNL     1       8.448  10.021  18.174  0.00  0.00    +0.000 C 
ATOM     27  C   UNL     1       8.423   8.507  18.402  0.00  0.00    +0.000 C 
ENDBRANCH  25  27
ENDBRANCH  24  25
ENDBRANCH  21  24
BRANCH  21  28
ATOM     28  C   UNL     1       5.303   5.740  16.008  0.00  0.00    +0.000 C 
BRANCH  28  29
ATOM     29  C   UNL     1       5.989   5.051  14.835  0.00  0.00    +0.000 A 
ATOM     30  C   UNL     1       7.214   5.490  14.306  0.00  0.00    +0.000 A 
ATOM     31  C   UNL     1       7.698   4.972  13.100  0.00  0.00    +0.000 A 
ATOM     32  C   UNL     1       6.986   3.985  12.423  0.00  0.00    +0.000 A 
ATOM     33  C   UNL     1       5.807   3.485  12.970  0.00  0.00    +0.000 A 
ATOM     34  C   UNL     1       5.317   4.005  14.173  0.00  0.00    +0.000 A 
ENDBRANCH  28  29
ENDBRANCH  21  28
ENDBRANCH   1  22
TORSDOF 8
ENDMDL
