MODEL 1
REMARK VINA RESULT:      -7.4      0.000      0.000
REMARK  Name = 
REMARK  12 active torsions:
REMARK  status: ('A' for Active; 'I' for Inactive)
REMARK    1  A    between atoms: C_1  and  N_2
REMARK    2  A    between atoms: N_12  and  C_13
REMARK    3  A    between atoms: C_15  and  C_16
REMARK    4  A    between atoms: C_16  and  O_17
REMARK    5  A    between atoms: O_17  and  P_18
REMARK    6  A    between atoms: P_18  and  O_20
REMARK    7  A    between atoms: P_18  and  O_21
REMARK    8  A    between atoms: O_21  and  P_22
REMARK    9  A    between atoms: P_22  and  O_24
REMARK   10  A    between atoms: P_22  and  O_25
REMARK   11  A    between atoms: C_26  and  O_27
REMARK   12  A    between atoms: C_28  and  O_29
REMARK                            x       y       z     vdW  Elec       q    Type
REMARK                         _______ _______ _______ _____ _____    ______ ____
ROOT
ATOM      1  C   UNL     1       2.535   5.526  20.277  0.00  0.00    +0.000 C 
ATOM      2  O   UNL     1       3.969   5.302  20.324  0.00  0.00    +0.000 OA
ATOM      3  C   UNL     1       4.255   3.930  19.959  0.00  0.00    +0.000 C 
ATOM      4  C   UNL     1       2.917   3.208  20.041  0.00  0.00    +0.000 C 
ATOM      5  C   UNL     1       1.914   4.283  19.633  0.00  0.00    +0.000 C 
ENDROOT
BRANCH   1  17
ATOM      6  C   UNL     1       4.196   7.329  16.553  0.00  0.00    +0.000 C 
ATOM      7  N   UNL     1       3.580   6.606  17.648  0.00  0.00    +0.000 N 
ATOM      8  C   UNL     1       2.714   7.285  18.425  0.00  0.00    +0.000 A 
ATOM      9  N   UNL     1       2.263   8.505  18.194  0.00  0.00    +0.000 NA
ATOM     10  C   UNL     1       1.567   8.852  19.311  0.00  0.00    +0.000 A 
ATOM     11  C   UNL     1       0.984  10.062  19.717  0.00  0.00    +0.000 A 
ATOM     12  N   UNL     1       1.075  11.235  18.979  0.00  0.00    +0.000 N 
ATOM     13  N   UNL     1       0.297  10.089  20.884  0.00  0.00    +0.000 NA
ATOM     14  C   UNL     1       0.266   8.961  21.625  0.00  0.00    +0.000 A 
ATOM     15  N   UNL     1       0.843   7.767  21.371  0.00  0.00    +0.000 NA
ATOM     16  C   UNL     1       1.478   7.786  20.194  0.00  0.00    +0.000 A 
ATOM     17  N   UNL     1       2.233   6.785  19.617  0.00  0.00    +0.000 N 
ATOM     18  H   UNL     1       4.254   5.993  18.142  0.00  0.00    +0.000 HD
ATOM     19  H   UNL     1       1.311  11.093  18.004  0.00  0.00    +0.000 HD
ATOM     20  H   UNL     1       0.359  11.909  19.211  0.00  0.00    +0.000 HD
ENDBRANCH   1  17
BRANCH   4  21
ATOM     21  O   UNL     1       2.627   2.815  21.397  0.00  0.00    +0.000 OA
ATOM     22  H   UNL     1       2.926   1.896  21.533  0.00  0.00    +0.000 HD
ENDBRANCH   4  21
BRANCH   5  23
ATOM     23  O   UNL     1       0.617   3.957  20.130  0.00  0.00    +0.000 OA
ATOM     24  H   UNL     1       0.308   3.184  19.613  0.00  0.00    +0.000 HD
ENDBRANCH   5  23
BRANCH   3  25
ATOM     25  C   UNL     1       4.895   3.857  18.569  0.00  0.00    +0.000 C 
BRANCH  25  26
ATOM     26  O   UNL     1       6.259   4.265  18.651  0.00  0.00    +0.000 OA
BRANCH  26  27
ATOM     27  P   UNL     1       6.873   4.867  17.150  0.00  0.00    +0.000 P 
ATOM     28  O   UNL     1       7.179   6.217  17.772  0.00  0.00    +0.000 OA
BRANCH  27  29
ATOM     29  O   UNL     1       8.243   4.012  17.387  0.00  0.00    +0.000 OA
ATOM     30  H   UNL     1       8.934   4.651  17.649  0.00  0.00    +0.000 HD
ENDBRANCH  27  29
BRANCH  27  31
ATOM     31  O   UNL     1       7.487   5.468  15.648  0.00  0.00    +0.000 OA
BRANCH  31  32
ATOM     32  P   UNL     1       6.935   4.461  14.354  0.00  0.00    +0.000 P 
ATOM     33  O   UNL     1       5.501   4.947  14.519  0.00  0.00    +0.000 OA
BRANCH  32  34
ATOM     34  O   UNL     1       7.616   5.471  13.279  0.00  0.00    +0.000 OA
ATOM     35  H   UNL     1       6.903   6.021  12.893  0.00  0.00    +0.000 HD
ENDBRANCH  32  34
BRANCH  32  36
ATOM     36  O   UNL     1       6.384   3.455  13.060  0.00  0.00    +0.000 OA
ATOM     37  H   UNL     1       5.596   3.893  12.679  0.00  0.00    +0.000 HD
ENDBRANCH  32  36
ENDBRANCH  31  32
ENDBRANCH  27  31
ENDBRANCH  26  27
ENDBRANCH  25  26
ENDBRANCH   3  25
TORSDOF 11
ENDMDL
MODEL 2
REMARK VINA RESULT:      -7.1      7.514     10.909
REMARK  Name = 
REMARK  12 active torsions:
REMARK  status: ('A' for Active; 'I' for Inactive)
REMARK    1  A    between atoms: C_1  and  N_2
REMARK    2  A    between atoms: N_12  and  C_13
REMARK    3  A    between atoms: C_15  and  C_16
REMARK    4  A    between atoms: C_16  and  O_17
REMARK    5  A    between atoms: O_17  and  P_18
REMARK    6  A    between atoms: P_18  and  O_20
REMARK    7  A    between atoms: P_18  and  O_21
REMARK    8  A    between atoms: O_21  and  P_22
REMARK    9  A    between atoms: P_22  and  O_24
REMARK   10  A    between atoms: P_22  and  O_25
REMARK   11  A    between atoms: C_26  and  O_27
REMARK   12  A    between atoms: C_28  and  O_29
REMARK                            x       y       z     vdW  Elec       q    Type
REMARK                         _______ _______ _______ _____ _____    ______ ____
ROOT
ATOM      1  C   UNL     1       0.336  10.971  19.100  0.00  0.00    +0.000 C 
ATOM      2  O   UNL     1       0.410  12.024  20.098  0.00  0.00    +0.000 OA
ATOM      3  C   UNL     1      -0.775  12.851  20.014  0.00  0.00    +0.000 C 
ATOM      4  C   UNL     1      -1.419  12.494  18.680  0.00  0.00    +0.000 C 
ATOM      5  C   UNL     1      -1.077  11.016  18.513  0.00  0.00    +0.000 C 
ENDROOT
BRANCH   1  17
ATOM      6  C   UNL     1       0.022   9.426  23.270  0.00  0.00    +0.000 C 
ATOM      7  N   UNL     1      -0.070   9.924  21.912  0.00  0.00    +0.000 N 
ATOM      8  C   UNL     1       0.558   9.217  20.952  0.00  0.00    +0.000 A 
ATOM      9  N   UNL     1       1.126   8.035  21.111  0.00  0.00    +0.000 NA
ATOM     10  C   UNL     1       1.782   7.788  19.944  0.00  0.00    +0.000 A 
ATOM     11  C   UNL     1       2.672   6.773  19.564  0.00  0.00    +0.000 A 
ATOM     12  N   UNL     1       3.105   5.778  20.430  0.00  0.00    +0.000 N 
ATOM     13  N   UNL     1       3.132   6.761  18.290  0.00  0.00    +0.000 NA
ATOM     14  C   UNL     1       2.755   7.767  17.473  0.00  0.00    +0.000 A 
ATOM     15  N   UNL     1       1.964   8.826  17.746  0.00  0.00    +0.000 NA
ATOM     16  C   UNL     1       1.511   8.771  19.004  0.00  0.00    +0.000 A 
ATOM     17  N   UNL     1       0.732   9.694  19.670  0.00  0.00    +0.000 N 
ATOM     18  H   UNL     1       0.034  10.954  21.863  0.00  0.00    +0.000 HD
ATOM     19  H   UNL     1       2.511   5.647  21.240  0.00  0.00    +0.000 HD
ATOM     20  H   UNL     1       3.461   4.960  19.953  0.00  0.00    +0.000 HD
ENDBRANCH   1  17
BRANCH   4  21
ATOM     21  O   UNL     1      -0.802  13.223  17.602  0.00  0.00    +0.000 OA
ATOM     22  H   UNL     1      -1.317  13.080  16.784  0.00  0.00    +0.000 HD
ENDBRANCH   4  21
BRANCH   5  23
ATOM     23  O   UNL     1      -1.147  10.651  17.135  0.00  0.00    +0.000 OA
ATOM     24  H   UNL     1      -0.340  11.011  16.711  0.00  0.00    +0.000 HD
ENDBRANCH   5  23
BRANCH   3  25
ATOM     25  C   UNL     1      -1.698  12.605  21.213  0.00  0.00    +0.000 C 
BRANCH  25  26
ATOM     26  O   UNL     1      -3.050  12.851  20.831  0.00  0.00    +0.000 OA
BRANCH  26  27
ATOM     27  P   UNL     1      -4.044  13.346  22.158  0.00  0.00    +0.000 P 
ATOM     28  O   UNL     1      -5.126  12.356  21.767  0.00  0.00    +0.000 OA
BRANCH  27  29
ATOM     29  O   UNL     1      -3.087  12.495  23.170  0.00  0.00    +0.000 OA
ATOM     30  H   UNL     1      -3.429  12.640  24.073  0.00  0.00    +0.000 HD
ENDBRANCH  27  29
BRANCH  27  31
ATOM     31  O   UNL     1      -5.036  13.841  23.485  0.00  0.00    +0.000 OA
BRANCH  31  32
ATOM     32  P   UNL     1      -6.306  12.689  23.718  0.00  0.00    +0.000 P 
ATOM     33  O   UNL     1      -5.497  11.933  24.764  0.00  0.00    +0.000 OA
BRANCH  32  34
ATOM     34  O   UNL     1      -7.159  13.797  24.545  0.00  0.00    +0.000 OA
ATOM     35  H   UNL     1      -8.038  13.875  24.121  0.00  0.00    +0.000 HD
ENDBRANCH  32  34
BRANCH  32  36
ATOM     36  O   UNL     1      -7.575  11.538  23.951  0.00  0.00    +0.000 OA
ATOM     37  H   UNL     1      -7.837  11.225  23.061  0.00  0.00    +0.000 HD
ENDBRANCH  32  36
ENDBRANCH  31  32
ENDBRANCH  27  31
ENDBRANCH  26  27
ENDBRANCH  25  26
ENDBRANCH   3  25
TORSDOF 11
ENDMDL
MODEL 3
REMARK VINA RESULT:      -7.0      4.847      7.656
REMARK  Name = 
REMARK  12 active torsions:
REMARK  status: ('A' for Active; 'I' for Inactive)
REMARK    1  A    between atoms: C_1  and  N_2
REMARK    2  A    between atoms: N_12  and  C_13
REMARK    3  A    between atoms: C_15  and  C_16
REMARK    4  A    between atoms: C_16  and  O_17
REMARK    5  A    between atoms: O_17  and  P_18
REMARK    6  A    between atoms: P_18  and  O_20
REMARK    7  A    between atoms: P_18  and  O_21
REMARK    8  A    between atoms: O_21  and  P_22
REMARK    9  A    between atoms: P_22  and  O_24
REMARK   10  A    between atoms: P_22  and  O_25
REMARK   11  A    between atoms: C_26  and  O_27
REMARK   12  A    between atoms: C_28  and  O_29
REMARK                            x       y       z     vdW  Elec       q    Type
REMARK                         _______ _______ _______ _____ _____    ______ ____
ROOT
ATOM      1  C   UNL     1       4.642   4.340  17.344  0.00  0.00    +0.000 C 
ATOM      2  O   UNL     1       3.506   5.203  17.075  0.00  0.00    +0.000 OA
ATOM      3  C   UNL     1       2.852   5.543  18.321  0.00  0.00    +0.000 C 
ATOM      4  C   UNL     1       3.407   4.560  19.345  0.00  0.00    +0.000 C 
ATOM      5  C   UNL     1       4.835   4.325  18.863  0.00  0.00    +0.000 C 
ENDROOT
BRANCH   1  17
ATOM      6  C   UNL     1       7.801   7.353  18.254  0.00  0.00    +0.000 C 
ATOM      7  N   UNL     1       6.847   6.271  18.106  0.00  0.00    +0.000 N 
ATOM      8  C   UNL     1       6.802   5.647  16.914  0.00  0.00    +0.000 A 
ATOM      9  N   UNL     1       7.645   5.832  15.914  0.00  0.00    +0.000 NA
ATOM     10  C   UNL     1       7.120   5.141  14.864  0.00  0.00    +0.000 A 
ATOM     11  C   UNL     1       7.481   5.074  13.510  0.00  0.00    +0.000 A 
ATOM     12  N   UNL     1       8.516   5.817  12.961  0.00  0.00    +0.000 N 
ATOM     13  N   UNL     1       6.786   4.241  12.698  0.00  0.00    +0.000 NA
ATOM     14  C   UNL     1       5.742   3.569  13.226  0.00  0.00    +0.000 A 
ATOM     15  N   UNL     1       5.263   3.607  14.488  0.00  0.00    +0.000 NA
ATOM     16  C   UNL     1       6.004   4.416  15.254  0.00  0.00    +0.000 A 
ATOM     17  N   UNL     1       5.800   4.761  16.574  0.00  0.00    +0.000 N 
ATOM     18  H   UNL     1       5.932   6.492  18.542  0.00  0.00    +0.000 HD
ATOM     19  H   UNL     1       9.182   6.165  13.641  0.00  0.00    +0.000 HD
ATOM     20  H   UNL     1       8.866   5.436  12.093  0.00  0.00    +0.000 HD
ENDBRANCH   1  17
BRANCH   4  21
ATOM     21  O   UNL     1       2.700   3.306  19.287  0.00  0.00    +0.000 OA
ATOM     22  H   UNL     1       2.522   3.083  18.354  0.00  0.00    +0.000 HD
ENDBRANCH   4  21
BRANCH   5  23
ATOM     23  O   UNL     1       5.326   3.086  19.375  0.00  0.00    +0.000 OA
ATOM     24  H   UNL     1       5.094   2.402  18.714  0.00  0.00    +0.000 HD
ENDBRANCH   5  23
BRANCH   3  25
ATOM     25  C   UNL     1       3.112   7.008  18.691  0.00  0.00    +0.000 C 
BRANCH  25  26
ATOM     26  O   UNL     1       2.713   7.849  17.610  0.00  0.00    +0.000 OA
BRANCH  26  27
ATOM     27  P   UNL     1       1.434   8.931  18.036  0.00  0.00    +0.000 P 
ATOM     28  O   UNL     1       1.757   8.794  19.513  0.00  0.00    +0.000 OA
BRANCH  27  29
ATOM     29  O   UNL     1       2.357  10.187  17.551  0.00  0.00    +0.000 OA
ATOM     30  H   UNL     1       1.784  10.770  17.017  0.00  0.00    +0.000 HD
ENDBRANCH  27  29
BRANCH  27  31
ATOM     31  O   UNL     1       0.154  10.015  18.462  0.00  0.00    +0.000 OA
BRANCH  31  32
ATOM     32  P   UNL     1       0.609  10.924  19.862  0.00  0.00    +0.000 P 
ATOM     33  O   UNL     1       0.751  12.204  19.049  0.00  0.00    +0.000 OA
BRANCH  32  34
ATOM     34  O   UNL     1      -0.933  10.903  20.375  0.00  0.00    +0.000 OA
ATOM     35  H   UNL     1      -0.978  11.421  21.206  0.00  0.00    +0.000 HD
ENDBRANCH  32  34
BRANCH  32  36
ATOM     36  O   UNL     1       1.063  11.831  21.263  0.00  0.00    +0.000 OA
ATOM     37  H   UNL     1       2.041  11.827  21.295  0.00  0.00    +0.000 HD
ENDBRANCH  32  36
ENDBRANCH  31  32
ENDBRANCH  27  31
ENDBRANCH  26  27
ENDBRANCH  25  26
ENDBRANCH   3  25
TORSDOF 11
ENDMDL
MODEL 4
REMARK VINA RESULT:      -7.0      4.720      7.685
REMARK  Name = 
REMARK  12 active torsions:
REMARK  status: ('A' for Active; 'I' for Inactive)
REMARK    1  A    between atoms: C_1  and  N_2
REMARK    2  A    between atoms: N_12  and  C_13
REMARK    3  A    between atoms: C_15  and  C_16
REMARK    4  A    between atoms: C_16  and  O_17
REMARK    5  A    between atoms: O_17  and  P_18
REMARK    6  A    between atoms: P_18  and  O_20
REMARK    7  A    between atoms: P_18  and  O_21
REMARK    8  A    between atoms: O_21  and  P_22
REMARK    9  A    between atoms: P_22  and  O_24
REMARK   10  A    between atoms: P_22  and  O_25
REMARK   11  A    between atoms: C_26  and  O_27
REMARK   12  A    between atoms: C_28  and  O_29
REMARK                            x       y       z     vdW  Elec       q    Type
REMARK                         _______ _______ _______ _____ _____    ______ ____
ROOT
ATOM      1  C   UNL     1       7.334   5.349  16.989  0.00  0.00    +0.000 C 
ATOM      2  O   UNL     1       7.334   4.509  18.175  0.00  0.00    +0.000 OA
ATOM      3  C   UNL     1       7.042   5.319  19.339  0.00  0.00    +0.000 C 
ATOM      4  C   UNL     1       7.222   6.760  18.879  0.00  0.00    +0.000 C 
ATOM      5  C   UNL     1       6.792   6.716  17.416  0.00  0.00    +0.000 C 
ENDROOT
BRANCH   1  17
ATOM      6  C   UNL     1       4.099   2.281  17.066  0.00  0.00    +0.000 C 
ATOM      7  N   UNL     1       5.021   3.398  17.123  0.00  0.00    +0.000 N 
ATOM      8  C   UNL     1       5.565   3.808  15.961  0.00  0.00    +0.000 A 
ATOM      9  N   UNL     1       5.225   3.384  14.757  0.00  0.00    +0.000 NA
ATOM     10  C   UNL     1       6.143   3.925  13.909  0.00  0.00    +0.000 A 
ATOM     11  C   UNL     1       6.390   3.727  12.543  0.00  0.00    +0.000 A 
ATOM     12  N   UNL     1       5.687   2.815  11.767  0.00  0.00    +0.000 N 
ATOM     13  N   UNL     1       7.360   4.463  11.949  0.00  0.00    +0.000 NA
ATOM     14  C   UNL     1       8.080   5.302  12.723  0.00  0.00    +0.000 A 
ATOM     15  N   UNL     1       7.978   5.523  14.051  0.00  0.00    +0.000 NA
ATOM     16  C   UNL     1       6.986   4.799  14.580  0.00  0.00    +0.000 A 
ATOM     17  N   UNL     1       6.613   4.705  15.905  0.00  0.00    +0.000 N 
ATOM     18  H   UNL     1       5.666   3.334  17.932  0.00  0.00    +0.000 HD
ATOM     19  H   UNL     1       4.797   2.535  12.162  0.00  0.00    +0.000 HD
ATOM     20  H   UNL     1       5.737   3.010  10.776  0.00  0.00    +0.000 HD
ENDBRANCH   1  17
BRANCH   4  21
ATOM     21  O   UNL     1       8.609   7.145  18.929  0.00  0.00    +0.000 OA
ATOM     22  H   UNL     1       8.668   8.100  19.122  0.00  0.00    +0.000 HD
ENDBRANCH   4  21
BRANCH   5  23
ATOM     23  O   UNL     1       7.360   7.815  16.705  0.00  0.00    +0.000 OA
ATOM     24  H   UNL     1       7.567   7.486  15.806  0.00  0.00    +0.000 HD
ENDBRANCH   5  23
BRANCH   3  25
ATOM     25  C   UNL     1       5.632   5.027  19.866  0.00  0.00    +0.000 C 
BRANCH  25  26
ATOM     26  O   UNL     1       4.676   5.749  19.093  0.00  0.00    +0.000 OA
BRANCH  26  27
ATOM     27  P   UNL     1       3.052   5.218  19.364  0.00  0.00    +0.000 P 
ATOM     28  O   UNL     1       2.654   6.580  19.902  0.00  0.00    +0.000 OA
BRANCH  27  29
ATOM     29  O   UNL     1       2.765   5.334  17.762  0.00  0.00    +0.000 OA
ATOM     30  H   UNL     1       1.871   5.716  17.662  0.00  0.00    +0.000 HD
ENDBRANCH  27  29
BRANCH  27  31
ATOM     31  O   UNL     1       1.429   4.685  19.635  0.00  0.00    +0.000 OA
BRANCH  31  32
ATOM     32  P   UNL     1       1.409   3.520  20.914  0.00  0.00    +0.000 P 
ATOM     33  O   UNL     1       2.220   2.527  20.092  0.00  0.00    +0.000 OA
BRANCH  32  34
ATOM     34  O   UNL     1       2.500   4.402  21.733  0.00  0.00    +0.000 OA
ATOM     35  H   UNL     1       2.013   5.083  22.242  0.00  0.00    +0.000 HD
ENDBRANCH  32  34
BRANCH  32  36
ATOM     36  O   UNL     1       1.388   2.356  22.193  0.00  0.00    +0.000 OA
ATOM     37  H   UNL     1       2.048   2.653  22.853  0.00  0.00    +0.000 HD
ENDBRANCH  32  36
ENDBRANCH  31  32
ENDBRANCH  27  31
ENDBRANCH  26  27
ENDBRANCH  25  26
ENDBRANCH   3  25
TORSDOF 11
ENDMDL
MODEL 5
REMARK VINA RESULT:      -7.0      7.476     10.804
REMARK  Name = 
REMARK  12 active torsions:
REMARK  status: ('A' for Active; 'I' for Inactive)
REMARK    1  A    between atoms: C_1  and  N_2
REMARK    2  A    between atoms: N_12  and  C_13
REMARK    3  A    between atoms: C_15  and  C_16
REMARK    4  A    between atoms: C_16  and  O_17
REMARK    5  A    between atoms: O_17  and  P_18
REMARK    6  A    between atoms: P_18  and  O_20
REMARK    7  A    between atoms: P_18  and  O_21
REMARK    8  A    between atoms: O_21  and  P_22
REMARK    9  A    between atoms: P_22  and  O_24
REMARK   10  A    between atoms: P_22  and  O_25
REMARK   11  A    between atoms: C_26  and  O_27
REMARK   12  A    between atoms: C_28  and  O_29
REMARK                            x       y       z     vdW  Elec       q    Type
REMARK                         _______ _______ _______ _____ _____    ______ ____
ROOT
ATOM      1  C   UNL     1       0.474  11.012  18.971  0.00  0.00    +0.000 C 
ATOM      2  O   UNL     1       0.822  12.093  19.876  0.00  0.00    +0.000 OA
ATOM      3  C   UNL     1      -0.276  13.034  19.948  0.00  0.00    +0.000 C 
ATOM      4  C   UNL     1      -1.176  12.689  18.769  0.00  0.00    +0.000 C 
ATOM      5  C   UNL     1      -1.010  11.178  18.634  0.00  0.00    +0.000 C 
ENDROOT
BRANCH   1  17
ATOM      6  C   UNL     1       0.047   9.439  23.121  0.00  0.00    +0.000 C 
ATOM      7  N   UNL     1      -0.008   9.948  21.765  0.00  0.00    +0.000 N 
ATOM      8  C   UNL     1       0.634   9.242  20.815  0.00  0.00    +0.000 A 
ATOM      9  N   UNL     1       1.185   8.052  20.977  0.00  0.00    +0.000 NA
ATOM     10  C   UNL     1       1.865   7.807  19.824  0.00  0.00    +0.000 A 
ATOM     11  C   UNL     1       2.752   6.785  19.456  0.00  0.00    +0.000 A 
ATOM     12  N   UNL     1       3.154   5.778  20.324  0.00  0.00    +0.000 N 
ATOM     13  N   UNL     1       3.241   6.778  18.193  0.00  0.00    +0.000 NA
ATOM     14  C   UNL     1       2.894   7.794  17.375  0.00  0.00    +0.000 A 
ATOM     15  N   UNL     1       2.108   8.860  17.638  0.00  0.00    +0.000 NA
ATOM     16  C   UNL     1       1.627   8.800  18.885  0.00  0.00    +0.000 A 
ATOM     17  N   UNL     1       0.843   9.727  19.540  0.00  0.00    +0.000 N 
ATOM     18  H   UNL     1       0.108  10.977  21.727  0.00  0.00    +0.000 HD
ATOM     19  H   UNL     1       2.541   5.648  21.119  0.00  0.00    +0.000 HD
ATOM     20  H   UNL     1       3.512   4.961  19.849  0.00  0.00    +0.000 HD
ENDBRANCH   1  17
BRANCH   4  21
ATOM     21  O   UNL     1      -0.695  13.304  17.559  0.00  0.00    +0.000 OA
ATOM     22  H   UNL     1      -1.394  13.879  17.193  0.00  0.00    +0.000 HD
ENDBRANCH   4  21
BRANCH   5  23
ATOM     23  O   UNL     1      -1.357  10.764  17.314  0.00  0.00    +0.000 OA
ATOM     24  H   UNL     1      -2.329  10.637  17.309  0.00  0.00    +0.000 HD
ENDBRANCH   5  23
BRANCH   3  25
ATOM     25  C   UNL     1      -0.990  12.935  21.301  0.00  0.00    +0.000 C 
BRANCH  25  26
ATOM     26  O   UNL     1      -2.165  13.745  21.278  0.00  0.00    +0.000 OA
BRANCH  26  27
ATOM     27  P   UNL     1      -3.553  12.934  21.917  0.00  0.00    +0.000 P 
ATOM     28  O   UNL     1      -2.718  12.275  23.000  0.00  0.00    +0.000 OA
BRANCH  27  29
ATOM     29  O   UNL     1      -4.036  14.335  22.599  0.00  0.00    +0.000 OA
ATOM     30  H   UNL     1      -3.896  15.037  21.934  0.00  0.00    +0.000 HD
ENDBRANCH  27  29
BRANCH  27  31
ATOM     31  O   UNL     1      -4.941  12.123  22.556  0.00  0.00    +0.000 OA
BRANCH  31  32
ATOM     32  P   UNL     1      -5.856  13.225  23.528  0.00  0.00    +0.000 P 
ATOM     33  O   UNL     1      -7.044  12.274  23.580  0.00  0.00    +0.000 OA
BRANCH  32  34
ATOM     34  O   UNL     1      -4.939  12.847  24.816  0.00  0.00    +0.000 OA
ATOM     35  H   UNL     1      -4.074  12.530  24.485  0.00  0.00    +0.000 HD
ENDBRANCH  32  34
BRANCH  32  36
ATOM     36  O   UNL     1      -6.768  14.326  24.501  0.00  0.00    +0.000 OA
ATOM     37  H   UNL     1      -6.757  15.187  24.035  0.00  0.00    +0.000 HD
ENDBRANCH  32  36
ENDBRANCH  31  32
ENDBRANCH  27  31
ENDBRANCH  26  27
ENDBRANCH  25  26
ENDBRANCH   3  25
TORSDOF 11
ENDMDL
MODEL 6
REMARK VINA RESULT:      -6.9      4.563      7.575
REMARK  Name = 
REMARK  12 active torsions:
REMARK  status: ('A' for Active; 'I' for Inactive)
REMARK    1  A    between atoms: C_1  and  N_2
REMARK    2  A    between atoms: N_12  and  C_13
REMARK    3  A    between atoms: C_15  and  C_16
REMARK    4  A    between atoms: C_16  and  O_17
REMARK    5  A    between atoms: O_17  and  P_18
REMARK    6  A    between atoms: P_18  and  O_20
REMARK    7  A    between atoms: P_18  and  O_21
REMARK    8  A    between atoms: O_21  and  P_22
REMARK    9  A    between atoms: P_22  and  O_24
REMARK   10  A    between atoms: P_22  and  O_25
REMARK   11  A    between atoms: C_26  and  O_27
REMARK   12  A    between atoms: C_28  and  O_29
REMARK                            x       y       z     vdW  Elec       q    Type
REMARK                         _______ _______ _______ _____ _____    ______ ____
ROOT
ATOM      1  C   UNL     1       4.454   3.674  17.633  0.00  0.00    +0.000 C 
ATOM      2  O   UNL     1       3.358   4.604  17.427  0.00  0.00    +0.000 OA
ATOM      3  C   UNL     1       2.663   4.817  18.679  0.00  0.00    +0.000 C 
ATOM      4  C   UNL     1       3.141   3.699  19.596  0.00  0.00    +0.000 C 
ATOM      5  C   UNL     1       4.581   3.470  19.145  0.00  0.00    +0.000 C 
ENDROOT
BRANCH   1  17
ATOM      6  C   UNL     1       7.895   6.056  19.170  0.00  0.00    +0.000 C 
ATOM      7  N   UNL     1       6.837   5.141  18.790  0.00  0.00    +0.000 N 
ATOM      8  C   UNL     1       6.740   4.818  17.486  0.00  0.00    +0.000 A 
ATOM      9  N   UNL     1       7.608   5.142  16.544  0.00  0.00    +0.000 NA
ATOM     10  C   UNL     1       7.026   4.770  15.371  0.00  0.00    +0.000 A 
ATOM     11  C   UNL     1       7.391   4.981  14.033  0.00  0.00    +0.000 A 
ATOM     12  N   UNL     1       8.503   5.722  13.656  0.00  0.00    +0.000 N 
ATOM     13  N   UNL     1       6.622   4.435  13.060  0.00  0.00    +0.000 NA
ATOM     14  C   UNL     1       5.509   3.769  13.434  0.00  0.00    +0.000 A 
ATOM     15  N   UNL     1       5.025   3.562  14.677  0.00  0.00    +0.000 NA
ATOM     16  C   UNL     1       5.837   4.092  15.598  0.00  0.00    +0.000 A 
ATOM     17  N   UNL     1       5.656   4.142  16.965  0.00  0.00    +0.000 N 
ATOM     18  H   UNL     1       5.946   5.347  19.278  0.00  0.00    +0.000 HD
ATOM     19  H   UNL     1       9.194   5.833  14.389  0.00  0.00    +0.000 HD
ATOM     20  H   UNL     1       8.820   5.518  12.718  0.00  0.00    +0.000 HD
ENDBRANCH   1  17
BRANCH   4  21
ATOM     21  O   UNL     1       2.399   2.487  19.360  0.00  0.00    +0.000 OA
ATOM     22  H   UNL     1       2.733   2.061  18.548  0.00  0.00    +0.000 HD
ENDBRANCH   4  21
BRANCH   5  23
ATOM     23  O   UNL     1       5.010   2.162  19.522  0.00  0.00    +0.000 OA
ATOM     24  H   UNL     1       4.696   1.555  18.820  0.00  0.00    +0.000 HD
ENDBRANCH   5  23
BRANCH   3  25
ATOM     25  C   UNL     1       2.953   6.216  19.233  0.00  0.00    +0.000 C 
BRANCH  25  26
ATOM     26  O   UNL     1       2.518   7.199  18.295  0.00  0.00    +0.000 OA
BRANCH  26  27
ATOM     27  P   UNL     1       1.456   8.372  18.994  0.00  0.00    +0.000 P 
ATOM     28  O   UNL     1       2.074   8.172  20.365  0.00  0.00    +0.000 OA
BRANCH  27  29
ATOM     29  O   UNL     1       2.359   9.559  18.330  0.00  0.00    +0.000 OA
ATOM     30  H   UNL     1       2.664  10.126  19.065  0.00  0.00    +0.000 HD
ENDBRANCH  27  29
BRANCH  27  31
ATOM     31  O   UNL     1       0.394   9.546  19.691  0.00  0.00    +0.000 OA
BRANCH  31  32
ATOM     32  P   UNL     1       0.662   9.623  21.399  0.00  0.00    +0.000 P 
ATOM     33  O   UNL     1      -0.091  10.943  21.510  0.00  0.00    +0.000 OA
BRANCH  32  34
ATOM     34  O   UNL     1      -0.455   8.465  21.626  0.00  0.00    +0.000 OA
ATOM     35  H   UNL     1      -0.775   8.182  20.745  0.00  0.00    +0.000 HD
ENDBRANCH  32  34
BRANCH  32  36
ATOM     36  O   UNL     1       0.929   9.699  23.106  0.00  0.00    +0.000 OA
ATOM     37  H   UNL     1       0.137  10.122  23.496  0.00  0.00    +0.000 HD
ENDBRANCH  32  36
ENDBRANCH  31  32
ENDBRANCH  27  31
ENDBRANCH  26  27
ENDBRANCH  25  26
ENDBRANCH   3  25
TORSDOF 11
ENDMDL
MODEL 7
REMARK VINA RESULT:      -6.8      4.507      7.277
REMARK  Name = 
REMARK  12 active torsions:
REMARK  status: ('A' for Active; 'I' for Inactive)
REMARK    1  A    between atoms: C_1  and  N_2
REMARK    2  A    between atoms: N_12  and  C_13
REMARK    3  A    between atoms: C_15  and  C_16
REMARK    4  A    between atoms: C_16  and  O_17
REMARK    5  A    between atoms: O_17  and  P_18
REMARK    6  A    between atoms: P_18  and  O_20
REMARK    7  A    between atoms: P_18  and  O_21
REMARK    8  A    between atoms: O_21  and  P_22
REMARK    9  A    between atoms: P_22  and  O_24
REMARK   10  A    between atoms: P_22  and  O_25
REMARK   11  A    between atoms: C_26  and  O_27
REMARK   12  A    between atoms: C_28  and  O_29
REMARK                            x       y       z     vdW  Elec       q    Type
REMARK                         _______ _______ _______ _____ _____    ______ ____
ROOT
ATOM      1  C   UNL     1       4.451   3.599  17.691  0.00  0.00    +0.000 C 
ATOM      2  O   UNL     1       3.309   4.436  17.365  0.00  0.00    +0.000 OA
ATOM      3  C   UNL     1       2.561   4.721  18.572  0.00  0.00    +0.000 C 
ATOM      4  C   UNL     1       3.073   3.725  19.605  0.00  0.00    +0.000 C 
ATOM      5  C   UNL     1       4.538   3.545  19.219  0.00  0.00    +0.000 C 
ENDROOT
BRANCH   1  17
ATOM      6  C   UNL     1       7.912   5.955  19.223  0.00  0.00    +0.000 C 
ATOM      7  N   UNL     1       6.849   5.046  18.842  0.00  0.00    +0.000 N 
ATOM      8  C   UNL     1       6.736   4.743  17.534  0.00  0.00    +0.000 A 
ATOM      9  N   UNL     1       7.593   5.080  16.587  0.00  0.00    +0.000 NA
ATOM     10  C   UNL     1       6.997   4.727  15.415  0.00  0.00    +0.000 A 
ATOM     11  C   UNL     1       7.346   4.957  14.077  0.00  0.00    +0.000 A 
ATOM     12  N   UNL     1       8.454   5.703  13.698  0.00  0.00    +0.000 N 
ATOM     13  N   UNL     1       6.566   4.426  13.105  0.00  0.00    +0.000 NA
ATOM     14  C   UNL     1       5.457   3.756  13.481  0.00  0.00    +0.000 A 
ATOM     15  N   UNL     1       4.987   3.530  14.727  0.00  0.00    +0.000 NA
ATOM     16  C   UNL     1       5.810   4.046  15.646  0.00  0.00    +0.000 A 
ATOM     17  N   UNL     1       5.646   4.075  17.016  0.00  0.00    +0.000 N 
ATOM     18  H   UNL     1       5.963   5.246  19.343  0.00  0.00    +0.000 HD
ATOM     19  H   UNL     1       9.154   5.803  14.424  0.00  0.00    +0.000 HD
ATOM     20  H   UNL     1       8.760   5.513  12.753  0.00  0.00    +0.000 HD
ENDBRANCH   1  17
BRANCH   4  21
ATOM     21  O   UNL     1       2.411   2.453  19.464  0.00  0.00    +0.000 OA
ATOM     22  H   UNL     1       2.853   1.798  20.037  0.00  0.00    +0.000 HD
ENDBRANCH   4  21
BRANCH   5  23
ATOM     23  O   UNL     1       5.030   2.307  19.730  0.00  0.00    +0.000 OA
ATOM     24  H   UNL     1       5.628   1.942  19.045  0.00  0.00    +0.000 HD
ENDBRANCH   5  23
BRANCH   3  25
ATOM     25  C   UNL     1       2.749   6.181  18.998  0.00  0.00    +0.000 C 
BRANCH  25  26
ATOM     26  O   UNL     1       2.987   6.986  17.845  0.00  0.00    +0.000 OA
BRANCH  26  27
ATOM     27  P   UNL     1       2.459   8.621  18.045  0.00  0.00    +0.000 P 
ATOM     28  O   UNL     1       1.181   8.343  17.276  0.00  0.00    +0.000 OA
BRANCH  27  29
ATOM     29  O   UNL     1       2.062   8.284  19.592  0.00  0.00    +0.000 OA
ATOM     30  H   UNL     1       2.175   9.112  20.100  0.00  0.00    +0.000 HD
ENDBRANCH  27  29
BRANCH  27  31
ATOM     31  O   UNL     1       1.931  10.256  18.247  0.00  0.00    +0.000 OA
BRANCH  31  32
ATOM     32  P   UNL     1       0.473  10.281  19.177  0.00  0.00    +0.000 P 
ATOM     33  O   UNL     1       1.122  11.122  20.268  0.00  0.00    +0.000 OA
BRANCH  32  34
ATOM     34  O   UNL     1      -0.174  11.346  18.134  0.00  0.00    +0.000 OA
ATOM     35  H   UNL     1      -0.389  10.864  17.310  0.00  0.00    +0.000 HD
ENDBRANCH  32  34
BRANCH  32  36
ATOM     36  O   UNL     1      -0.986  10.306  20.106  0.00  0.00    +0.000 OA
ATOM     37  H   UNL     1      -0.857   9.680  20.847  0.00  0.00    +0.000 HD
ENDBRANCH  32  36
ENDBRANCH  31  32
ENDBRANCH  27  31
ENDBRANCH  26  27
ENDBRANCH  25  26
ENDBRANCH   3  25
TORSDOF 11
ENDMDL
MODEL 8
REMARK VINA RESULT:      -6.8      7.260     10.427
REMARK  Name = 
REMARK  12 active torsions:
REMARK  status: ('A' for Active; 'I' for Inactive)
REMARK    1  A    between atoms: C_1  and  N_2
REMARK    2  A    between atoms: N_12  and  C_13
REMARK    3  A    between atoms: C_15  and  C_16
REMARK    4  A    between atoms: C_16  and  O_17
REMARK    5  A    between atoms: O_17  and  P_18
REMARK    6  A    between atoms: P_18  and  O_20
REMARK    7  A    between atoms: P_18  and  O_21
REMARK    8  A    between atoms: O_21  and  P_22
REMARK    9  A    between atoms: P_22  and  O_24
REMARK   10  A    between atoms: P_22  and  O_25
REMARK   11  A    between atoms: C_26  and  O_27
REMARK   12  A    between atoms: C_28  and  O_29
REMARK                            x       y       z     vdW  Elec       q    Type
REMARK                         _______ _______ _______ _____ _____    ______ ____
ROOT
ATOM      1  C   UNL     1       0.275  10.883  18.981  0.00  0.00    +0.000 C 
ATOM      2  O   UNL     1       0.294  11.946  19.971  0.00  0.00    +0.000 OA
ATOM      3  C   UNL     1      -0.928  12.717  19.873  0.00  0.00    +0.000 C 
ATOM      4  C   UNL     1      -1.545  12.321  18.538  0.00  0.00    +0.000 C 
ATOM      5  C   UNL     1      -1.135  10.859  18.385  0.00  0.00    +0.000 C 
ENDROOT
BRANCH   1  17
ATOM      6  C   UNL     1       0.084   9.395  23.180  0.00  0.00    +0.000 C 
ATOM      7  N   UNL     1      -0.048   9.868  21.816  0.00  0.00    +0.000 N 
ATOM      8  C   UNL     1       0.589   9.168  20.857  0.00  0.00    +0.000 A 
ATOM      9  N   UNL     1       1.201   8.009  21.024  0.00  0.00    +0.000 NA
ATOM     10  C   UNL     1       1.846   7.767  19.850  0.00  0.00    +0.000 A 
ATOM     11  C   UNL     1       2.766   6.778  19.471  0.00  0.00    +0.000 A 
ATOM     12  N   UNL     1       3.248   5.813  20.345  0.00  0.00    +0.000 N 
ATOM     13  N   UNL     1       3.205   6.762  18.190  0.00  0.00    +0.000 NA
ATOM     14  C   UNL     1       2.780   7.741  17.364  0.00  0.00    +0.000 A 
ATOM     15  N   UNL     1       1.955   8.776  17.633  0.00  0.00    +0.000 NA
ATOM     16  C   UNL     1       1.526   8.725  18.899  0.00  0.00    +0.000 A 
ATOM     17  N   UNL     1       0.725   9.631  19.564  0.00  0.00    +0.000 N 
ATOM     18  H   UNL     1       0.019  10.900  21.749  0.00  0.00    +0.000 HD
ATOM     19  H   UNL     1       2.672   5.675  21.167  0.00  0.00    +0.000 HD
ATOM     20  H   UNL     1       3.625   5.001  19.875  0.00  0.00    +0.000 HD
ENDBRANCH   1  17
BRANCH   4  21
ATOM     21  O   UNL     1      -0.956  13.069  17.457  0.00  0.00    +0.000 OA
ATOM     22  H   UNL     1      -0.818  13.991  17.745  0.00  0.00    +0.000 HD
ENDBRANCH   4  21
BRANCH   5  23
ATOM     23  O   UNL     1      -1.179  10.480  17.010  0.00  0.00    +0.000 OA
ATOM     24  H   UNL     1      -1.328   9.512  16.993  0.00  0.00    +0.000 HD
ENDBRANCH   5  23
BRANCH   3  25
ATOM     25  C   UNL     1      -1.846  12.438  21.068  0.00  0.00    +0.000 C 
BRANCH  25  26
ATOM     26  O   UNL     1      -2.859  13.440  21.133  0.00  0.00    +0.000 OA
BRANCH  26  27
ATOM     27  P   UNL     1      -4.445  12.780  21.334  0.00  0.00    +0.000 P 
ATOM     28  O   UNL     1      -4.850  13.927  22.242  0.00  0.00    +0.000 OA
BRANCH  27  29
ATOM     29  O   UNL     1      -4.836  13.310  19.841  0.00  0.00    +0.000 OA
ATOM     30  H   UNL     1      -3.997  13.430  19.354  0.00  0.00    +0.000 HD
ENDBRANCH  27  29
BRANCH  27  31
ATOM     31  O   UNL     1      -6.032  12.119  21.533  0.00  0.00    +0.000 OA
BRANCH  31  32
ATOM     32  P   UNL     1      -6.568  11.443  20.034  0.00  0.00    +0.000 P 
ATOM     33  O   UNL     1      -7.220  10.262  20.740  0.00  0.00    +0.000 OA
BRANCH  32  34
ATOM     34  O   UNL     1      -7.723  12.582  19.935  0.00  0.00    +0.000 OA
ATOM     35  H   UNL     1      -7.728  12.923  19.017  0.00  0.00    +0.000 HD
ENDBRANCH  32  34
BRANCH  32  36
ATOM     36  O   UNL     1      -7.105  10.769  18.534  0.00  0.00    +0.000 OA
ATOM     37  H   UNL     1      -6.736  11.334  17.825  0.00  0.00    +0.000 HD
ENDBRANCH  32  36
ENDBRANCH  31  32
ENDBRANCH  27  31
ENDBRANCH  26  27
ENDBRANCH  25  26
ENDBRANCH   3  25
TORSDOF 11
ENDMDL
MODEL 9
REMARK VINA RESULT:      -6.8      4.904      7.534
REMARK  Name = 
REMARK  12 active torsions:
REMARK  status: ('A' for Active; 'I' for Inactive)
REMARK    1  A    between atoms: C_1  and  N_2
REMARK    2  A    between atoms: N_12  and  C_13
REMARK    3  A    between atoms: C_15  and  C_16
REMARK    4  A    between atoms: C_16  and  O_17
REMARK    5  A    between atoms: O_17  and  P_18
REMARK    6  A    between atoms: P_18  and  O_20
REMARK    7  A    between atoms: P_18  and  O_21
REMARK    8  A    between atoms: O_21  and  P_22
REMARK    9  A    between atoms: P_22  and  O_24
REMARK   10  A    between atoms: P_22  and  O_25
REMARK   11  A    between atoms: C_26  and  O_27
REMARK   12  A    between atoms: C_28  and  O_29
REMARK                            x       y       z     vdW  Elec       q    Type
REMARK                         _______ _______ _______ _____ _____    ______ ____
ROOT
ATOM      1  C   UNL     1       4.598   4.245  17.294  0.00  0.00    +0.000 C 
ATOM      2  O   UNL     1       3.467   5.121  17.045  0.00  0.00    +0.000 OA
ATOM      3  C   UNL     1       2.807   5.423  18.298  0.00  0.00    +0.000 C 
ATOM      4  C   UNL     1       3.350   4.404  19.292  0.00  0.00    +0.000 C 
ATOM      5  C   UNL     1       4.781   4.179  18.813  0.00  0.00    +0.000 C 
ENDROOT
BRANCH   1  17
ATOM      6  C   UNL     1       7.707   7.285  18.280  0.00  0.00    +0.000 C 
ATOM      7  N   UNL     1       6.768   6.194  18.108  0.00  0.00    +0.000 N 
ATOM      8  C   UNL     1       6.749   5.580  16.909  0.00  0.00    +0.000 A 
ATOM      9  N   UNL     1       7.606   5.783  15.924  0.00  0.00    +0.000 NA
ATOM     10  C   UNL     1       7.106   5.097  14.860  0.00  0.00    +0.000 A 
ATOM     11  C   UNL     1       7.488   5.045  13.512  0.00  0.00    +0.000 A 
ATOM     12  N   UNL     1       8.523   5.806  12.986  0.00  0.00    +0.000 N 
ATOM     13  N   UNL     1       6.815   4.213  12.681  0.00  0.00    +0.000 NA
ATOM     14  C   UNL     1       5.771   3.524  13.187  0.00  0.00    +0.000 A 
ATOM     15  N   UNL     1       5.272   3.545  14.442  0.00  0.00    +0.000 NA
ATOM     16  C   UNL     1       5.992   4.355  15.226  0.00  0.00    +0.000 A 
ATOM     17  N   UNL     1       5.763   4.686  16.546  0.00  0.00    +0.000 N 
ATOM     18  H   UNL     1       5.845   6.400  18.531  0.00  0.00    +0.000 HD
ATOM     19  H   UNL     1       9.174   6.155  13.679  0.00  0.00    +0.000 HD
ATOM     20  H   UNL     1       8.890   5.436  12.119  0.00  0.00    +0.000 HD
ENDBRANCH   1  17
BRANCH   4  21
ATOM     21  O   UNL     1       2.639   3.156  19.189  0.00  0.00    +0.000 OA
ATOM     22  H   UNL     1       3.199   2.439  19.544  0.00  0.00    +0.000 HD
ENDBRANCH   4  21
BRANCH   5  23
ATOM     23  O   UNL     1       5.263   2.922  19.287  0.00  0.00    +0.000 OA
ATOM     24  H   UNL     1       4.814   2.757  20.142  0.00  0.00    +0.000 HD
ENDBRANCH   5  23
BRANCH   3  25
ATOM     25  C   UNL     1       3.069   6.873  18.717  0.00  0.00    +0.000 C 
BRANCH  25  26
ATOM     26  O   UNL     1       2.315   7.753  17.885  0.00  0.00    +0.000 OA
BRANCH  26  27
ATOM     27  P   UNL     1       1.295   8.821  18.786  0.00  0.00    +0.000 P 
ATOM     28  O   UNL     1       1.857   8.311  20.100  0.00  0.00    +0.000 OA
BRANCH  27  29
ATOM     29  O   UNL     1       2.282  10.062  18.397  0.00  0.00    +0.000 OA
ATOM     30  H   UNL     1       2.778  10.293  19.207  0.00  0.00    +0.000 HD
ENDBRANCH  27  29
BRANCH  27  31
ATOM     31  O   UNL     1       0.276   9.890  19.686  0.00  0.00    +0.000 OA
BRANCH  31  32
ATOM     32  P   UNL     1      -0.688  10.824  18.594  0.00  0.00    +0.000 P 
ATOM     33  O   UNL     1       0.304  11.979  18.623  0.00  0.00    +0.000 OA
BRANCH  32  34
ATOM     34  O   UNL     1      -0.214   9.874  17.364  0.00  0.00    +0.000 OA
ATOM     35  H   UNL     1       0.278   9.117  17.743  0.00  0.00    +0.000 HD
ENDBRANCH  32  34
BRANCH  32  36
ATOM     36  O   UNL     1      -1.653  11.756  17.502  0.00  0.00    +0.000 OA
ATOM     37  H   UNL     1      -1.470  11.413  16.604  0.00  0.00    +0.000 HD
ENDBRANCH  32  36
ENDBRANCH  31  32
ENDBRANCH  27  31
ENDBRANCH  26  27
ENDBRANCH  25  26
ENDBRANCH   3  25
TORSDOF 11
ENDMDL
