MODEL 1
REMARK VINA RESULT:      -8.4      0.000      0.000
REMARK  Name = 
REMARK  6 active torsions:
REMARK  status: ('A' for Active; 'I' for Inactive)
REMARK    1  A    between atoms: C_1  and  C_2
REMARK    2  A    between atoms: C_2  and  N_3
REMARK    3  A    between atoms: C_2  and  C_20
REMARK    4  A    between atoms: N_10  and  C_11
REMARK    5  A    between atoms: C_11  and  C_12
REMARK    6  A    between atoms: C_12  and  C_13
REMARK                            x       y       z     vdW  Elec       q    Type
REMARK                         _______ _______ _______ _____ _____    ______ ____
ROOT
ATOM      1  N   UNL     1       4.520   4.059  18.320  0.00  0.00    +0.000 N 
ATOM      2  C   UNL     1       3.523   4.493  19.158  0.00  0.00    +0.000 A 
ATOM      3  N   UNL     1       3.107   3.562  20.008  0.00  0.00    +0.000 NA
ATOM      4  C   UNL     1       2.195   3.945  20.882  0.00  0.00    +0.000 A 
ATOM      5  N   UNL     1       1.786   3.017  21.824  0.00  0.00    +0.000 N 
ATOM      6  N   UNL     1       1.701   5.166  20.973  0.00  0.00    +0.000 NA
ATOM      7  C   UNL     1       2.172   6.041  20.096  0.00  0.00    +0.000 A 
ATOM      8  N   UNL     1       1.728   7.348  20.152  0.00  0.00    +0.000 N 
ATOM      9  N   UNL     1       3.077   5.747  19.158  0.00  0.00    +0.000 NA
ATOM     10  H   UNL     1       4.642   3.059  18.388  0.00  0.00    +0.000 HD
ATOM     11  H   UNL     1       2.520   2.336  21.963  0.00  0.00    +0.000 HD
ATOM     12  H   UNL     1       1.449   3.498  22.647  0.00  0.00    +0.000 HD
ATOM     13  H   UNL     1       2.348   7.957  19.637  0.00  0.00    +0.000 HD
ENDROOT
BRANCH   1  15
ATOM     14  C   UNL     1       5.467   3.749  16.061  0.00  0.00    +0.000 C 
ATOM     15  C   UNL     1       4.974   4.732  17.126  0.00  0.00    +0.000 C 
BRANCH  15  16
ATOM     16  C   UNL     1       6.122   5.678  17.492  0.00  0.00    +0.000 A 
ATOM     17  C   UNL     1       7.040   5.296  18.486  0.00  0.00    +0.000 A 
ATOM     18  C   UNL     1       8.006   6.190  18.948  0.00  0.00    +0.000 A 
ATOM     19  C   UNL     1       8.079   7.466  18.405  0.00  0.00    +0.000 A 
ATOM     20  F   UNL     1       8.978   8.337  18.883  0.00  0.00    +0.000 F 
ATOM     21  C   UNL     1       7.221   7.855  17.384  0.00  0.00    +0.000 A 
ATOM     22  C   UNL     1       6.248   6.963  16.922  0.00  0.00    +0.000 A 
ENDBRANCH  15  16
ENDBRANCH   1  15
BRANCH   8  23
ATOM     23  C   UNL     1       1.096   7.858  21.363  0.00  0.00    +0.000 C 
BRANCH  23  24
ATOM     24  C   UNL     1       1.348   9.345  21.675  0.00  0.00    +0.000 C 
BRANCH  24  25
ATOM     25  C   UNL     1       0.207  10.336  21.789  0.00  0.00    +0.000 A 
ATOM     26  C   UNL     1      -0.184  11.226  20.791  0.00  0.00    +0.000 A 
ATOM     27  C   UNL     1      -1.268  12.095  20.997  0.00  0.00    +0.000 A 
ATOM     28  C   UNL     1      -1.979  12.069  22.199  0.00  0.00    +0.000 A 
ATOM     29  C   UNL     1      -1.608  11.180  23.201  0.00  0.00    +0.000 A 
ATOM     30  C   UNL     1      -0.524  10.325  22.995  0.00  0.00    +0.000 A 
ENDBRANCH  24  25
ENDBRANCH  23  24
ENDBRANCH   8  23
TORSDOF 5
ENDMDL
MODEL 2
REMARK VINA RESULT:      -8.3      0.442      1.017
REMARK  Name = 
REMARK  6 active torsions:
REMARK  status: ('A' for Active; 'I' for Inactive)
REMARK    1  A    between atoms: C_1  and  C_2
REMARK    2  A    between atoms: C_2  and  N_3
REMARK    3  A    between atoms: C_2  and  C_20
REMARK    4  A    between atoms: N_10  and  C_11
REMARK    5  A    between atoms: C_11  and  C_12
REMARK    6  A    between atoms: C_12  and  C_13
REMARK                            x       y       z     vdW  Elec       q    Type
REMARK                         _______ _______ _______ _____ _____    ______ ____
ROOT
ATOM      1  N   UNL     1       4.807   3.840  18.349  0.00  0.00    +0.000 N 
ATOM      2  C   UNL     1       3.777   4.202  19.182  0.00  0.00    +0.000 A 
ATOM      3  N   UNL     1       3.419   3.240  20.024  0.00  0.00    +0.000 NA
ATOM      4  C   UNL     1       2.478   3.556  20.892  0.00  0.00    +0.000 A 
ATOM      5  N   UNL     1       2.125   2.598  21.827  0.00  0.00    +0.000 N 
ATOM      6  N   UNL     1       1.903   4.741  20.987  0.00  0.00    +0.000 NA
ATOM      7  C   UNL     1       2.321   5.651  20.118  0.00  0.00    +0.000 A 
ATOM      8  N   UNL     1       1.790   6.925  20.179  0.00  0.00    +0.000 N 
ATOM      9  N   UNL     1       3.250   5.423  19.186  0.00  0.00    +0.000 NA
ATOM     10  H   UNL     1       4.996   2.851  18.412  0.00  0.00    +0.000 HD
ATOM     11  H   UNL     1       2.902   1.966  21.967  0.00  0.00    +0.000 HD
ATOM     12  H   UNL     1       1.751   3.050  22.650  0.00  0.00    +0.000 HD
ATOM     13  H   UNL     1       2.372   7.577  19.671  0.00  0.00    +0.000 HD
ENDROOT
BRANCH   1  15
ATOM     14  C   UNL     1       5.774   3.606  16.088  0.00  0.00    +0.000 C 
ATOM     15  C   UNL     1       5.223   4.549  17.162  0.00  0.00    +0.000 C 
BRANCH  15  16
ATOM     16  C   UNL     1       6.314   5.558  17.538  0.00  0.00    +0.000 A 
ATOM     17  C   UNL     1       7.178   5.269  18.609  0.00  0.00    +0.000 A 
ATOM     18  C   UNL     1       8.083   6.224  19.074  0.00  0.00    +0.000 A 
ATOM     19  C   UNL     1       8.148   7.468  18.458  0.00  0.00    +0.000 A 
ATOM     20  F   UNL     1       8.985   8.398  18.936  0.00  0.00    +0.000 F 
ATOM     21  C   UNL     1       7.345   7.763  17.364  0.00  0.00    +0.000 A 
ATOM     22  C   UNL     1       6.433   6.809  16.899  0.00  0.00    +0.000 A 
ENDBRANCH  15  16
ENDBRANCH   1  15
BRANCH   8  23
ATOM     23  C   UNL     1       1.118   7.384  21.388  0.00  0.00    +0.000 C 
BRANCH  23  24
ATOM     24  C   UNL     1       1.398   8.843  21.798  0.00  0.00    +0.000 C 
BRANCH  24  25
ATOM     25  C   UNL     1       0.303   9.890  21.800  0.00  0.00    +0.000 A 
ATOM     26  C   UNL     1      -0.364  10.349  22.935  0.00  0.00    +0.000 A 
ATOM     27  C   UNL     1      -1.357  11.336  22.825  0.00  0.00    +0.000 A 
ATOM     28  C   UNL     1      -1.681  11.882  21.582  0.00  0.00    +0.000 A 
ATOM     29  C   UNL     1      -1.018  11.442  20.442  0.00  0.00    +0.000 A 
ATOM     30  C   UNL     1      -0.037  10.454  20.554  0.00  0.00    +0.000 A 
ENDBRANCH  24  25
ENDBRANCH  23  24
ENDBRANCH   8  23
TORSDOF 5
ENDMDL
MODEL 3
REMARK VINA RESULT:      -8.3      0.459      1.053
REMARK  Name = 
REMARK  6 active torsions:
REMARK  status: ('A' for Active; 'I' for Inactive)
REMARK    1  A    between atoms: C_1  and  C_2
REMARK    2  A    between atoms: C_2  and  N_3
REMARK    3  A    between atoms: C_2  and  C_20
REMARK    4  A    between atoms: N_10  and  C_11
REMARK    5  A    between atoms: C_11  and  C_12
REMARK    6  A    between atoms: C_12  and  C_13
REMARK                            x       y       z     vdW  Elec       q    Type
REMARK                         _______ _______ _______ _____ _____    ______ ____
ROOT
ATOM      1  N   UNL     1       4.212   3.897  17.813  0.00  0.00    +0.000 N 
ATOM      2  C   UNL     1       3.244   4.361  18.670  0.00  0.00    +0.000 A 
ATOM      3  N   UNL     1       2.601   3.393  19.311  0.00  0.00    +0.000 NA
ATOM      4  C   UNL     1       1.706   3.785  20.197  0.00  0.00    +0.000 A 
ATOM      5  N   UNL     1       1.062   2.803  20.930  0.00  0.00    +0.000 N 
ATOM      6  N   UNL     1       1.433   5.043  20.491  0.00  0.00    +0.000 NA
ATOM      7  C   UNL     1       2.122   5.951  19.815  0.00  0.00    +0.000 A 
ATOM      8  N   UNL     1       1.917   7.288  20.092  0.00  0.00    +0.000 N 
ATOM      9  N   UNL     1       3.032   5.657  18.882  0.00  0.00    +0.000 NA
ATOM     10  H   UNL     1       4.147   2.896  17.700  0.00  0.00    +0.000 HD
ATOM     11  H   UNL     1       1.649   1.981  20.974  0.00  0.00    +0.000 HD
ATOM     12  H   UNL     1       0.751   3.188  21.812  0.00  0.00    +0.000 HD
ATOM     13  H   UNL     1       2.675   7.848  19.729  0.00  0.00    +0.000 HD
ENDROOT
BRANCH   1  15
ATOM     14  C   UNL     1       5.580   3.779  15.760  0.00  0.00    +0.000 C 
ATOM     15  C   UNL     1       4.873   4.668  16.788  0.00  0.00    +0.000 C 
BRANCH  15  16
ATOM     16  C   UNL     1       5.912   5.584  17.443  0.00  0.00    +0.000 A 
ATOM     17  C   UNL     1       6.082   6.892  16.955  0.00  0.00    +0.000 A 
ATOM     18  C   UNL     1       7.116   7.702  17.426  0.00  0.00    +0.000 A 
ATOM     19  C   UNL     1       7.976   7.221  18.405  0.00  0.00    +0.000 A 
ATOM     20  F   UNL     1       8.995   7.983  18.822  0.00  0.00    +0.000 F 
ATOM     21  C   UNL     1       7.801   5.953  18.945  0.00  0.00    +0.000 A 
ATOM     22  C   UNL     1       6.768   5.137  18.471  0.00  0.00    +0.000 A 
ENDBRANCH  15  16
ENDBRANCH   1  15
BRANCH   8  23
ATOM     23  C   UNL     1       1.291   7.691  21.347  0.00  0.00    +0.000 C 
BRANCH  23  24
ATOM     24  C   UNL     1       1.540   9.147  21.782  0.00  0.00    +0.000 C 
BRANCH  24  25
ATOM     25  C   UNL     1       0.413  10.159  21.847  0.00  0.00    +0.000 A 
ATOM     26  C   UNL     1       0.102  11.075  20.844  0.00  0.00    +0.000 A 
ATOM     27  C   UNL     1      -0.976  11.963  21.002  0.00  0.00    +0.000 A 
ATOM     28  C   UNL     1      -1.758  11.930  22.157  0.00  0.00    +0.000 A 
ATOM     29  C   UNL     1      -1.467  11.015  23.162  0.00  0.00    +0.000 A 
ATOM     30  C   UNL     1      -0.390  10.141  23.006  0.00  0.00    +0.000 A 
ENDBRANCH  24  25
ENDBRANCH  23  24
ENDBRANCH   8  23
TORSDOF 5
ENDMDL
MODEL 4
REMARK VINA RESULT:      -8.3      0.926      1.310
REMARK  Name = 
REMARK  6 active torsions:
REMARK  status: ('A' for Active; 'I' for Inactive)
REMARK    1  A    between atoms: C_1  and  C_2
REMARK    2  A    between atoms: C_2  and  N_3
REMARK    3  A    between atoms: C_2  and  C_20
REMARK    4  A    between atoms: N_10  and  C_11
REMARK    5  A    between atoms: C_11  and  C_12
REMARK    6  A    between atoms: C_12  and  C_13
REMARK                            x       y       z     vdW  Elec       q    Type
REMARK                         _______ _______ _______ _____ _____    ______ ____
ROOT
ATOM      1  N   UNL     1       4.434   4.060  18.075  0.00  0.00    +0.000 N 
ATOM      2  C   UNL     1       3.455   4.576  18.888  0.00  0.00    +0.000 A 
ATOM      3  N   UNL     1       2.901   3.672  19.686  0.00  0.00    +0.000 NA
ATOM      4  C   UNL     1       2.000   4.127  20.535  0.00  0.00    +0.000 A 
ATOM      5  N   UNL     1       1.449   3.222  21.425  0.00  0.00    +0.000 N 
ATOM      6  N   UNL     1       1.642   5.392  20.652  0.00  0.00    +0.000 NA
ATOM      7  C   UNL     1       2.246   6.237  19.827  0.00  0.00    +0.000 A 
ATOM      8  N   UNL     1       1.949   7.582  19.914  0.00  0.00    +0.000 N 
ATOM      9  N   UNL     1       3.153   5.872  18.917  0.00  0.00    +0.000 NA
ATOM     10  H   UNL     1       4.441   3.051  18.111  0.00  0.00    +0.000 HD
ATOM     11  H   UNL     1       2.096   2.458  21.569  0.00  0.00    +0.000 HD
ATOM     12  H   UNL     1       1.132   3.710  22.252  0.00  0.00    +0.000 HD
ATOM     13  H   UNL     1       2.654   8.134  19.447  0.00  0.00    +0.000 HD
ENDROOT
BRANCH   1  15
ATOM     14  C   UNL     1       5.562   3.715  15.906  0.00  0.00    +0.000 C 
ATOM     15  C   UNL     1       5.012   4.715  16.926  0.00  0.00    +0.000 C 
BRANCH  15  16
ATOM     16  C   UNL     1       6.155   5.623  17.391  0.00  0.00    +0.000 A 
ATOM     17  C   UNL     1       6.985   5.201  18.445  0.00  0.00    +0.000 A 
ATOM     18  C   UNL     1       7.939   6.060  18.992  0.00  0.00    +0.000 A 
ATOM     19  C   UNL     1       8.088   7.341  18.476  0.00  0.00    +0.000 A 
ATOM     20  F   UNL     1       8.972   8.178  19.033  0.00  0.00    +0.000 F 
ATOM     21  C   UNL     1       7.320   7.768  17.400  0.00  0.00    +0.000 A 
ATOM     22  C   UNL     1       6.360   6.911  16.853  0.00  0.00    +0.000 A 
ENDBRANCH  15  16
ENDBRANCH   1  15
BRANCH   8  23
ATOM     23  C   UNL     1       1.325   8.121  21.117  0.00  0.00    +0.000 C 
BRANCH  23  24
ATOM     24  C   UNL     1       1.118   9.648  21.138  0.00  0.00    +0.000 C 
BRANCH  24  25
ATOM     25  C   UNL     1       0.059  10.316  20.285  0.00  0.00    +0.000 A 
ATOM     26  C   UNL     1      -0.195  10.022  18.947  0.00  0.00    +0.000 A 
ATOM     27  C   UNL     1      -1.213  10.696  18.252  0.00  0.00    +0.000 A 
ATOM     28  C   UNL     1      -1.995  11.658  18.894  0.00  0.00    +0.000 A 
ATOM     29  C   UNL     1      -1.761  11.955  20.232  0.00  0.00    +0.000 A 
ATOM     30  C   UNL     1      -0.742  11.290  20.917  0.00  0.00    +0.000 A 
ENDBRANCH  24  25
ENDBRANCH  23  24
ENDBRANCH   8  23
TORSDOF 5
ENDMDL
MODEL 5
REMARK VINA RESULT:      -8.2      1.077      1.414
REMARK  Name = 
REMARK  6 active torsions:
REMARK  status: ('A' for Active; 'I' for Inactive)
REMARK    1  A    between atoms: C_1  and  C_2
REMARK    2  A    between atoms: C_2  and  N_3
REMARK    3  A    between atoms: C_2  and  C_20
REMARK    4  A    between atoms: N_10  and  C_11
REMARK    5  A    between atoms: C_11  and  C_12
REMARK    6  A    between atoms: C_12  and  C_13
REMARK                            x       y       z     vdW  Elec       q    Type
REMARK                         _______ _______ _______ _____ _____    ______ ____
ROOT
ATOM      1  N   UNL     1       4.300   4.075  17.905  0.00  0.00    +0.000 N 
ATOM      2  C   UNL     1       3.370   4.582  18.780  0.00  0.00    +0.000 A 
ATOM      3  N   UNL     1       2.790   3.652  19.529  0.00  0.00    +0.000 NA
ATOM      4  C   UNL     1       1.936   4.090  20.433  0.00  0.00    +0.000 A 
ATOM      5  N   UNL     1       1.361   3.153  21.274  0.00  0.00    +0.000 N 
ATOM      6  N   UNL     1       1.647   5.361  20.648  0.00  0.00    +0.000 NA
ATOM      7  C   UNL     1       2.273   6.230  19.866  0.00  0.00    +0.000 A 
ATOM      8  N   UNL     1       2.049   7.580  20.054  0.00  0.00    +0.000 N 
ATOM      9  N   UNL     1       3.137   5.885  18.907  0.00  0.00    +0.000 NA
ATOM     10  H   UNL     1       4.255   3.068  17.871  0.00  0.00    +0.000 HD
ATOM     11  H   UNL     1       1.971   2.350  21.346  0.00  0.00    +0.000 HD
ATOM     12  H   UNL     1       1.091   3.598  22.141  0.00  0.00    +0.000 HD
ATOM     13  H   UNL     1       2.770   8.126  19.606  0.00  0.00    +0.000 HD
ENDROOT
BRANCH   1  15
ATOM     14  C   UNL     1       5.395   3.826  15.706  0.00  0.00    +0.000 C 
ATOM     15  C   UNL     1       4.881   4.780  16.788  0.00  0.00    +0.000 C 
BRANCH  15  16
ATOM     16  C   UNL     1       6.052   5.632  17.289  0.00  0.00    +0.000 A 
ATOM     17  C   UNL     1       6.902   5.117  18.284  0.00  0.00    +0.000 A 
ATOM     18  C   UNL     1       7.884   5.917  18.869  0.00  0.00    +0.000 A 
ATOM     19  C   UNL     1       8.042   7.232  18.449  0.00  0.00    +0.000 A 
ATOM     20  F   UNL     1       8.955   8.010  19.044  0.00  0.00    +0.000 F 
ATOM     21  C   UNL     1       7.254   7.752  17.430  0.00  0.00    +0.000 A 
ATOM     22  C   UNL     1       6.264   6.954  16.846  0.00  0.00    +0.000 A 
ENDBRANCH  15  16
ENDBRANCH   1  15
BRANCH   8  23
ATOM     23  C   UNL     1       1.484   8.063  21.309  0.00  0.00    +0.000 C 
BRANCH  23  24
ATOM     24  C   UNL     1       0.093   8.717  21.211  0.00  0.00    +0.000 C 
BRANCH  24  25
ATOM     25  C   UNL     1      -0.089  10.110  20.643  0.00  0.00    +0.000 A 
ATOM     26  C   UNL     1       0.452  11.273  21.187  0.00  0.00    +0.000 A 
ATOM     27  C   UNL     1       0.231  12.516  20.571  0.00  0.00    +0.000 A 
ATOM     28  C   UNL     1      -0.522  12.603  19.398  0.00  0.00    +0.000 A 
ATOM     29  C   UNL     1      -1.060  11.450  18.838  0.00  0.00    +0.000 A 
ATOM     30  C   UNL     1      -0.846  10.218  19.458  0.00  0.00    +0.000 A 
ENDBRANCH  24  25
ENDBRANCH  23  24
ENDBRANCH   8  23
TORSDOF 5
ENDMDL
MODEL 6
REMARK VINA RESULT:      -8.2      1.226      1.940
REMARK  Name = 
REMARK  6 active torsions:
REMARK  status: ('A' for Active; 'I' for Inactive)
REMARK    1  A    between atoms: C_1  and  C_2
REMARK    2  A    between atoms: C_2  and  N_3
REMARK    3  A    between atoms: C_2  and  C_20
REMARK    4  A    between atoms: N_10  and  C_11
REMARK    5  A    between atoms: C_11  and  C_12
REMARK    6  A    between atoms: C_12  and  C_13
REMARK                            x       y       z     vdW  Elec       q    Type
REMARK                         _______ _______ _______ _____ _____    ______ ____
ROOT
ATOM      1  N   UNL     1       4.791   3.584  16.823  0.00  0.00    +0.000 N 
ATOM      2  C   UNL     1       3.721   3.876  17.633  0.00  0.00    +0.000 A 
ATOM      3  N   UNL     1       3.051   2.801  18.029  0.00  0.00    +0.000 NA
ATOM      4  C   UNL     1       2.052   3.019  18.862  0.00  0.00    +0.000 A 
ATOM      5  N   UNL     1       1.373   1.914  19.346  0.00  0.00    +0.000 N 
ATOM      6  N   UNL     1       1.702   4.203  19.330  0.00  0.00    +0.000 NA
ATOM      7  C   UNL     1       2.425   5.227  18.896  0.00  0.00    +0.000 A 
ATOM      8  N   UNL     1       2.140   6.493  19.368  0.00  0.00    +0.000 N 
ATOM      9  N   UNL     1       3.439   5.113  18.034  0.00  0.00    +0.000 NA
ATOM     10  H   UNL     1       4.777   2.616  16.538  0.00  0.00    +0.000 HD
ATOM     11  H   UNL     1       1.982   1.108  19.317  0.00  0.00    +0.000 HD
ATOM     12  H   UNL     1       0.956   2.138  20.239  0.00  0.00    +0.000 HD
ATOM     13  H   UNL     1       2.911   7.121  19.189  0.00  0.00    +0.000 HD
ENDROOT
BRANCH   1  15
ATOM     14  C   UNL     1       6.480   3.841  15.040  0.00  0.00    +0.000 C 
ATOM     15  C   UNL     1       5.528   4.531  16.021  0.00  0.00    +0.000 C 
BRANCH  15  16
ATOM     16  C   UNL     1       6.346   5.439  16.944  0.00  0.00    +0.000 A 
ATOM     17  C   UNL     1       6.398   6.820  16.683  0.00  0.00    +0.000 A 
ATOM     18  C   UNL     1       7.249   7.654  17.410  0.00  0.00    +0.000 A 
ATOM     19  C   UNL     1       8.038   7.119  18.420  0.00  0.00    +0.000 A 
ATOM     20  F   UNL     1       8.887   7.913  19.085  0.00  0.00    +0.000 F 
ATOM     21  C   UNL     1       7.969   5.768  18.738  0.00  0.00    +0.000 A 
ATOM     22  C   UNL     1       7.121   4.929  18.007  0.00  0.00    +0.000 A 
ENDBRANCH  15  16
ENDBRANCH   1  15
BRANCH   8  23
ATOM     23  C   UNL     1       1.370   6.664  20.594  0.00  0.00    +0.000 C 
BRANCH  23  24
ATOM     24  C   UNL     1       1.722   7.903  21.439  0.00  0.00    +0.000 C 
BRANCH  24  25
ATOM     25  C   UNL     1       0.721   9.018  21.665  0.00  0.00    +0.000 A 
ATOM     26  C   UNL     1       0.155   9.349  22.895  0.00  0.00    +0.000 A 
ATOM     27  C   UNL     1      -0.755  10.415  22.995  0.00  0.00    +0.000 A 
ATOM     28  C   UNL     1      -1.095  11.166  21.868  0.00  0.00    +0.000 A 
ATOM     29  C   UNL     1      -0.531  10.855  20.636  0.00  0.00    +0.000 A 
ATOM     30  C   UNL     1       0.366   9.790  20.539  0.00  0.00    +0.000 A 
ENDBRANCH  24  25
ENDBRANCH  23  24
ENDBRANCH   8  23
TORSDOF 5
ENDMDL
MODEL 7
REMARK VINA RESULT:      -8.2      3.803      7.312
REMARK  Name = 
REMARK  6 active torsions:
REMARK  status: ('A' for Active; 'I' for Inactive)
REMARK    1  A    between atoms: C_1  and  C_2
REMARK    2  A    between atoms: C_2  and  N_3
REMARK    3  A    between atoms: C_2  and  C_20
REMARK    4  A    between atoms: N_10  and  C_11
REMARK    5  A    between atoms: C_11  and  C_12
REMARK    6  A    between atoms: C_12  and  C_13
REMARK                            x       y       z     vdW  Elec       q    Type
REMARK                         _______ _______ _______ _____ _____    ______ ____
ROOT
ATOM      1  N   UNL     1       4.038   3.781  16.871  0.00  0.00    +0.000 N 
ATOM      2  C   UNL     1       5.241   4.434  16.764  0.00  0.00    +0.000 A 
ATOM      3  N   UNL     1       5.744   4.413  15.536  0.00  0.00    +0.000 NA
ATOM      4  C   UNL     1       6.867   5.083  15.362  0.00  0.00    +0.000 A 
ATOM      5  N   UNL     1       7.386   5.136  14.080  0.00  0.00    +0.000 N 
ATOM      6  N   UNL     1       7.492   5.769  16.301  0.00  0.00    +0.000 NA
ATOM      7  C   UNL     1       6.923   5.749  17.499  0.00  0.00    +0.000 A 
ATOM      8  N   UNL     1       7.500   6.473  18.524  0.00  0.00    +0.000 N 
ATOM      9  N   UNL     1       5.801   5.083  17.782  0.00  0.00    +0.000 NA
ATOM     10  H   UNL     1       3.833   3.258  16.033  0.00  0.00    +0.000 HD
ATOM     11  H   UNL     1       6.637   5.009  13.412  0.00  0.00    +0.000 HD
ATOM     12  H   UNL     1       7.952   5.967  13.978  0.00  0.00    +0.000 HD
ATOM     13  H   UNL     1       6.844   6.603  19.281  0.00  0.00    +0.000 HD
ENDROOT
BRANCH   1  15
ATOM     14  C   UNL     1       2.287   2.359  17.877  0.00  0.00    +0.000 C 
ATOM     15  C   UNL     1       3.392   3.394  18.103  0.00  0.00    +0.000 C 
BRANCH  15  16
ATOM     16  C   UNL     1       2.778   4.636  18.757  0.00  0.00    +0.000 A 
ATOM     17  C   UNL     1       2.714   5.837  18.028  0.00  0.00    +0.000 A 
ATOM     18  C   UNL     1       2.300   7.022  18.638  0.00  0.00    +0.000 A 
ATOM     19  C   UNL     1       1.922   7.012  19.975  0.00  0.00    +0.000 A 
ATOM     20  F   UNL     1       1.568   8.159  20.570  0.00  0.00    +0.000 F 
ATOM     21  C   UNL     1       1.923   5.831  20.706  0.00  0.00    +0.000 A 
ATOM     22  C   UNL     1       2.343   4.643  20.099  0.00  0.00    +0.000 A 
ENDBRANCH  15  16
ENDBRANCH   1  15
BRANCH   8  23
ATOM     23  C   UNL     1       8.444   7.545  18.227  0.00  0.00    +0.000 C 
BRANCH  23  24
ATOM     24  C   UNL     1       7.824   8.931  17.969  0.00  0.00    +0.000 C 
BRANCH  24  25
ATOM     25  C   UNL     1       8.553  10.207  18.338  0.00  0.00    +0.000 A 
ATOM     26  C   UNL     1       8.522  11.389  17.601  0.00  0.00    +0.000 A 
ATOM     27  C   UNL     1       9.227  12.521  18.042  0.00  0.00    +0.000 A 
ATOM     28  C   UNL     1       9.956  12.484  19.232  0.00  0.00    +0.000 A 
ATOM     29  C   UNL     1       9.989  11.315  19.984  0.00  0.00    +0.000 A 
ATOM     30  C   UNL     1       9.295  10.189  19.537  0.00  0.00    +0.000 A 
ENDBRANCH  24  25
ENDBRANCH  23  24
ENDBRANCH   8  23
TORSDOF 5
ENDMDL
MODEL 8
REMARK VINA RESULT:      -8.1      0.270      1.357
REMARK  Name = 
REMARK  6 active torsions:
REMARK  status: ('A' for Active; 'I' for Inactive)
REMARK    1  A    between atoms: C_1  and  C_2
REMARK    2  A    between atoms: C_2  and  N_3
REMARK    3  A    between atoms: C_2  and  C_20
REMARK    4  A    between atoms: N_10  and  C_11
REMARK    5  A    between atoms: C_11  and  C_12
REMARK    6  A    between atoms: C_12  and  C_13
REMARK                            x       y       z     vdW  Elec       q    Type
REMARK                         _______ _______ _______ _____ _____    ______ ____
ROOT
ATOM      1  N   UNL     1       4.463   3.911  18.336  0.00  0.00    +0.000 N 
ATOM      2  C   UNL     1       3.459   4.323  19.178  0.00  0.00    +0.000 A 
ATOM      3  N   UNL     1       2.993   3.353  19.955  0.00  0.00    +0.000 NA
ATOM      4  C   UNL     1       2.072   3.709  20.831  0.00  0.00    +0.000 A 
ATOM      5  N   UNL     1       1.610   2.736  21.700  0.00  0.00    +0.000 N 
ATOM      6  N   UNL     1       1.616   4.937  20.991  0.00  0.00    +0.000 NA
ATOM      7  C   UNL     1       2.137   5.852  20.184  0.00  0.00    +0.000 A 
ATOM      8  N   UNL     1       1.734   7.166  20.316  0.00  0.00    +0.000 N 
ATOM      9  N   UNL     1       3.055   5.588  19.250  0.00  0.00    +0.000 NA
ATOM     10  H   UNL     1       4.551   2.905  18.341  0.00  0.00    +0.000 HD
ATOM     11  H   UNL     1       2.319   2.023  21.811  0.00  0.00    +0.000 HD
ATOM     12  H   UNL     1       1.268   3.173  22.546  0.00  0.00    +0.000 HD
ATOM     13  H   UNL     1       2.385   7.786  19.856  0.00  0.00    +0.000 HD
ENDROOT
BRANCH   1  15
ATOM     14  C   UNL     1       5.637   3.728  16.171  0.00  0.00    +0.000 C 
ATOM     15  C   UNL     1       4.967   4.644  17.200  0.00  0.00    +0.000 C 
BRANCH  15  16
ATOM     16  C   UNL     1       5.994   5.673  17.684  0.00  0.00    +0.000 A 
ATOM     17  C   UNL     1       6.043   6.938  17.071  0.00  0.00    +0.000 A 
ATOM     18  C   UNL     1       7.058   7.844  17.382  0.00  0.00    +0.000 A 
ATOM     19  C   UNL     1       8.018   7.504  18.327  0.00  0.00    +0.000 A 
ATOM     20  F   UNL     1       9.017   8.357  18.590  0.00  0.00    +0.000 F 
ATOM     21  C   UNL     1       7.965   6.284  18.989  0.00  0.00    +0.000 A 
ATOM     22  C   UNL     1       6.952   5.371  18.674  0.00  0.00    +0.000 A 
ENDBRANCH  15  16
ENDBRANCH   1  15
BRANCH   8  23
ATOM     23  C   UNL     1       1.088   7.617  21.544  0.00  0.00    +0.000 C 
BRANCH  23  24
ATOM     24  C   UNL     1       1.343   9.085  21.934  0.00  0.00    +0.000 C 
BRANCH  24  25
ATOM     25  C   UNL     1       0.222  10.104  21.961  0.00  0.00    +0.000 A 
ATOM     26  C   UNL     1      -0.577  10.386  23.068  0.00  0.00    +0.000 A 
ATOM     27  C   UNL     1      -1.583  11.363  22.989  0.00  0.00    +0.000 A 
ATOM     28  C   UNL     1      -1.789  12.075  21.805  0.00  0.00    +0.000 A 
ATOM     29  C   UNL     1      -0.994  11.812  20.695  0.00  0.00    +0.000 A 
ATOM     30  C   UNL     1      -0.001  10.834  20.776  0.00  0.00    +0.000 A 
ENDBRANCH  24  25
ENDBRANCH  23  24
ENDBRANCH   8  23
TORSDOF 5
ENDMDL
MODEL 9
REMARK VINA RESULT:      -8.1      0.892      1.562
REMARK  Name = 
REMARK  6 active torsions:
REMARK  status: ('A' for Active; 'I' for Inactive)
REMARK    1  A    between atoms: C_1  and  C_2
REMARK    2  A    between atoms: C_2  and  N_3
REMARK    3  A    between atoms: C_2  and  C_20
REMARK    4  A    between atoms: N_10  and  C_11
REMARK    5  A    between atoms: C_11  and  C_12
REMARK    6  A    between atoms: C_12  and  C_13
REMARK                            x       y       z     vdW  Elec       q    Type
REMARK                         _______ _______ _______ _____ _____    ______ ____
ROOT
ATOM      1  N   UNL     1       4.205   3.850  17.974  0.00  0.00    +0.000 N 
ATOM      2  C   UNL     1       3.264   4.388  18.818  0.00  0.00    +0.000 A 
ATOM      3  N   UNL     1       2.589   3.475  19.505  0.00  0.00    +0.000 NA
ATOM      4  C   UNL     1       1.718   3.940  20.380  0.00  0.00    +0.000 A 
ATOM      5  N   UNL     1       1.043   3.016  21.159  0.00  0.00    +0.000 N 
ATOM      6  N   UNL     1       1.499   5.219  20.622  0.00  0.00    +0.000 NA
ATOM      7  C   UNL     1       2.218   6.070  19.903  0.00  0.00    +0.000 A 
ATOM      8  N   UNL     1       2.068   7.424  20.125  0.00  0.00    +0.000 N 
ATOM      9  N   UNL     1       3.107   5.700  18.977  0.00  0.00    +0.000 NA
ATOM     10  H   UNL     1       4.099   2.849  17.904  0.00  0.00    +0.000 HD
ATOM     11  H   UNL     1       1.597   2.174  21.233  0.00  0.00    +0.000 HD
ATOM     12  H   UNL     1       0.756   3.451  22.026  0.00  0.00    +0.000 HD
ATOM     13  H   UNL     1       2.845   7.937  19.732  0.00  0.00    +0.000 HD
ENDROOT
BRANCH   1  15
ATOM     14  C   UNL     1       5.616   3.594  15.964  0.00  0.00    +0.000 C 
ATOM     15  C   UNL     1       4.887   4.550  16.912  0.00  0.00    +0.000 C 
BRANCH  15  16
ATOM     16  C   UNL     1       5.911   5.512  17.524  0.00  0.00    +0.000 A 
ATOM     17  C   UNL     1       6.044   6.807  16.991  0.00  0.00    +0.000 A 
ATOM     18  C   UNL     1       7.063   7.656  17.422  0.00  0.00    +0.000 A 
ATOM     19  C   UNL     1       7.945   7.228  18.406  0.00  0.00    +0.000 A 
ATOM     20  F   UNL     1       8.950   8.029  18.786  0.00  0.00    +0.000 F 
ATOM     21  C   UNL     1       7.806   5.976  18.991  0.00  0.00    +0.000 A 
ATOM     22  C   UNL     1       6.788   5.120  18.556  0.00  0.00    +0.000 A 
ENDBRANCH  15  16
ENDBRANCH   1  15
BRANCH   8  23
ATOM     23  C   UNL     1       1.471   7.904  21.366  0.00  0.00    +0.000 C 
BRANCH  23  24
ATOM     24  C   UNL     1       0.175   8.722  21.212  0.00  0.00    +0.000 C 
BRANCH  24  25
ATOM     25  C   UNL     1       0.185  10.122  20.632  0.00  0.00    +0.000 A 
ATOM     26  C   UNL     1       0.526  10.442  19.319  0.00  0.00    +0.000 A 
ATOM     27  C   UNL     1       0.489  11.776  18.879  0.00  0.00    +0.000 A 
ATOM     28  C   UNL     1       0.096  12.798  19.746  0.00  0.00    +0.000 A 
ATOM     29  C   UNL     1      -0.257  12.494  21.055  0.00  0.00    +0.000 A 
ATOM     30  C   UNL     1      -0.210  11.168  21.491  0.00  0.00    +0.000 A 
ENDBRANCH  24  25
ENDBRANCH  23  24
ENDBRANCH   8  23
TORSDOF 5
ENDMDL
