MODEL 1
REMARK VINA RESULT:      -8.0      0.000      0.000
REMARK  Name = 
REMARK  4 active torsions:
REMARK  status: ('A' for Active; 'I' for Inactive)
REMARK    1  A    between atoms: O_1  and  C_2
REMARK    2  A    between atoms: C_3  and  C_4
REMARK    3  A    between atoms: C_4  and  N_5
REMARK    4  A    between atoms: C_4  and  C_12
REMARK                            x       y       z     vdW  Elec       q    Type
REMARK                         _______ _______ _______ _____ _____    ______ ____
ROOT
ATOM      1  C   UNL     1       2.833   5.998  18.669  0.00  0.00    +0.000 C 
ENDROOT
BRANCH   1   3
ATOM      2  C   UNL     1       2.318   8.426  18.163  0.00  0.00    +0.000 A 
ATOM      3  C   UNL     1       2.158   7.318  19.004  0.00  0.00    +0.000 A 
ATOM      4  C   UNL     1       1.493   7.524  20.218  0.00  0.00    +0.000 A 
ATOM      5  C   UNL     1       1.050   8.802  20.579  0.00  0.00    +0.000 A 
ATOM      6 CL   UNL     1       0.210   8.943  22.090  0.00  0.00    +0.000 Cl
ATOM      7  C   UNL     1       1.313   9.926  19.762  0.00  0.00    +0.000 A 
ATOM      8  C   UNL     1       1.003  11.260  20.122  0.00  0.00    +0.000 A 
ATOM      9  C   UNL     1       1.363  12.317  19.294  0.00  0.00    +0.000 A 
ATOM     10  C   UNL     1       2.011  12.014  18.115  0.00  0.00    +0.000 A 
ATOM     11  N   UNL     1       2.299  10.758  17.711  0.00  0.00    +0.000 NA
ATOM     12  C   UNL     1       1.968   9.732  18.527  0.00  0.00    +0.000 A 
BRANCH   2  13
ATOM     13  O   UNL     1       2.906   8.210  16.935  0.00  0.00    +0.000 OA
ATOM     14  H   UNL     1       2.411   8.786  16.319  0.00  0.00    +0.000 HD
ENDBRANCH   2  13
ENDBRANCH   1   3
BRANCH   1  15
ATOM     15  N   UNL     1       4.286   6.142  18.812  0.00  0.00    +0.000 N 
ATOM     16  C   UNL     1       5.109   5.650  17.817  0.00  0.00    +0.000 A 
ATOM     17  N   UNL     1       4.775   5.660  16.520  0.00  0.00    +0.000 NA
ATOM     18  C   UNL     1       5.696   5.200  15.653  0.00  0.00    +0.000 A 
ATOM     19  C   UNL     1       6.930   4.728  16.030  0.00  0.00    +0.000 A 
ATOM     20  C   UNL     1       7.172   4.743  17.378  0.00  0.00    +0.000 A 
ATOM     21  N   UNL     1       6.277   5.182  18.280  0.00  0.00    +0.000 NA
ATOM     22  H   UNL     1       4.656   5.664  19.627  0.00  0.00    +0.000 HD
ENDBRANCH   1  15
BRANCH   1  23
ATOM     23  C   UNL     1       2.362   4.833  19.555  0.00  0.00    +0.000 A 
ATOM     24  C   UNL     1       2.957   4.628  20.814  0.00  0.00    +0.000 A 
ATOM     25  C   UNL     1       2.444   3.671  21.694  0.00  0.00    +0.000 A 
ATOM     26  C   UNL     1       1.340   2.914  21.321  0.00  0.00    +0.000 A 
ATOM     27  F   UNL     1       0.811   2.038  22.187  0.00  0.00    +0.000 F 
ATOM     28  C   UNL     1       0.769   3.055  20.066  0.00  0.00    +0.000 A 
ATOM     29  C   UNL     1       1.292   3.994  19.179  0.00  0.00    +0.000 A 
ENDBRANCH   1  23
TORSDOF 4
ENDMDL
MODEL 2
REMARK VINA RESULT:      -7.7      0.627      1.119
REMARK  Name = 
REMARK  4 active torsions:
REMARK  status: ('A' for Active; 'I' for Inactive)
REMARK    1  A    between atoms: O_1  and  C_2
REMARK    2  A    between atoms: C_3  and  C_4
REMARK    3  A    between atoms: C_4  and  N_5
REMARK    4  A    between atoms: C_4  and  C_12
REMARK                            x       y       z     vdW  Elec       q    Type
REMARK                         _______ _______ _______ _____ _____    ______ ____
ROOT
ATOM      1  C   UNL     1       2.495   6.378  18.934  0.00  0.00    +0.000 C 
ENDROOT
BRANCH   1   3
ATOM      2  C   UNL     1       1.897   8.813  18.576  0.00  0.00    +0.000 A 
ATOM      3  C   UNL     1       1.829   7.669  19.380  0.00  0.00    +0.000 A 
ATOM      4  C   UNL     1       1.266   7.812  20.654  0.00  0.00    +0.000 A 
ATOM      5  C   UNL     1       0.834   9.066  21.104  0.00  0.00    +0.000 A 
ATOM      6 CL   UNL     1       0.123   9.128  22.685  0.00  0.00    +0.000 Cl
ATOM      7  C   UNL     1       1.007  10.227  20.316  0.00  0.00    +0.000 A 
ATOM      8  C   UNL     1       0.705  11.538  20.756  0.00  0.00    +0.000 A 
ATOM      9  C   UNL     1       0.975  12.635  19.945  0.00  0.00    +0.000 A 
ATOM     10  C   UNL     1       1.525  12.393  18.704  0.00  0.00    +0.000 A 
ATOM     11  N   UNL     1       1.800  11.160  18.225  0.00  0.00    +0.000 NA
ATOM     12  C   UNL     1       1.557  10.096  19.022  0.00  0.00    +0.000 A 
BRANCH   2  13
ATOM     13  O   UNL     1       2.383   8.658  17.294  0.00  0.00    +0.000 OA
ATOM     14  H   UNL     1       1.588   8.687  16.725  0.00  0.00    +0.000 HD
ENDBRANCH   2  13
ENDBRANCH   1   3
BRANCH   1  15
ATOM     15  N   UNL     1       3.953   6.533  19.000  0.00  0.00    +0.000 N 
ATOM     16  C   UNL     1       4.745   5.790  18.144  0.00  0.00    +0.000 A 
ATOM     17  N   UNL     1       4.375   5.473  16.897  0.00  0.00    +0.000 NA
ATOM     18  C   UNL     1       5.268   4.792  16.154  0.00  0.00    +0.000 A 
ATOM     19  C   UNL     1       6.508   4.416  16.609  0.00  0.00    +0.000 A 
ATOM     20  C   UNL     1       6.788   4.771  17.902  0.00  0.00    +0.000 A 
ATOM     21  N   UNL     1       5.921   5.440  18.683  0.00  0.00    +0.000 NA
ATOM     22  H   UNL     1       4.341   6.274  19.901  0.00  0.00    +0.000 HD
ENDBRANCH   1  15
BRANCH   1  23
ATOM     23  C   UNL     1       2.089   5.161  19.782  0.00  0.00    +0.000 A 
ATOM     24  C   UNL     1       1.280   4.156  19.219  0.00  0.00    +0.000 A 
ATOM     25  C   UNL     1       1.024   2.974  19.921  0.00  0.00    +0.000 A 
ATOM     26  C   UNL     1       1.570   2.793  21.187  0.00  0.00    +0.000 A 
ATOM     27  F   UNL     1       1.374   1.637  21.836  0.00  0.00    +0.000 F 
ATOM     28  C   UNL     1       2.323   3.789  21.788  0.00  0.00    +0.000 A 
ATOM     29  C   UNL     1       2.562   4.976  21.098  0.00  0.00    +0.000 A 
ENDBRANCH   1  23
TORSDOF 4
ENDMDL
MODEL 3
REMARK VINA RESULT:      -7.1      4.740      7.499
REMARK  Name = 
REMARK  4 active torsions:
REMARK  status: ('A' for Active; 'I' for Inactive)
REMARK    1  A    between atoms: O_1  and  C_2
REMARK    2  A    between atoms: C_3  and  C_4
REMARK    3  A    between atoms: C_4  and  N_5
REMARK    4  A    between atoms: C_4  and  C_12
REMARK                            x       y       z     vdW  Elec       q    Type
REMARK                         _______ _______ _______ _____ _____    ______ ____
ROOT
ATOM      1  C   UNL     1       0.096  11.425  19.174  0.00  0.00    +0.000 C 
ENDROOT
BRANCH   1   3
ATOM      2  C   UNL     1       1.150  13.095  20.760  0.00  0.00    +0.000 A 
ATOM      3  C   UNL     1       1.067  12.556  19.471  0.00  0.00    +0.000 A 
ATOM      4  C   UNL     1       1.789  13.199  18.458  0.00  0.00    +0.000 A 
ATOM      5  C   UNL     1       2.525  14.357  18.735  0.00  0.00    +0.000 A 
ATOM      6 CL   UNL     1       3.409  15.057  17.416  0.00  0.00    +0.000 Cl
ATOM      7  C   UNL     1       2.512  14.944  20.021  0.00  0.00    +0.000 A 
ATOM      8  C   UNL     1       3.133  16.176  20.339  0.00  0.00    +0.000 A 
ATOM      9  C   UNL     1       3.010  16.721  21.612  0.00  0.00    +0.000 A 
ATOM     10  C   UNL     1       2.283  16.011  22.544  0.00  0.00    +0.000 A 
ATOM     11  N   UNL     1       1.701  14.817  22.301  0.00  0.00    +0.000 NA
ATOM     12  C   UNL     1       1.802  14.298  21.057  0.00  0.00    +0.000 A 
BRANCH   2  13
ATOM     13  O   UNL     1       0.500  12.420  21.772  0.00  0.00    +0.000 OA
ATOM     14  H   UNL     1       1.069  11.647  21.958  0.00  0.00    +0.000 HD
ENDBRANCH   2  13
ENDBRANCH   1   3
BRANCH   1  15
ATOM     15  N   UNL     1      -0.550  11.663  17.878  0.00  0.00    +0.000 N 
ATOM     16  C   UNL     1      -1.922  11.530  17.778  0.00  0.00    +0.000 A 
ATOM     17  N   UNL     1      -2.761  11.850  18.771  0.00  0.00    +0.000 NA
ATOM     18  C   UNL     1      -4.077  11.723  18.518  0.00  0.00    +0.000 A 
ATOM     19  C   UNL     1      -4.583  11.288  17.318  0.00  0.00    +0.000 A 
ATOM     20  C   UNL     1      -3.646  10.969  16.371  0.00  0.00    +0.000 A 
ATOM     21  N   UNL     1      -2.322  11.069  16.585  0.00  0.00    +0.000 NA
ATOM     22  H   UNL     1      -0.237  11.024  17.154  0.00  0.00    +0.000 HD
ENDBRANCH   1  15
BRANCH   1  23
ATOM     23  C   UNL     1       0.766  10.042  19.146  0.00  0.00    +0.000 A 
ATOM     24  C   UNL     1       1.338   9.566  17.951  0.00  0.00    +0.000 A 
ATOM     25  C   UNL     1       2.081   8.382  17.941  0.00  0.00    +0.000 A 
ATOM     26  C   UNL     1       2.250   7.666  19.120  0.00  0.00    +0.000 A 
ATOM     27  F   UNL     1       3.011   6.562  19.124  0.00  0.00    +0.000 F 
ATOM     28  C   UNL     1       1.651   8.080  20.299  0.00  0.00    +0.000 A 
ATOM     29  C   UNL     1       0.894   9.250  20.307  0.00  0.00    +0.000 A 
ENDBRANCH   1  23
TORSDOF 4
ENDMDL
MODEL 4
REMARK VINA RESULT:      -6.9      4.446      7.272
REMARK  Name = 
REMARK  4 active torsions:
REMARK  status: ('A' for Active; 'I' for Inactive)
REMARK    1  A    between atoms: O_1  and  C_2
REMARK    2  A    between atoms: C_3  and  C_4
REMARK    3  A    between atoms: C_4  and  N_5
REMARK    4  A    between atoms: C_4  and  C_12
REMARK                            x       y       z     vdW  Elec       q    Type
REMARK                         _______ _______ _______ _____ _____    ______ ____
ROOT
ATOM      1  C   UNL     1      -0.126  10.662  19.421  0.00  0.00    +0.000 C 
ENDROOT
BRANCH   1   3
ATOM      2  C   UNL     1      -0.333  12.407  21.246  0.00  0.00    +0.000 A 
ATOM      3  C   UNL     1       0.426  11.832  20.220  0.00  0.00    +0.000 A 
ATOM      4  C   UNL     1       1.623  12.469  19.871  0.00  0.00    +0.000 A 
ATOM      5  C   UNL     1       2.006  13.658  20.505  0.00  0.00    +0.000 A 
ATOM      6 CL   UNL     1       3.521  14.350  20.021  0.00  0.00    +0.000 Cl
ATOM      7  C   UNL     1       1.174  14.277  21.466  0.00  0.00    +0.000 A 
ATOM      8  C   UNL     1       1.442  15.537  22.055  0.00  0.00    +0.000 A 
ATOM      9  C   UNL     1       0.534  16.111  22.937  0.00  0.00    +0.000 A 
ATOM     10  C   UNL     1      -0.615  15.404  23.223  0.00  0.00    +0.000 A 
ATOM     11  N   UNL     1      -0.900  14.186  22.714  0.00  0.00    +0.000 NA
ATOM     12  C   UNL     1      -0.027  13.638  21.840  0.00  0.00    +0.000 A 
BRANCH   2  13
ATOM     13  O   UNL     1      -1.473  11.739  21.641  0.00  0.00    +0.000 OA
ATOM     14  H   UNL     1      -2.191  12.394  21.536  0.00  0.00    +0.000 HD
ENDBRANCH   2  13
ENDBRANCH   1   3
BRANCH   1  15
ATOM     15  N   UNL     1      -0.566  11.137  18.104  0.00  0.00    +0.000 N 
ATOM     16  C   UNL     1      -1.920  11.209  17.837  0.00  0.00    +0.000 A 
ATOM     17  N   UNL     1      -2.832  11.526  18.764  0.00  0.00    +0.000 NA
ATOM     18  C   UNL     1      -4.111  11.614  18.352  0.00  0.00    +0.000 A 
ATOM     19  C   UNL     1      -4.511  11.395  17.056  0.00  0.00    +0.000 A 
ATOM     20  C   UNL     1      -3.508  11.060  16.185  0.00  0.00    +0.000 A 
ATOM     21  N   UNL     1      -2.220  10.949  16.557  0.00  0.00    +0.000 NA
ATOM     22  H   UNL     1      -0.247  10.548  17.341  0.00  0.00    +0.000 HD
ENDBRANCH   1  15
BRANCH   1  23
ATOM     23  C   UNL     1       0.892   9.528  19.223  0.00  0.00    +0.000 A 
ATOM     24  C   UNL     1       1.196   8.666  20.295  0.00  0.00    +0.000 A 
ATOM     25  C   UNL     1       2.002   7.542  20.095  0.00  0.00    +0.000 A 
ATOM     26  C   UNL     1       2.511   7.275  18.830  0.00  0.00    +0.000 A 
ATOM     27  F   UNL     1       3.235   6.166  18.624  0.00  0.00    +0.000 F 
ATOM     28  C   UNL     1       2.275   8.136  17.770  0.00  0.00    +0.000 A 
ATOM     29  C   UNL     1       1.489   9.269  17.971  0.00  0.00    +0.000 A 
ENDBRANCH   1  23
TORSDOF 4
ENDMDL
MODEL 5
REMARK VINA RESULT:      -6.8      4.295      8.398
REMARK  Name = 
REMARK  4 active torsions:
REMARK  status: ('A' for Active; 'I' for Inactive)
REMARK    1  A    between atoms: O_1  and  C_2
REMARK    2  A    between atoms: C_3  and  C_4
REMARK    3  A    between atoms: C_4  and  N_5
REMARK    4  A    between atoms: C_4  and  C_12
REMARK                            x       y       z     vdW  Elec       q    Type
REMARK                         _______ _______ _______ _____ _____    ______ ____
ROOT
ATOM      1  C   UNL     1      -0.148  11.781  18.481  0.00  0.00    +0.000 C 
ENDROOT
BRANCH   1   3
ATOM      2  C   UNL     1       1.382   9.764  18.570  0.00  0.00    +0.000 A 
ATOM      3  C   UNL     1       0.477  10.610  19.222  0.00  0.00    +0.000 A 
ATOM      4  C   UNL     1       0.066  10.242  20.509  0.00  0.00    +0.000 A 
ATOM      5  C   UNL     1       0.520   9.051  21.087  0.00  0.00    +0.000 A 
ATOM      6 CL   UNL     1      -0.024   8.704  22.697  0.00  0.00    +0.000 Cl
ATOM      7  C   UNL     1       1.353   8.159  20.371  0.00  0.00    +0.000 A 
ATOM      8  C   UNL     1       1.749   6.886  20.847  0.00  0.00    +0.000 A 
ATOM      9  C   UNL     1       2.508   6.039  20.048  0.00  0.00    +0.000 A 
ATOM     10  C   UNL     1       2.869   6.492  18.797  0.00  0.00    +0.000 A 
ATOM     11  N   UNL     1       2.545   7.710  18.310  0.00  0.00    +0.000 NA
ATOM     12  C   UNL     1       1.789   8.524  19.079  0.00  0.00    +0.000 A 
BRANCH   2  13
ATOM     13  O   UNL     1       1.845  10.163  17.334  0.00  0.00    +0.000 OA
ATOM     14  H   UNL     1       1.083  10.614  16.919  0.00  0.00    +0.000 HD
ENDBRANCH   2  13
ENDBRANCH   1   3
BRANCH   1  15
ATOM     15  N   UNL     1      -1.609  11.716  18.610  0.00  0.00    +0.000 N 
ATOM     16  C   UNL     1      -2.354  11.231  17.552  0.00  0.00    +0.000 A 
ATOM     17  N   UNL     1      -1.924  10.255  16.742  0.00  0.00    +0.000 NA
ATOM     18  C   UNL     1      -2.776   9.841  15.785  0.00  0.00    +0.000 A 
ATOM     19  C   UNL     1      -4.033  10.365  15.606  0.00  0.00    +0.000 A 
ATOM     20  C   UNL     1      -4.376  11.369  16.473  0.00  0.00    +0.000 A 
ATOM     21  N   UNL     1      -3.551  11.821  17.434  0.00  0.00    +0.000 NA
ATOM     22  H   UNL     1      -2.037  12.625  18.751  0.00  0.00    +0.000 HD
ENDBRANCH   1  15
BRANCH   1  23
ATOM     23  C   UNL     1       0.333  13.148  18.990  0.00  0.00    +0.000 A 
ATOM     24  C   UNL     1       1.702  13.357  19.246  0.00  0.00    +0.000 A 
ATOM     25  C   UNL     1       2.178  14.632  19.565  0.00  0.00    +0.000 A 
ATOM     26  C   UNL     1       1.292  15.701  19.635  0.00  0.00    +0.000 A 
ATOM     27  F   UNL     1       1.756  16.934  19.882  0.00  0.00    +0.000 F 
ATOM     28  C   UNL     1      -0.068  15.514  19.443  0.00  0.00    +0.000 A 
ATOM     29  C   UNL     1      -0.548  14.240  19.145  0.00  0.00    +0.000 A 
ENDBRANCH   1  23
TORSDOF 4
ENDMDL
MODEL 6
REMARK VINA RESULT:      -6.8      6.323     10.402
REMARK  Name = 
REMARK  4 active torsions:
REMARK  status: ('A' for Active; 'I' for Inactive)
REMARK    1  A    between atoms: O_1  and  C_2
REMARK    2  A    between atoms: C_3  and  C_4
REMARK    3  A    between atoms: C_4  and  N_5
REMARK    4  A    between atoms: C_4  and  C_12
REMARK                            x       y       z     vdW  Elec       q    Type
REMARK                         _______ _______ _______ _____ _____    ______ ____
ROOT
ATOM      1  C   UNL     1      -2.880  13.275  22.078  0.00  0.00    +0.000 C 
ENDROOT
BRANCH   1   3
ATOM      2  C   UNL     1      -1.293  12.225  20.406  0.00  0.00    +0.000 A 
ATOM      3  C   UNL     1      -1.745  12.327  21.727  0.00  0.00    +0.000 A 
ATOM      4  C   UNL     1      -1.220  11.422  22.658  0.00  0.00    +0.000 A 
ATOM      5  C   UNL     1      -0.313  10.434  22.255  0.00  0.00    +0.000 A 
ATOM      6 CL   UNL     1       0.301   9.384  23.492  0.00  0.00    +0.000 Cl
ATOM      7  C   UNL     1       0.051  10.283  20.897  0.00  0.00    +0.000 A 
ATOM      8  C   UNL     1       0.864   9.234  20.405  0.00  0.00    +0.000 A 
ATOM      9  C   UNL     1       1.114   9.114  19.042  0.00  0.00    +0.000 A 
ATOM     10  C   UNL     1       0.557  10.057  18.205  0.00  0.00    +0.000 A 
ATOM     11  N   UNL     1      -0.197  11.095  18.628  0.00  0.00    +0.000 NA
ATOM     12  C   UNL     1      -0.457  11.198  19.950  0.00  0.00    +0.000 A 
BRANCH   2  13
ATOM     13  O   UNL     1      -1.752  13.162  19.505  0.00  0.00    +0.000 OA
ATOM     14  H   UNL     1      -1.062  13.198  18.813  0.00  0.00    +0.000 HD
ENDBRANCH   2  13
ENDBRANCH   1   3
BRANCH   1  15
ATOM     15  N   UNL     1      -4.086  12.499  22.389  0.00  0.00    +0.000 N 
ATOM     16  C   UNL     1      -5.118  12.468  21.470  0.00  0.00    +0.000 A 
ATOM     17  N   UNL     1      -4.918  12.491  20.147  0.00  0.00    +0.000 NA
ATOM     18  C   UNL     1      -6.012  12.400  19.367  0.00  0.00    +0.000 A 
ATOM     19  C   UNL     1      -7.290  12.291  19.857  0.00  0.00    +0.000 A 
ATOM     20  C   UNL     1      -7.393  12.293  21.222  0.00  0.00    +0.000 A 
ATOM     21  N   UNL     1      -6.329  12.394  22.039  0.00  0.00    +0.000 NA
ATOM     22  H   UNL     1      -4.570  12.830  23.217  0.00  0.00    +0.000 HD
ENDBRANCH   1  15
BRANCH   1  23
ATOM     23  C   UNL     1      -2.559  14.190  23.271  0.00  0.00    +0.000 A 
ATOM     24  C   UNL     1      -3.364  14.141  24.425  0.00  0.00    +0.000 A 
ATOM     25  C   UNL     1      -3.003  14.853  25.573  0.00  0.00    +0.000 A 
ATOM     26  C   UNL     1      -1.843  15.619  25.573  0.00  0.00    +0.000 A 
ATOM     27  F   UNL     1      -1.465  16.253  26.691  0.00  0.00    +0.000 F 
ATOM     28  C   UNL     1      -1.063  15.730  24.433  0.00  0.00    +0.000 A 
ATOM     29  C   UNL     1      -1.431  15.038  23.281  0.00  0.00    +0.000 A 
ENDBRANCH   1  23
TORSDOF 4
ENDMDL
MODEL 7
REMARK VINA RESULT:      -6.8      4.393      6.974
REMARK  Name = 
REMARK  4 active torsions:
REMARK  status: ('A' for Active; 'I' for Inactive)
REMARK    1  A    between atoms: O_1  and  C_2
REMARK    2  A    between atoms: C_3  and  C_4
REMARK    3  A    between atoms: C_4  and  N_5
REMARK    4  A    between atoms: C_4  and  C_12
REMARK                            x       y       z     vdW  Elec       q    Type
REMARK                         _______ _______ _______ _____ _____    ______ ____
ROOT
ATOM      1  C   UNL     1       0.432  11.434  19.117  0.00  0.00    +0.000 C 
ENDROOT
BRANCH   1   3
ATOM      2  C   UNL     1      -1.919  11.283  18.185  0.00  0.00    +0.000 A 
ATOM      3  C   UNL     1      -1.076  11.546  19.271  0.00  0.00    +0.000 A 
ATOM      4  C   UNL     1      -1.667  12.056  20.434  0.00  0.00    +0.000 A 
ATOM      5  C   UNL     1      -3.040  12.325  20.474  0.00  0.00    +0.000 A 
ATOM      6 CL   UNL     1      -3.676  12.925  21.972  0.00  0.00    +0.000 Cl
ATOM      7  C   UNL     1      -3.855  12.151  19.333  0.00  0.00    +0.000 A 
ATOM      8  C   UNL     1      -5.221  12.517  19.267  0.00  0.00    +0.000 A 
ATOM      9  C   UNL     1      -5.933  12.381  18.081  0.00  0.00    +0.000 A 
ATOM     10  C   UNL     1      -5.266  11.864  16.991  0.00  0.00    +0.000 A 
ATOM     11  N   UNL     1      -3.975  11.469  17.010  0.00  0.00    +0.000 NA
ATOM     12  C   UNL     1      -3.277  11.622  18.158  0.00  0.00    +0.000 A 
BRANCH   2  13
ATOM     13  O   UNL     1      -1.351  10.712  17.066  0.00  0.00    +0.000 OA
ATOM     14  H   UNL     1      -0.551  10.258  17.399  0.00  0.00    +0.000 HD
ENDBRANCH   2  13
ENDBRANCH   1   3
BRANCH   1  15
ATOM     15  N   UNL     1       1.089  12.286  20.114  0.00  0.00    +0.000 N 
ATOM     16  C   UNL     1       1.906  13.314  19.683  0.00  0.00    +0.000 A 
ATOM     17  N   UNL     1       1.670  14.016  18.567  0.00  0.00    +0.000 NA
ATOM     18  C   UNL     1       2.517  15.027  18.296  0.00  0.00    +0.000 A 
ATOM     19  C   UNL     1       3.587  15.359  19.091  0.00  0.00    +0.000 A 
ATOM     20  C   UNL     1       3.755  14.573  20.200  0.00  0.00    +0.000 A 
ATOM     21  N   UNL     1       2.941  13.546  20.502  0.00  0.00    +0.000 NA
ATOM     22  H   UNL     1       1.721  11.775  20.721  0.00  0.00    +0.000 HD
ENDBRANCH   1  15
BRANCH   1  23
ATOM     23  C   UNL     1       0.953   9.997  19.274  0.00  0.00    +0.000 A 
ATOM     24  C   UNL     1       1.632   9.379  18.206  0.00  0.00    +0.000 A 
ATOM     25  C   UNL     1       2.243   8.133  18.380  0.00  0.00    +0.000 A 
ATOM     26  C   UNL     1       2.174   7.498  19.614  0.00  0.00    +0.000 A 
ATOM     27  F   UNL     1       2.809   6.332  19.799  0.00  0.00    +0.000 F 
ATOM     28  C   UNL     1       1.465   8.057  20.666  0.00  0.00    +0.000 A 
ATOM     29  C   UNL     1       0.838   9.289  20.489  0.00  0.00    +0.000 A 
ENDBRANCH   1  23
TORSDOF 4
ENDMDL
MODEL 8
REMARK VINA RESULT:      -6.8      4.286      6.915
REMARK  Name = 
REMARK  4 active torsions:
REMARK  status: ('A' for Active; 'I' for Inactive)
REMARK    1  A    between atoms: O_1  and  C_2
REMARK    2  A    between atoms: C_3  and  C_4
REMARK    3  A    between atoms: C_4  and  N_5
REMARK    4  A    between atoms: C_4  and  C_12
REMARK                            x       y       z     vdW  Elec       q    Type
REMARK                         _______ _______ _______ _____ _____    ______ ____
ROOT
ATOM      1  C   UNL     1      -0.369  10.685  19.123  0.00  0.00    +0.000 C 
ENDROOT
BRANCH   1   3
ATOM      2  C   UNL     1       1.186  12.674  19.323  0.00  0.00    +0.000 A 
ATOM      3  C   UNL     1       0.076  11.969  19.803  0.00  0.00    +0.000 A 
ATOM      4  C   UNL     1      -0.494  12.408  21.004  0.00  0.00    +0.000 A 
ATOM      5  C   UNL     1       0.064  13.485  21.704  0.00  0.00    +0.000 A 
ATOM      6 CL   UNL     1      -0.737  13.969  23.164  0.00  0.00    +0.000 Cl
ATOM      7  C   UNL     1       1.246  14.117  21.255  0.00  0.00    +0.000 A 
ATOM      8  C   UNL     1       1.929  15.127  21.974  0.00  0.00    +0.000 A 
ATOM      9  C   UNL     1       3.128  15.646  21.498  0.00  0.00    +0.000 A 
ATOM     10  C   UNL     1       3.608  15.153  20.303  0.00  0.00    +0.000 A 
ATOM     11  N   UNL     1       2.977  14.215  19.562  0.00  0.00    +0.000 NA
ATOM     12  C   UNL     1       1.823  13.696  20.037  0.00  0.00    +0.000 A 
BRANCH   2  13
ATOM     13  O   UNL     1       1.702  12.289  18.103  0.00  0.00    +0.000 OA
ATOM     14  H   UNL     1       2.651  12.518  18.154  0.00  0.00    +0.000 HD
ENDBRANCH   2  13
ENDBRANCH   1   3
BRANCH   1  15
ATOM     15  N   UNL     1      -0.742  10.973  17.732  0.00  0.00    +0.000 N 
ATOM     16  C   UNL     1      -2.081  11.075  17.405  0.00  0.00    +0.000 A 
ATOM     17  N   UNL     1      -3.000  11.579  18.237  0.00  0.00    +0.000 NA
ATOM     18  C   UNL     1      -4.258  11.670  17.768  0.00  0.00    +0.000 A 
ATOM     19  C   UNL     1      -4.631  11.276  16.506  0.00  0.00    +0.000 A 
ATOM     20  C   UNL     1      -3.624  10.758  15.735  0.00  0.00    +0.000 A 
ATOM     21  N   UNL     1      -2.357  10.638  16.169  0.00  0.00    +0.000 NA
ATOM     22  H   UNL     1      -0.434  10.258  17.081  0.00  0.00    +0.000 HD
ENDBRANCH   1  15
BRANCH   1  23
ATOM     23  C   UNL     1       0.708   9.589  19.129  0.00  0.00    +0.000 A 
ATOM     24  C   UNL     1       1.014   8.916  20.327  0.00  0.00    +0.000 A 
ATOM     25  C   UNL     1       1.880   7.818  20.323  0.00  0.00    +0.000 A 
ATOM     26  C   UNL     1       2.448   7.392  19.128  0.00  0.00    +0.000 A 
ATOM     27  F   UNL     1       3.231   6.305  19.114  0.00  0.00    +0.000 F 
ATOM     28  C   UNL     1       2.208   8.071  17.943  0.00  0.00    +0.000 A 
ATOM     29  C   UNL     1       1.362   9.177  17.948  0.00  0.00    +0.000 A 
ENDBRANCH   1  23
TORSDOF 4
ENDMDL
MODEL 9
REMARK VINA RESULT:      -6.7      3.680      7.567
REMARK  Name = 
REMARK  4 active torsions:
REMARK  status: ('A' for Active; 'I' for Inactive)
REMARK    1  A    between atoms: O_1  and  C_2
REMARK    2  A    between atoms: C_3  and  C_4
REMARK    3  A    between atoms: C_4  and  N_5
REMARK    4  A    between atoms: C_4  and  C_12
REMARK                            x       y       z     vdW  Elec       q    Type
REMARK                         _______ _______ _______ _____ _____    ______ ____
ROOT
ATOM      1  C   UNL     1       1.087  10.494  19.158  0.00  0.00    +0.000 C 
ENDROOT
BRANCH   1   3
ATOM      2  C   UNL     1       1.294   8.078  19.889  0.00  0.00    +0.000 A 
ATOM      3  C   UNL     1       1.591   9.075  18.952  0.00  0.00    +0.000 A 
ATOM      4  C   UNL     1       2.482   8.745  17.924  0.00  0.00    +0.000 A 
ATOM      5  C   UNL     1       3.076   7.478  17.877  0.00  0.00    +0.000 A 
ATOM      6 CL   UNL     1       4.141   7.162  16.544  0.00  0.00    +0.000 Cl
ATOM      7  C   UNL     1       2.842   6.521  18.890  0.00  0.00    +0.000 A 
ATOM      8  C   UNL     1       3.501   5.270  18.970  0.00  0.00    +0.000 A 
ATOM      9  C   UNL     1       3.268   4.416  20.042  0.00  0.00    +0.000 A 
ATOM     10  C   UNL     1       2.369   4.826  21.003  0.00  0.00    +0.000 A 
ATOM     11  N   UNL     1       1.690   5.993  20.956  0.00  0.00    +0.000 NA
ATOM     12  C   UNL     1       1.933   6.832  19.924  0.00  0.00    +0.000 A 
BRANCH   2  13
ATOM     13  O   UNL     1       0.360   8.377  20.858  0.00  0.00    +0.000 OA
ATOM     14  H   UNL     1      -0.261   8.993  20.421  0.00  0.00    +0.000 HD
ENDBRANCH   2  13
ENDBRANCH   1   3
BRANCH   1  15
ATOM     15  N   UNL     1       1.910  11.422  18.373  0.00  0.00    +0.000 N 
ATOM     16  C   UNL     1       2.164  12.683  18.877  0.00  0.00    +0.000 A 
ATOM     17  N   UNL     1       2.319  12.930  20.184  0.00  0.00    +0.000 NA
ATOM     18  C   UNL     1       2.617  14.196  20.531  0.00  0.00    +0.000 A 
ATOM     19  C   UNL     1       2.763  15.220  19.627  0.00  0.00    +0.000 A 
ATOM     20  C   UNL     1       2.569  14.873  18.316  0.00  0.00    +0.000 A 
ATOM     21  N   UNL     1       2.258  13.623  17.926  0.00  0.00    +0.000 NA
ATOM     22  H   UNL     1       1.504  11.649  17.471  0.00  0.00    +0.000 HD
ENDBRANCH   1  15
BRANCH   1  23
ATOM     23  C   UNL     1      -0.385  10.680  18.758  0.00  0.00    +0.000 A 
ATOM     24  C   UNL     1      -1.191  11.594  19.464  0.00  0.00    +0.000 A 
ATOM     25  C   UNL     1      -2.485  11.886  19.023  0.00  0.00    +0.000 A 
ATOM     26  C   UNL     1      -2.981  11.266  17.883  0.00  0.00    +0.000 A 
ATOM     27  F   UNL     1      -4.199  11.590  17.426  0.00  0.00    +0.000 F 
ATOM     28  C   UNL     1      -2.231  10.321  17.201  0.00  0.00    +0.000 A 
ATOM     29  C   UNL     1      -0.948  10.013  17.650  0.00  0.00    +0.000 A 
ENDBRANCH   1  23
TORSDOF 4
ENDMDL
