MODEL 1
REMARK VINA RESULT:      -6.6      0.000      0.000
REMARK  Name = 
REMARK  2 active torsions:
REMARK  status: ('A' for Active; 'I' for Inactive)
REMARK    1  A    between atoms: C_5  and  C_6
REMARK    2  A    between atoms: C_9  and  C_10
REMARK                            x       y       z     vdW  Elec       q    Type
REMARK                         _______ _______ _______ _____ _____    ______ ____
ROOT
ATOM      1  C   UNL     1       4.670   5.084  17.038  0.00  0.00    +0.000 A 
ATOM      2  C   UNL     1       4.083   6.292  17.350  0.00  0.00    +0.000 A 
ATOM      3  S   UNL     1       3.078   6.200  18.730  0.00  0.00    +0.000 S 
ATOM      4  C   UNL     1       3.406   4.529  18.957  0.00  0.00    +0.000 A 
ATOM      5  C   UNL     1       4.263   4.072  17.972  0.00  0.00    +0.000 A 
ENDROOT
BRANCH   1  10
ATOM      6  C   UNL     1       6.116   4.048  13.711  0.00  0.00    +0.000 A 
ATOM      7  C   UNL     1       7.326   4.716  13.791  0.00  0.00    +0.000 A 
ATOM      8  N   UNL     1       7.702   5.457  14.853  0.00  0.00    +0.000 NA
ATOM      9  C   UNL     1       6.819   5.533  15.880  0.00  0.00    +0.000 A 
ATOM     10  C   UNL     1       5.572   4.908  15.903  0.00  0.00    +0.000 A 
ATOM     11  C   UNL     1       5.229   4.148  14.782  0.00  0.00    +0.000 A 
ENDBRANCH   1  10
BRANCH   4  12
ATOM     12  C   UNL     1       2.837   3.779  20.053  0.00  0.00    +0.000 A 
ATOM     13  C   UNL     1       3.442   2.857  20.894  0.00  0.00    +0.000 A 
ATOM     14  N   UNL     1       2.634   2.273  21.855  0.00  0.00    +0.000 NA
ATOM     15  C   UNL     1       1.417   2.754  21.739  0.00  0.00    +0.000 A 
ATOM     16  S   UNL     1       1.179   3.919  20.511  0.00  0.00    +0.000 S 
ENDBRANCH   4  12
TORSDOF 2
ENDMDL
MODEL 2
REMARK VINA RESULT:      -6.5      1.699      1.863
REMARK  Name = 
REMARK  2 active torsions:
REMARK  status: ('A' for Active; 'I' for Inactive)
REMARK    1  A    between atoms: C_5  and  C_6
REMARK    2  A    between atoms: C_9  and  C_10
REMARK                            x       y       z     vdW  Elec       q    Type
REMARK                         _______ _______ _______ _____ _____    ______ ____
ROOT
ATOM      1  C   UNL     1       5.654   4.359  16.402  0.00  0.00    +0.000 A 
ATOM      2  C   UNL     1       6.315   4.804  17.528  0.00  0.00    +0.000 A 
ATOM      3  S   UNL     1       5.387   4.620  18.953  0.00  0.00    +0.000 S 
ATOM      4  C   UNL     1       4.066   3.929  18.100  0.00  0.00    +0.000 A 
ATOM      5  C   UNL     1       4.352   3.863  16.748  0.00  0.00    +0.000 A 
ENDROOT
BRANCH   1  10
ATOM      6  C   UNL     1       6.326   3.762  12.739  0.00  0.00    +0.000 A 
ATOM      7  C   UNL     1       7.377   4.648  12.570  0.00  0.00    +0.000 A 
ATOM      8  N   UNL     1       7.884   5.403  13.566  0.00  0.00    +0.000 NA
ATOM      9  C   UNL     1       7.305   5.264  14.785  0.00  0.00    +0.000 A 
ATOM     10  C   UNL     1       6.240   4.409  15.065  0.00  0.00    +0.000 A 
ATOM     11  C   UNL     1       5.751   3.643  14.003  0.00  0.00    +0.000 A 
ENDBRANCH   1  10
BRANCH   4  12
ATOM     12  C   UNL     1       2.864   3.493  18.773  0.00  0.00    +0.000 A 
ATOM     13  C   UNL     1       1.733   2.888  18.246  0.00  0.00    +0.000 A 
ATOM     14  N   UNL     1       0.715   2.597  19.138  0.00  0.00    +0.000 NA
ATOM     15  C   UNL     1       1.078   2.981  20.340  0.00  0.00    +0.000 A 
ATOM     16  S   UNL     1       2.630   3.685  20.472  0.00  0.00    +0.000 S 
ENDBRANCH   4  12
TORSDOF 2
ENDMDL
MODEL 3
REMARK VINA RESULT:      -6.4      1.667      1.864
REMARK  Name = 
REMARK  2 active torsions:
REMARK  status: ('A' for Active; 'I' for Inactive)
REMARK    1  A    between atoms: C_5  and  C_6
REMARK    2  A    between atoms: C_9  and  C_10
REMARK                            x       y       z     vdW  Elec       q    Type
REMARK                         _______ _______ _______ _____ _____    ______ ____
ROOT
ATOM      1  C   UNL     1       5.665   4.442  16.271  0.00  0.00    +0.000 A 
ATOM      2  C   UNL     1       6.455   4.830  17.334  0.00  0.00    +0.000 A 
ATOM      3  S   UNL     1       5.616   4.801  18.823  0.00  0.00    +0.000 S 
ATOM      4  C   UNL     1       4.162   4.258  18.087  0.00  0.00    +0.000 A 
ATOM      5  C   UNL     1       4.340   4.121  16.721  0.00  0.00    +0.000 A 
ENDROOT
BRANCH   1  10
ATOM      6  C   UNL     1       6.064   3.574  12.622  0.00  0.00    +0.000 A 
ATOM      7  C   UNL     1       7.118   4.420  12.318  0.00  0.00    +0.000 A 
ATOM      8  N   UNL     1       7.709   5.229  13.220  0.00  0.00    +0.000 NA
ATOM      9  C   UNL     1       7.216   5.190  14.483  0.00  0.00    +0.000 A 
ATOM     10  C   UNL     1       6.156   4.384  14.897  0.00  0.00    +0.000 A 
ATOM     11  C   UNL     1       5.578   3.558  13.928  0.00  0.00    +0.000 A 
ENDBRANCH   1  10
BRANCH   4  12
ATOM     12  C   UNL     1       2.967   3.993  18.854  0.00  0.00    +0.000 A 
ATOM     13  C   UNL     1       2.551   4.550  20.054  0.00  0.00    +0.000 A 
ATOM     14  N   UNL     1       1.356   4.082  20.572  0.00  0.00    +0.000 NA
ATOM     15  C   UNL     1       0.867   3.172  19.762  0.00  0.00    +0.000 A 
ATOM     16  S   UNL     1       1.783   2.840  18.357  0.00  0.00    +0.000 S 
ENDBRANCH   4  12
TORSDOF 2
ENDMDL
MODEL 4
REMARK VINA RESULT:      -6.3      3.085      3.896
REMARK  Name = 
REMARK  2 active torsions:
REMARK  status: ('A' for Active; 'I' for Inactive)
REMARK    1  A    between atoms: C_5  and  C_6
REMARK    2  A    between atoms: C_9  and  C_10
REMARK                            x       y       z     vdW  Elec       q    Type
REMARK                         _______ _______ _______ _____ _____    ______ ____
ROOT
ATOM      1  C   UNL     1       4.212   5.684  17.677  0.00  0.00    +0.000 A 
ATOM      2  C   UNL     1       3.723   4.803  18.619  0.00  0.00    +0.000 A 
ATOM      3  S   UNL     1       2.566   5.519  19.654  0.00  0.00    +0.000 S 
ATOM      4  C   UNL     1       2.680   7.039  18.862  0.00  0.00    +0.000 A 
ATOM      5  C   UNL     1       3.605   6.975  17.835  0.00  0.00    +0.000 A 
ENDROOT
BRANCH   1  10
ATOM      6  C   UNL     1       5.971   3.992  14.801  0.00  0.00    +0.000 A 
ATOM      7  C   UNL     1       7.135   4.742  14.795  0.00  0.00    +0.000 A 
ATOM      8  N   UNL     1       7.385   5.739  15.669  0.00  0.00    +0.000 NA
ATOM      9  C   UNL     1       6.420   5.994  16.587  0.00  0.00    +0.000 A 
ATOM     10  C   UNL     1       5.210   5.307  16.680  0.00  0.00    +0.000 A 
ATOM     11  C   UNL     1       4.998   4.280  15.756  0.00  0.00    +0.000 A 
ENDBRANCH   1  10
BRANCH   4  12
ATOM     12  C   UNL     1       1.882   8.175  19.264  0.00  0.00    +0.000 A 
ATOM     13  C   UNL     1       1.325   8.464  20.501  0.00  0.00    +0.000 A 
ATOM     14  N   UNL     1       0.582   9.628  20.588  0.00  0.00    +0.000 NA
ATOM     15  C   UNL     1       0.579  10.221  19.416  0.00  0.00    +0.000 A 
ATOM     16  S   UNL     1       1.457   9.442  18.173  0.00  0.00    +0.000 S 
ENDBRANCH   4  12
TORSDOF 2
ENDMDL
MODEL 5
REMARK VINA RESULT:      -6.2      1.264      1.484
REMARK  Name = 
REMARK  2 active torsions:
REMARK  status: ('A' for Active; 'I' for Inactive)
REMARK    1  A    between atoms: C_5  and  C_6
REMARK    2  A    between atoms: C_9  and  C_10
REMARK                            x       y       z     vdW  Elec       q    Type
REMARK                         _______ _______ _______ _____ _____    ______ ____
ROOT
ATOM      1  C   UNL     1       5.226   4.909  15.804  0.00  0.00    +0.000 A 
ATOM      2  C   UNL     1       5.145   6.158  16.385  0.00  0.00    +0.000 A 
ATOM      3  S   UNL     1       4.226   6.156  17.827  0.00  0.00    +0.000 S 
ATOM      4  C   UNL     1       3.912   4.470  17.721  0.00  0.00    +0.000 A 
ATOM      5  C   UNL     1       4.502   3.945  16.584  0.00  0.00    +0.000 A 
ENDROOT
BRANCH   1  10
ATOM      6  C   UNL     1       6.242   3.554  12.434  0.00  0.00    +0.000 A 
ATOM      7  C   UNL     1       7.378   4.321  12.233  0.00  0.00    +0.000 A 
ATOM      8  N   UNL     1       7.835   5.226  13.122  0.00  0.00    +0.000 NA
ATOM      9  C   UNL     1       7.117   5.369  14.263  0.00  0.00    +0.000 A 
ATOM     10  C   UNL     1       5.957   4.655  14.566  0.00  0.00    +0.000 A 
ATOM     11  C   UNL     1       5.524   3.726  13.616  0.00  0.00    +0.000 A 
ENDBRANCH   1  10
BRANCH   4  12
ATOM     12  C   UNL     1       3.142   3.769  18.722  0.00  0.00    +0.000 A 
ATOM     13  C   UNL     1       3.552   3.243  19.937  0.00  0.00    +0.000 A 
ATOM     14  N   UNL     1       2.586   2.598  20.690  0.00  0.00    +0.000 NA
ATOM     15  C   UNL     1       1.445   2.638  20.043  0.00  0.00    +0.000 A 
ATOM     16  S   UNL     1       1.457   3.444  18.536  0.00  0.00    +0.000 S 
ENDBRANCH   4  12
TORSDOF 2
ENDMDL
MODEL 6
REMARK VINA RESULT:      -6.2      0.952      1.059
REMARK  Name = 
REMARK  2 active torsions:
REMARK  status: ('A' for Active; 'I' for Inactive)
REMARK    1  A    between atoms: C_5  and  C_6
REMARK    2  A    between atoms: C_9  and  C_10
REMARK                            x       y       z     vdW  Elec       q    Type
REMARK                         _______ _______ _______ _____ _____    ______ ____
ROOT
ATOM      1  C   UNL     1       4.709   5.188  16.791  0.00  0.00    +0.000 A 
ATOM      2  C   UNL     1       4.223   6.432  17.134  0.00  0.00    +0.000 A 
ATOM      3  S   UNL     1       3.190   6.384  18.496  0.00  0.00    +0.000 S 
ATOM      4  C   UNL     1       3.370   4.685  18.673  0.00  0.00    +0.000 A 
ATOM      5  C   UNL     1       4.201   4.186  17.685  0.00  0.00    +0.000 A 
ENDROOT
BRANCH   1  10
ATOM      6  C   UNL     1       6.176   3.987  13.530  0.00  0.00    +0.000 A 
ATOM      7  C   UNL     1       7.361   4.703  13.556  0.00  0.00    +0.000 A 
ATOM      8  N   UNL     1       7.714   5.527  14.564  0.00  0.00    +0.000 NA
ATOM      9  C   UNL     1       6.834   5.638  15.590  0.00  0.00    +0.000 A 
ATOM     10  C   UNL     1       5.612   4.970  15.664  0.00  0.00    +0.000 A 
ATOM     11  C   UNL     1       5.291   4.125  14.598  0.00  0.00    +0.000 A 
ENDBRANCH   1  10
BRANCH   4  12
ATOM     12  C   UNL     1       2.720   3.952  19.736  0.00  0.00    +0.000 A 
ATOM     13  C   UNL     1       1.494   4.184  20.341  0.00  0.00    +0.000 A 
ATOM     14  N   UNL     1       1.133   3.319  21.359  0.00  0.00    +0.000 NA
ATOM     15  C   UNL     1       2.087   2.432  21.523  0.00  0.00    +0.000 A 
ATOM     16  S   UNL     1       3.435   2.570  20.481  0.00  0.00    +0.000 S 
ENDBRANCH   4  12
TORSDOF 2
ENDMDL
MODEL 7
REMARK VINA RESULT:      -6.2      3.372      4.237
REMARK  Name = 
REMARK  2 active torsions:
REMARK  status: ('A' for Active; 'I' for Inactive)
REMARK    1  A    between atoms: C_5  and  C_6
REMARK    2  A    between atoms: C_9  and  C_10
REMARK                            x       y       z     vdW  Elec       q    Type
REMARK                         _______ _______ _______ _____ _____    ______ ____
ROOT
ATOM      1  C   UNL     1       4.120   5.928  17.766  0.00  0.00    +0.000 A 
ATOM      2  C   UNL     1       3.643   5.167  18.813  0.00  0.00    +0.000 A 
ATOM      3  S   UNL     1       2.459   5.985  19.737  0.00  0.00    +0.000 S 
ATOM      4  C   UNL     1       2.545   7.390  18.753  0.00  0.00    +0.000 A 
ATOM      5  C   UNL     1       3.481   7.214  17.749  0.00  0.00    +0.000 A 
ENDROOT
BRANCH   1  10
ATOM      6  C   UNL     1       5.942   3.922  15.142  0.00  0.00    +0.000 A 
ATOM      7  C   UNL     1       7.092   4.689  15.053  0.00  0.00    +0.000 A 
ATOM      8  N   UNL     1       7.314   5.791  15.796  0.00  0.00    +0.000 NA
ATOM      9  C   UNL     1       6.335   6.142  16.666  0.00  0.00    +0.000 A 
ATOM     10  C   UNL     1       5.136   5.449  16.833  0.00  0.00    +0.000 A 
ATOM     11  C   UNL     1       4.952   4.310  16.044  0.00  0.00    +0.000 A 
ENDBRANCH   1  10
BRANCH   4  12
ATOM     12  C   UNL     1       1.717   8.548  18.997  0.00  0.00    +0.000 A 
ATOM     13  C   UNL     1       1.319   9.544  18.119  0.00  0.00    +0.000 A 
ATOM     14  N   UNL     1       0.532  10.555  18.644  0.00  0.00    +0.000 NA
ATOM     15  C   UNL     1       0.335  10.321  19.921  0.00  0.00    +0.000 A 
ATOM     16  S   UNL     1       1.052   8.902  20.549  0.00  0.00    +0.000 S 
ENDBRANCH   4  12
TORSDOF 2
ENDMDL
MODEL 8
REMARK VINA RESULT:      -6.2      3.529      6.644
REMARK  Name = 
REMARK  2 active torsions:
REMARK  status: ('A' for Active; 'I' for Inactive)
REMARK    1  A    between atoms: C_5  and  C_6
REMARK    2  A    between atoms: C_9  and  C_10
REMARK                            x       y       z     vdW  Elec       q    Type
REMARK                         _______ _______ _______ _____ _____    ______ ____
ROOT
ATOM      1  C   UNL     1       2.791   6.942  18.705  0.00  0.00    +0.000 A 
ATOM      2  C   UNL     1       2.648   5.742  19.370  0.00  0.00    +0.000 A 
ATOM      3  S   UNL     1       3.766   4.560  18.844  0.00  0.00    +0.000 S 
ATOM      4  C   UNL     1       4.484   5.629  17.706  0.00  0.00    +0.000 A 
ATOM      5  C   UNL     1       3.852   6.859  17.741  0.00  0.00    +0.000 A 
ENDROOT
BRANCH   1  10
ATOM      6  C   UNL     1       0.727  10.072  18.291  0.00  0.00    +0.000 A 
ATOM      7  C   UNL     1       0.306  10.221  19.602  0.00  0.00    +0.000 A 
ATOM      8  N   UNL     1       0.662   9.388  20.600  0.00  0.00    +0.000 NA
ATOM      9  C   UNL     1       1.475   8.355  20.264  0.00  0.00    +0.000 A 
ATOM     10  C   UNL     1       1.953   8.107  18.978  0.00  0.00    +0.000 A 
ATOM     11  C   UNL     1       1.561   9.000  17.977  0.00  0.00    +0.000 A 
ENDBRANCH   1  10
BRANCH   4  12
ATOM     12  C   UNL     1       5.596   5.228  16.875  0.00  0.00    +0.000 A 
ATOM     13  C   UNL     1       6.862   4.802  17.246  0.00  0.00    +0.000 A 
ATOM     14  N   UNL     1       7.739   4.500  16.218  0.00  0.00    +0.000 NA
ATOM     15  C   UNL     1       7.135   4.698  15.070  0.00  0.00    +0.000 A 
ATOM     16  S   UNL     1       5.513   5.231  15.151  0.00  0.00    +0.000 S 
ENDBRANCH   4  12
TORSDOF 2
ENDMDL
MODEL 9
REMARK VINA RESULT:      -6.1      4.690      5.572
REMARK  Name = 
REMARK  2 active torsions:
REMARK  status: ('A' for Active; 'I' for Inactive)
REMARK    1  A    between atoms: C_5  and  C_6
REMARK    2  A    between atoms: C_9  and  C_10
REMARK                            x       y       z     vdW  Elec       q    Type
REMARK                         _______ _______ _______ _____ _____    ______ ____
ROOT
ATOM      1  C   UNL     1       2.387   7.159  18.913  0.00  0.00    +0.000 A 
ATOM      2  C   UNL     1       2.277   8.165  17.975  0.00  0.00    +0.000 A 
ATOM      3  S   UNL     1       1.476   9.548  18.583  0.00  0.00    +0.000 S 
ATOM      4  C   UNL     1       1.257   8.840  20.133  0.00  0.00    +0.000 A 
ATOM      5  C   UNL     1       1.786   7.561  20.153  0.00  0.00    +0.000 A 
ENDROOT
BRANCH   1  10
ATOM      6  C   UNL     1       3.113   3.705  17.583  0.00  0.00    +0.000 A 
ATOM      7  C   UNL     1       4.383   3.539  18.109  0.00  0.00    +0.000 A 
ATOM      8  N   UNL     1       5.001   4.463  18.874  0.00  0.00    +0.000 NA
ATOM      9  C   UNL     1       4.312   5.605  19.117  0.00  0.00    +0.000 A 
ATOM     10  C   UNL     1       3.033   5.880  18.633  0.00  0.00    +0.000 A 
ATOM     11  C   UNL     1       2.432   4.891  17.849  0.00  0.00    +0.000 A 
ENDBRANCH   1  10
BRANCH   4  12
ATOM     12  C   UNL     1       0.611   9.547  21.215  0.00  0.00    +0.000 A 
ATOM     13  C   UNL     1       0.672   9.309  22.579  0.00  0.00    +0.000 A 
ATOM     14  N   UNL     1      -0.078  10.147  23.387  0.00  0.00    +0.000 NA
ATOM     15  C   UNL     1      -0.705  11.019  22.631  0.00  0.00    +0.000 A 
ATOM     16  S   UNL     1      -0.428  10.899  20.949  0.00  0.00    +0.000 S 
ENDBRANCH   4  12
TORSDOF 2
ENDMDL
