MODEL 1
REMARK VINA RESULT:      -7.4      0.000      0.000
REMARK  Name = 
REMARK  5 active torsions:
REMARK  status: ('A' for Active; 'I' for Inactive)
REMARK    1  A    between atoms: C_1  and  N_2
REMARK    2  A    between atoms: C_5  and  C_6
REMARK    3  A    between atoms: N_8  and  C_9
REMARK    4  A    between atoms: C_9  and  C_10
REMARK    5  A    between atoms: C_12  and  C_13
REMARK                            x       y       z     vdW  Elec       q    Type
REMARK                         _______ _______ _______ _____ _____    ______ ____
ROOT
ATOM      1  C   UNL     1       0.905   8.058  21.398  0.00  0.00    +0.000 C 
ENDROOT
BRANCH   1   2
ATOM      2  C   UNL     1       1.728   7.092  20.617  0.00  0.00    +0.000 A 
ATOM      3  N   UNL     1       2.401   7.318  19.505  0.00  0.00    +0.000 NA
ATOM      4  C   UNL     1       2.939   6.103  19.129  0.00  0.00    +0.000 A 
ATOM      5  C   UNL     1       2.583   5.131  20.039  0.00  0.00    +0.000 A 
ATOM      6  N   UNL     1       1.837   5.774  20.988  0.00  0.00    +0.000 N 
ATOM      7  H   UNL     1       1.429   5.366  21.820  0.00  0.00    +0.000 HD
BRANCH   4   8
ATOM      8  C   UNL     1       3.755   5.919  17.935  0.00  0.00    +0.000 A 
ATOM      9  C   UNL     1       4.010   4.622  17.460  0.00  0.00    +0.000 A 
ATOM     10  C   UNL     1       4.779   4.417  16.310  0.00  0.00    +0.000 A 
ATOM     11  C   UNL     1       5.299   5.511  15.631  0.00  0.00    +0.000 A 
ATOM     12  F   UNL     1       6.032   5.318  14.526  0.00  0.00    +0.000 F 
ATOM     13  C   UNL     1       5.068   6.804  16.080  0.00  0.00    +0.000 A 
ATOM     14  C   UNL     1       4.298   7.008  17.229  0.00  0.00    +0.000 A 
ENDBRANCH   4   8
ENDBRANCH   1   2
BRANCH   1  17
ATOM     15  C   UNL     1       0.662  10.449  20.860  0.00  0.00    +0.000 C 
ATOM     16  O   UNL     1       1.235  10.808  21.889  0.00  0.00    +0.000 OA
ATOM     17  N   UNL     1       0.452   9.131  20.547  0.00  0.00    +0.000 N 
ATOM     18  H   UNL     1       0.090   8.923  19.622  0.00  0.00    +0.000 HD
BRANCH  15  23
ATOM     19  C   UNL     1      -3.007  11.128  17.083  0.00  0.00    +0.000 C 
ATOM     20  N   UNL     1      -1.866  12.012  17.025  0.00  0.00    +0.000 N 
ATOM     21  C   UNL     1      -1.013  12.029  18.074  0.00  0.00    +0.000 A 
ATOM     22  N   UNL     1      -0.781  11.025  18.891  0.00  0.00    +0.000 NA
ATOM     23  C   UNL     1       0.168  11.392  19.853  0.00  0.00    +0.000 A 
ATOM     24  C   UNL     1       0.590  12.703  19.765  0.00  0.00    +0.000 A 
ATOM     25  S   UNL     1      -0.137  13.472  18.425  0.00  0.00    +0.000 S 
ATOM     26  H   UNL     1      -2.055  12.913  16.598  0.00  0.00    +0.000 HD
ENDBRANCH  15  23
ENDBRANCH   1  17
TORSDOF 4
ENDMDL
MODEL 2
REMARK VINA RESULT:      -7.3      6.539      8.523
REMARK  Name = 
REMARK  5 active torsions:
REMARK  status: ('A' for Active; 'I' for Inactive)
REMARK    1  A    between atoms: C_1  and  N_2
REMARK    2  A    between atoms: C_5  and  C_6
REMARK    3  A    between atoms: N_8  and  C_9
REMARK    4  A    between atoms: C_9  and  C_10
REMARK    5  A    between atoms: C_12  and  C_13
REMARK                            x       y       z     vdW  Elec       q    Type
REMARK                         _______ _______ _______ _____ _____    ______ ____
ROOT
ATOM      1  C   UNL     1       7.762   5.363  18.787  0.00  0.00    +0.000 C 
ENDROOT
BRANCH   1   2
ATOM      2  C   UNL     1       7.942   6.802  18.444  0.00  0.00    +0.000 A 
ATOM      3  N   UNL     1       8.663   7.701  19.086  0.00  0.00    +0.000 NA
ATOM      4  C   UNL     1       8.456   8.898  18.430  0.00  0.00    +0.000 A 
ATOM      5  C   UNL     1       7.595   8.708  17.370  0.00  0.00    +0.000 A 
ATOM      6  N   UNL     1       7.296   7.374  17.376  0.00  0.00    +0.000 N 
ATOM      7  H   UNL     1       6.704   6.881  16.719  0.00  0.00    +0.000 HD
BRANCH   4   8
ATOM      8  C   UNL     1       9.074  10.155  18.834  0.00  0.00    +0.000 A 
ATOM      9  C   UNL     1       9.350  11.136  17.867  0.00  0.00    +0.000 A 
ATOM     10  C   UNL     1       9.930  12.357  18.229  0.00  0.00    +0.000 A 
ATOM     11  C   UNL     1      10.240  12.599  19.560  0.00  0.00    +0.000 A 
ATOM     12  F   UNL     1      10.793  13.768  19.910  0.00  0.00    +0.000 F 
ATOM     13  C   UNL     1       9.985  11.645  20.536  0.00  0.00    +0.000 A 
ATOM     14  C   UNL     1       9.403  10.426  20.174  0.00  0.00    +0.000 A 
ENDBRANCH   4   8
ENDBRANCH   1   2
BRANCH   1  17
ATOM     15  C   UNL     1       5.642   4.514  17.863  0.00  0.00    +0.000 C 
ATOM     16  O   UNL     1       6.139   4.279  16.761  0.00  0.00    +0.000 OA
ATOM     17  N   UNL     1       6.359   5.048  18.903  0.00  0.00    +0.000 N 
ATOM     18  H   UNL     1       5.906   5.087  19.810  0.00  0.00    +0.000 HD
BRANCH  15  23
ATOM     19  C   UNL     1       2.425   2.692  21.674  0.00  0.00    +0.000 C 
ATOM     20  N   UNL     1       1.882   2.700  20.335  0.00  0.00    +0.000 N 
ATOM     21  C   UNL     1       2.570   3.346  19.366  0.00  0.00    +0.000 A 
ATOM     22  N   UNL     1       3.873   3.525  19.340  0.00  0.00    +0.000 NA
ATOM     23  C   UNL     1       4.243   4.223  18.185  0.00  0.00    +0.000 A 
ATOM     24  C   UNL     1       3.183   4.607  17.387  0.00  0.00    +0.000 A 
ATOM     25  S   UNL     1       1.713   4.026  18.034  0.00  0.00    +0.000 S 
ATOM     26  H   UNL     1       0.872   2.793  20.293  0.00  0.00    +0.000 HD
ENDBRANCH  15  23
ENDBRANCH   1  17
TORSDOF 4
ENDMDL
MODEL 3
REMARK VINA RESULT:      -7.3      6.025      8.163
REMARK  Name = 
REMARK  5 active torsions:
REMARK  status: ('A' for Active; 'I' for Inactive)
REMARK    1  A    between atoms: C_1  and  N_2
REMARK    2  A    between atoms: C_5  and  C_6
REMARK    3  A    between atoms: N_8  and  C_9
REMARK    4  A    between atoms: C_9  and  C_10
REMARK    5  A    between atoms: C_12  and  C_13
REMARK                            x       y       z     vdW  Elec       q    Type
REMARK                         _______ _______ _______ _____ _____    ______ ____
ROOT
ATOM      1  C   UNL     1       7.588   5.736  18.356  0.00  0.00    +0.000 C 
ENDROOT
BRANCH   1   2
ATOM      2  C   UNL     1       7.882   7.188  18.193  0.00  0.00    +0.000 A 
ATOM      3  N   UNL     1       8.721   7.926  18.894  0.00  0.00    +0.000 NA
ATOM      4  C   UNL     1       8.588   9.215  18.418  0.00  0.00    +0.000 A 
ATOM      5  C   UNL     1       7.653   9.247  17.406  0.00  0.00    +0.000 A 
ATOM      6  N   UNL     1       7.231   7.955  17.257  0.00  0.00    +0.000 N 
ATOM      7  H   UNL     1       6.558   7.608  16.585  0.00  0.00    +0.000 HD
BRANCH   4   8
ATOM      8  C   UNL     1       9.345  10.348  18.938  0.00  0.00    +0.000 A 
ATOM      9  C   UNL     1      10.071  11.164  18.055  0.00  0.00    +0.000 A 
ATOM     10  C   UNL     1      10.794  12.265  18.526  0.00  0.00    +0.000 A 
ATOM     11  C   UNL     1      10.796  12.552  19.884  0.00  0.00    +0.000 A 
ATOM     12  F   UNL     1      11.484  13.609  20.337  0.00  0.00    +0.000 F 
ATOM     13  C   UNL     1      10.092  11.760  20.780  0.00  0.00    +0.000 A 
ATOM     14  C   UNL     1       9.368  10.660  20.309  0.00  0.00    +0.000 A 
ENDBRANCH   4   8
ENDBRANCH   1   2
BRANCH   1  17
ATOM     15  C   UNL     1       5.328   4.766  18.232  0.00  0.00    +0.000 C 
ATOM     16  O   UNL     1       5.565   4.179  17.176  0.00  0.00    +0.000 OA
ATOM     17  N   UNL     1       6.253   5.551  18.870  0.00  0.00    +0.000 N 
ATOM     18  H   UNL     1       6.017   5.891  19.797  0.00  0.00    +0.000 HD
BRANCH  15  23
ATOM     19  C   UNL     1       1.582   7.598  20.711  0.00  0.00    +0.000 C 
ATOM     20  N   UNL     1       1.578   6.176  20.968  0.00  0.00    +0.000 N 
ATOM     21  C   UNL     1       2.364   5.382  20.207  0.00  0.00    +0.000 A 
ATOM     22  N   UNL     1       3.487   5.745  19.626  0.00  0.00    +0.000 NA
ATOM     23  C   UNL     1       4.042   4.666  18.928  0.00  0.00    +0.000 A 
ATOM     24  C   UNL     1       3.279   3.516  18.957  0.00  0.00    +0.000 A 
ATOM     25  S   UNL     1       1.894   3.748  19.928  0.00  0.00    +0.000 S 
ATOM     26  H   UNL     1       0.666   5.796  21.204  0.00  0.00    +0.000 HD
ENDBRANCH  15  23
ENDBRANCH   1  17
TORSDOF 4
ENDMDL
MODEL 4
REMARK VINA RESULT:      -7.3      2.506      3.027
REMARK  Name = 
REMARK  5 active torsions:
REMARK  status: ('A' for Active; 'I' for Inactive)
REMARK    1  A    between atoms: C_1  and  N_2
REMARK    2  A    between atoms: C_5  and  C_6
REMARK    3  A    between atoms: N_8  and  C_9
REMARK    4  A    between atoms: C_9  and  C_10
REMARK    5  A    between atoms: C_12  and  C_13
REMARK                            x       y       z     vdW  Elec       q    Type
REMARK                         _______ _______ _______ _____ _____    ______ ____
ROOT
ATOM      1  C   UNL     1       2.103   9.585  17.838  0.00  0.00    +0.000 C 
ENDROOT
BRANCH   1   2
ATOM      2  C   UNL     1       2.234   8.257  18.502  0.00  0.00    +0.000 A 
ATOM      3  N   UNL     1       2.604   7.115  17.956  0.00  0.00    +0.000 NA
ATOM      4  C   UNL     1       2.500   6.163  18.951  0.00  0.00    +0.000 A 
ATOM      5  C   UNL     1       2.062   6.752  20.118  0.00  0.00    +0.000 A 
ATOM      6  N   UNL     1       1.920   8.080  19.827  0.00  0.00    +0.000 N 
ATOM      7  H   UNL     1       1.634   8.815  20.462  0.00  0.00    +0.000 HD
BRANCH   4   8
ATOM      8  C   UNL     1       2.814   4.753  18.753  0.00  0.00    +0.000 A 
ATOM      9  C   UNL     1       3.793   4.141  19.553  0.00  0.00    +0.000 A 
ATOM     10  C   UNL     1       4.105   2.786  19.393  0.00  0.00    +0.000 A 
ATOM     11  C   UNL     1       3.440   2.040  18.430  0.00  0.00    +0.000 A 
ATOM     12  F   UNL     1       3.734   0.741  18.278  0.00  0.00    +0.000 F 
ATOM     13  C   UNL     1       2.472   2.620  17.622  0.00  0.00    +0.000 A 
ATOM     14  C   UNL     1       2.160   3.974  17.783  0.00  0.00    +0.000 A 
ENDBRANCH   4   8
ENDBRANCH   1   2
BRANCH   1  17
ATOM     15  C   UNL     1       0.328  10.857  18.977  0.00  0.00    +0.000 C 
ATOM     16  O   UNL     1       1.071  11.202  19.895  0.00  0.00    +0.000 OA
ATOM     17  N   UNL     1       0.747  10.063  17.940  0.00  0.00    +0.000 N 
ATOM     18  H   UNL     1       0.106   9.935  17.162  0.00  0.00    +0.000 HD
BRANCH  15  23
ATOM     19  C   UNL     1      -3.942  10.823  15.820  0.00  0.00    +0.000 C 
ATOM     20  N   UNL     1      -3.959  11.781  16.902  0.00  0.00    +0.000 N 
ATOM     21  C   UNL     1      -3.006  11.691  17.856  0.00  0.00    +0.000 A 
ATOM     22  N   UNL     1      -1.796  11.203  17.688  0.00  0.00    +0.000 NA
ATOM     23  C   UNL     1      -1.073  11.276  18.884  0.00  0.00    +0.000 A 
ATOM     24  C   UNL     1      -1.790  11.776  19.953  0.00  0.00    +0.000 A 
ATOM     25  S   UNL     1      -3.357  12.236  19.453  0.00  0.00    +0.000 S 
ATOM     26  H   UNL     1      -4.888  12.025  17.230  0.00  0.00    +0.000 HD
ENDBRANCH  15  23
ENDBRANCH   1  17
TORSDOF 4
ENDMDL
MODEL 5
REMARK VINA RESULT:      -7.3      2.631      3.097
REMARK  Name = 
REMARK  5 active torsions:
REMARK  status: ('A' for Active; 'I' for Inactive)
REMARK    1  A    between atoms: C_1  and  N_2
REMARK    2  A    between atoms: C_5  and  C_6
REMARK    3  A    between atoms: N_8  and  C_9
REMARK    4  A    between atoms: C_9  and  C_10
REMARK    5  A    between atoms: C_12  and  C_13
REMARK                            x       y       z     vdW  Elec       q    Type
REMARK                         _______ _______ _______ _____ _____    ______ ____
ROOT
ATOM      1  C   UNL     1       1.221   8.196  21.513  0.00  0.00    +0.000 C 
ENDROOT
BRANCH   1   2
ATOM      2  C   UNL     1       1.765   7.934  20.150  0.00  0.00    +0.000 A 
ATOM      3  N   UNL     1       2.495   6.910  19.755  0.00  0.00    +0.000 NA
ATOM      4  C   UNL     1       2.812   7.152  18.433  0.00  0.00    +0.000 A 
ATOM      5  C   UNL     1       2.254   8.346  18.029  0.00  0.00    +0.000 A 
ATOM      6  N   UNL     1       1.575   8.820  19.116  0.00  0.00    +0.000 N 
ATOM      7  H   UNL     1       1.027   9.669  19.169  0.00  0.00    +0.000 HD
BRANCH   4   8
ATOM      8  C   UNL     1       3.623   6.252  17.621  0.00  0.00    +0.000 A 
ATOM      9  C   UNL     1       3.409   4.866  17.695  0.00  0.00    +0.000 A 
ATOM     10  C   UNL     1       4.164   3.981  16.917  0.00  0.00    +0.000 A 
ATOM     11  C   UNL     1       5.138   4.481  16.064  0.00  0.00    +0.000 A 
ATOM     12  F   UNL     1       5.859   3.636  15.315  0.00  0.00    +0.000 F 
ATOM     13  C   UNL     1       5.375   5.845  15.974  0.00  0.00    +0.000 A 
ATOM     14  C   UNL     1       4.620   6.729  16.751  0.00  0.00    +0.000 A 
ENDBRANCH   4   8
ENDBRANCH   1   2
BRANCH   1  17
ATOM     15  C   UNL     1      -0.026  10.014  22.610  0.00  0.00    +0.000 C 
ATOM     16  O   UNL     1       0.416   9.735  23.725  0.00  0.00    +0.000 OA
ATOM     17  N   UNL     1       0.308   9.312  21.481  0.00  0.00    +0.000 N 
ATOM     18  H   UNL     1       0.002   9.689  20.590  0.00  0.00    +0.000 HD
BRANCH  15  23
ATOM     19  C   UNL     1      -4.167  12.662  24.618  0.00  0.00    +0.000 C 
ATOM     20  N   UNL     1      -3.906  12.865  23.211  0.00  0.00    +0.000 N 
ATOM     21  C   UNL     1      -2.749  12.390  22.698  0.00  0.00    +0.000 A 
ATOM     22  N   UNL     1      -2.076  11.354  23.150  0.00  0.00    +0.000 NA
ATOM     23  C   UNL     1      -0.934  11.139  22.371  0.00  0.00    +0.000 A 
ATOM     24  C   UNL     1      -0.744  12.071  21.370  0.00  0.00    +0.000 A 
ATOM     25  S   UNL     1      -2.040  13.182  21.340  0.00  0.00    +0.000 S 
ATOM     26  H   UNL     1      -4.207  13.766  22.854  0.00  0.00    +0.000 HD
ENDBRANCH  15  23
ENDBRANCH   1  17
TORSDOF 4
ENDMDL
MODEL 6
REMARK VINA RESULT:      -7.2      2.090      2.962
REMARK  Name = 
REMARK  5 active torsions:
REMARK  status: ('A' for Active; 'I' for Inactive)
REMARK    1  A    between atoms: C_1  and  N_2
REMARK    2  A    between atoms: C_5  and  C_6
REMARK    3  A    between atoms: N_8  and  C_9
REMARK    4  A    between atoms: C_9  and  C_10
REMARK    5  A    between atoms: C_12  and  C_13
REMARK                            x       y       z     vdW  Elec       q    Type
REMARK                         _______ _______ _______ _____ _____    ______ ____
ROOT
ATOM      1  C   UNL     1       1.419  10.590  18.503  0.00  0.00    +0.000 C 
ENDROOT
BRANCH   1   2
ATOM      2  C   UNL     1       1.954   9.202  18.596  0.00  0.00    +0.000 A 
ATOM      3  N   UNL     1       2.684   8.557  17.706  0.00  0.00    +0.000 NA
ATOM      4  C   UNL     1       2.868   7.285  18.211  0.00  0.00    +0.000 A 
ATOM      5  C   UNL     1       2.238   7.170  19.431  0.00  0.00    +0.000 A 
ATOM      6  N   UNL     1       1.684   8.396  19.674  0.00  0.00    +0.000 N 
ATOM      7  H   UNL     1       1.162   8.676  20.496  0.00  0.00    +0.000 HD
BRANCH   4   8
ATOM      8  C   UNL     1       3.623   6.246  17.520  0.00  0.00    +0.000 A 
ATOM      9  C   UNL     1       4.700   6.604  16.692  0.00  0.00    +0.000 A 
ATOM     10  C   UNL     1       5.450   5.626  16.029  0.00  0.00    +0.000 A 
ATOM     11  C   UNL     1       5.122   4.287  16.189  0.00  0.00    +0.000 A 
ATOM     12  F   UNL     1       5.841   3.349  15.558  0.00  0.00    +0.000 F 
ATOM     13  C   UNL     1       4.059   3.905  16.996  0.00  0.00    +0.000 A 
ATOM     14  C   UNL     1       3.311   4.882  17.660  0.00  0.00    +0.000 A 
ENDBRANCH   4   8
ENDBRANCH   1   2
BRANCH   1  17
ATOM     15  C   UNL     1      -0.855  11.532  18.419  0.00  0.00    +0.000 C 
ATOM     16  O   UNL     1      -0.567  12.469  19.163  0.00  0.00    +0.000 OA
ATOM     17  N   UNL     1       0.049  10.568  18.054  0.00  0.00    +0.000 N 
ATOM     18  H   UNL     1      -0.237   9.908  17.337  0.00  0.00    +0.000 HD
BRANCH  15  23
ATOM     19  C   UNL     1      -3.421   9.890  14.070  0.00  0.00    +0.000 C 
ATOM     20  N   UNL     1      -4.173  10.733  14.971  0.00  0.00    +0.000 N 
ATOM     21  C   UNL     1      -3.649  11.003  16.187  0.00  0.00    +0.000 A 
ATOM     22  N   UNL     1      -2.366  11.041  16.479  0.00  0.00    +0.000 NA
ATOM     23  C   UNL     1      -2.186  11.363  17.828  0.00  0.00    +0.000 A 
ATOM     24  C   UNL     1      -3.359  11.508  18.542  0.00  0.00    +0.000 A 
ATOM     25  S   UNL     1      -4.707  11.320  17.510  0.00  0.00    +0.000 S 
ATOM     26  H   UNL     1      -5.176  10.579  14.949  0.00  0.00    +0.000 HD
ENDBRANCH  15  23
ENDBRANCH   1  17
TORSDOF 4
ENDMDL
MODEL 7
REMARK VINA RESULT:      -7.2      0.711      1.231
REMARK  Name = 
REMARK  5 active torsions:
REMARK  status: ('A' for Active; 'I' for Inactive)
REMARK    1  A    between atoms: C_1  and  N_2
REMARK    2  A    between atoms: C_5  and  C_6
REMARK    3  A    between atoms: N_8  and  C_9
REMARK    4  A    between atoms: C_9  and  C_10
REMARK    5  A    between atoms: C_12  and  C_13
REMARK                            x       y       z     vdW  Elec       q    Type
REMARK                         _______ _______ _______ _____ _____    ______ ____
ROOT
ATOM      1  C   UNL     1       1.309   7.873  21.185  0.00  0.00    +0.000 C 
ENDROOT
BRANCH   1   2
ATOM      2  C   UNL     1       1.958   6.832  20.339  0.00  0.00    +0.000 A 
ATOM      3  N   UNL     1       2.769   7.014  19.315  0.00  0.00    +0.000 NA
ATOM      4  C   UNL     1       3.045   5.756  18.815  0.00  0.00    +0.000 A 
ATOM      5  C   UNL     1       2.386   4.802  19.561  0.00  0.00    +0.000 A 
ATOM      6  N   UNL     1       1.721   5.493  20.535  0.00  0.00    +0.000 N 
ATOM      7  H   UNL     1       1.151   5.104  21.276  0.00  0.00    +0.000 HD
BRANCH   4   8
ATOM      8  C   UNL     1       3.908   5.518  17.665  0.00  0.00    +0.000 A 
ATOM      9  C   UNL     1       4.377   6.606  16.911  0.00  0.00    +0.000 A 
ATOM     10  C   UNL     1       5.218   6.407  15.810  0.00  0.00    +0.000 A 
ATOM     11  C   UNL     1       5.589   5.116  15.458  0.00  0.00    +0.000 A 
ATOM     12  F   UNL     1       6.398   4.923  14.407  0.00  0.00    +0.000 F 
ATOM     13  C   UNL     1       5.136   4.022  16.182  0.00  0.00    +0.000 A 
ATOM     14  C   UNL     1       4.297   4.222  17.283  0.00  0.00    +0.000 A 
ENDBRANCH   4   8
ENDBRANCH   1   2
BRANCH   1  17
ATOM     15  C   UNL     1      -0.116   9.844  20.797  0.00  0.00    +0.000 C 
ATOM     16  O   UNL     1      -0.656   9.754  21.899  0.00  0.00    +0.000 OA
ATOM     17  N   UNL     1       0.845   8.965  20.366  0.00  0.00    +0.000 N 
ATOM     18  H   UNL     1       1.328   9.189  19.502  0.00  0.00    +0.000 HD
BRANCH  15  23
ATOM     19  C   UNL     1      -3.427  11.257  16.894  0.00  0.00    +0.000 C 
ATOM     20  N   UNL     1      -2.183  11.989  16.967  0.00  0.00    +0.000 N 
ATOM     21  C   UNL     1      -1.402  11.821  18.058  0.00  0.00    +0.000 A 
ATOM     22  N   UNL     1      -1.349  10.740  18.805  0.00  0.00    +0.000 NA
ATOM     23  C   UNL     1      -0.424  10.911  19.842  0.00  0.00    +0.000 A 
ATOM     24  C   UNL     1       0.163  12.160  19.880  0.00  0.00    +0.000 A 
ATOM     25  S   UNL     1      -0.377  13.110  18.567  0.00  0.00    +0.000 S 
ATOM     26  H   UNL     1      -2.231  12.935  16.602  0.00  0.00    +0.000 HD
ENDBRANCH  15  23
ENDBRANCH   1  17
TORSDOF 4
ENDMDL
MODEL 8
REMARK VINA RESULT:      -7.2      2.770      3.939
REMARK  Name = 
REMARK  5 active torsions:
REMARK  status: ('A' for Active; 'I' for Inactive)
REMARK    1  A    between atoms: C_1  and  N_2
REMARK    2  A    between atoms: C_5  and  C_6
REMARK    3  A    between atoms: N_8  and  C_9
REMARK    4  A    between atoms: C_9  and  C_10
REMARK    5  A    between atoms: C_12  and  C_13
REMARK                            x       y       z     vdW  Elec       q    Type
REMARK                         _______ _______ _______ _____ _____    ______ ____
ROOT
ATOM      1  C   UNL     1       1.283  10.660  18.615  0.00  0.00    +0.000 C 
ENDROOT
BRANCH   1   2
ATOM      2  C   UNL     1       1.438   9.406  19.404  0.00  0.00    +0.000 A 
ATOM      3  N   UNL     1       1.983   8.269  19.014  0.00  0.00    +0.000 NA
ATOM      4  C   UNL     1       1.826   7.388  20.066  0.00  0.00    +0.000 A 
ATOM      5  C   UNL     1       1.177   8.015  21.109  0.00  0.00    +0.000 A 
ATOM      6  N   UNL     1       0.959   9.297  20.687  0.00  0.00    +0.000 N 
ATOM      7  H   UNL     1       0.521  10.044  21.211  0.00  0.00    +0.000 HD
BRANCH   4   8
ATOM      8  C   UNL     1       2.290   6.006  20.036  0.00  0.00    +0.000 A 
ATOM      9  C   UNL     1       3.504   5.695  19.402  0.00  0.00    +0.000 A 
ATOM     10  C   UNL     1       3.980   4.379  19.370  0.00  0.00    +0.000 A 
ATOM     11  C   UNL     1       3.240   3.370  19.970  0.00  0.00    +0.000 A 
ATOM     12  F   UNL     1       3.695   2.110  19.944  0.00  0.00    +0.000 F 
ATOM     13  C   UNL     1       2.034   3.648  20.599  0.00  0.00    +0.000 A 
ATOM     14  C   UNL     1       1.559   4.963  20.631  0.00  0.00    +0.000 A 
ENDBRANCH   4   8
ENDBRANCH   1   2
BRANCH   1  17
ATOM     15  C   UNL     1      -1.144  11.044  18.442  0.00  0.00    +0.000 C 
ATOM     16  O   UNL     1      -1.232  11.437  19.605  0.00  0.00    +0.000 OA
ATOM     17  N   UNL     1       0.041  10.640  17.882  0.00  0.00    +0.000 N 
ATOM     18  H   UNL     1       0.047  10.456  16.884  0.00  0.00    +0.000 HD
BRANCH  15  23
ATOM     19  C   UNL     1      -6.119  12.754  17.725  0.00  0.00    +0.000 C 
ATOM     20  N   UNL     1      -5.719  11.613  16.932  0.00  0.00    +0.000 N 
ATOM     21  C   UNL     1      -4.412  11.270  16.914  0.00  0.00    +0.000 A 
ATOM     22  N   UNL     1      -3.547  11.489  17.881  0.00  0.00    +0.000 NA
ATOM     23  C   UNL     1      -2.288  10.991  17.528  0.00  0.00    +0.000 A 
ATOM     24  C   UNL     1      -2.225  10.451  16.259  0.00  0.00    +0.000 A 
ATOM     25  S   UNL     1      -3.764  10.488  15.521  0.00  0.00    +0.000 S 
ATOM     26  H   UNL     1      -6.209  11.526  16.047  0.00  0.00    +0.000 HD
ENDBRANCH  15  23
ENDBRANCH   1  17
TORSDOF 4
ENDMDL
MODEL 9
REMARK VINA RESULT:      -7.1      2.541      3.013
REMARK  Name = 
REMARK  5 active torsions:
REMARK  status: ('A' for Active; 'I' for Inactive)
REMARK    1  A    between atoms: C_1  and  N_2
REMARK    2  A    between atoms: C_5  and  C_6
REMARK    3  A    between atoms: N_8  and  C_9
REMARK    4  A    between atoms: C_9  and  C_10
REMARK    5  A    between atoms: C_12  and  C_13
REMARK                            x       y       z     vdW  Elec       q    Type
REMARK                         _______ _______ _______ _____ _____    ______ ____
ROOT
ATOM      1  C   UNL     1       1.934   9.438  17.775  0.00  0.00    +0.000 C 
ENDROOT
BRANCH   1   2
ATOM      2  C   UNL     1       2.159   8.141  18.474  0.00  0.00    +0.000 A 
ATOM      3  N   UNL     1       2.528   6.991  17.944  0.00  0.00    +0.000 NA
ATOM      4  C   UNL     1       2.529   6.075  18.978  0.00  0.00    +0.000 A 
ATOM      5  C   UNL     1       2.156   6.694  20.152  0.00  0.00    +0.000 A 
ATOM      6  N   UNL     1       1.948   8.005  19.825  0.00  0.00    +0.000 N 
ATOM      7  H   UNL     1       1.683   8.754  20.453  0.00  0.00    +0.000 HD
BRANCH   4   8
ATOM      8  C   UNL     1       2.877   4.669  18.808  0.00  0.00    +0.000 A 
ATOM      9  C   UNL     1       2.228   3.907  17.823  0.00  0.00    +0.000 A 
ATOM     10  C   UNL     1       2.551   2.560  17.630  0.00  0.00    +0.000 A 
ATOM     11  C   UNL     1       3.524   1.969  18.424  0.00  0.00    +0.000 A 
ATOM     12  F   UNL     1       3.840   0.680  18.239  0.00  0.00    +0.000 F 
ATOM     13  C   UNL     1       4.178   2.697  19.409  0.00  0.00    +0.000 A 
ATOM     14  C   UNL     1       3.855   4.044  19.601  0.00  0.00    +0.000 A 
ENDBRANCH   4   8
ENDBRANCH   1   2
BRANCH   1  17
ATOM     15  C   UNL     1       0.535  11.175  18.821  0.00  0.00    +0.000 C 
ATOM     16  O   UNL     1       1.509  11.840  19.174  0.00  0.00    +0.000 OA
ATOM     17  N   UNL     1       0.653   9.989  18.143  0.00  0.00    +0.000 N 
ATOM     18  H   UNL     1      -0.199   9.574  17.778  0.00  0.00    +0.000 HD
BRANCH  15  23
ATOM     19  C   UNL     1      -4.371  11.109  16.791  0.00  0.00    +0.000 C 
ATOM     20  N   UNL     1      -4.130  12.076  17.838  0.00  0.00    +0.000 N 
ATOM     21  C   UNL     1      -2.973  11.995  18.534  0.00  0.00    +0.000 A 
ATOM     22  N   UNL     1      -1.838  11.507  18.082  0.00  0.00    +0.000 NA
ATOM     23  C   UNL     1      -0.848  11.591  19.067  0.00  0.00    +0.000 A 
ATOM     24  C   UNL     1      -1.287  12.098  20.274  0.00  0.00    +0.000 A 
ATOM     25  S   UNL     1      -2.930  12.551  20.165  0.00  0.00    +0.000 S 
ATOM     26  H   UNL     1      -4.952  12.321  18.380  0.00  0.00    +0.000 HD
ENDBRANCH  15  23
ENDBRANCH   1  17
TORSDOF 4
ENDMDL
