MODEL 1
REMARK VINA RESULT:      -7.4      0.000      0.000
REMARK  Name = 
REMARK  6 active torsions:
REMARK  status: ('A' for Active; 'I' for Inactive)
REMARK    1  A    between atoms: C_1  and  O_2
REMARK    2  A    between atoms: O_2  and  C_3
REMARK    3  A    between atoms: C_6  and  C_7
REMARK    4  A    between atoms: C_7  and  C_9
REMARK    5  A    between atoms: C_10  and  C_11
REMARK    6  A    between atoms: C_19  and  O_20
REMARK                            x       y       z     vdW  Elec       q    Type
REMARK                         _______ _______ _______ _____ _____    ______ ____
ROOT
ATOM      1  C   UNL     1       2.146   8.213  18.459  0.00  0.00    +0.000 C 
ATOM      2  O   UNL     1       2.275   8.766  17.370  0.00  0.00    +0.000 OA
ENDROOT
BRANCH   1   6
ATOM      3  C   UNL     1       0.327  10.182  21.847  0.00  0.00    +0.000 A 
ATOM      4  C   UNL     1       0.897   8.913  21.950  0.00  0.00    +0.000 A 
ATOM      5  C   UNL     1       1.472   8.298  20.832  0.00  0.00    +0.000 A 
ATOM      6  C   UNL     1       1.486   8.943  19.586  0.00  0.00    +0.000 A 
ATOM      7  C   UNL     1       0.882  10.204  19.490  0.00  0.00    +0.000 A 
ATOM      8  C   UNL     1       0.327  10.827  20.612  0.00  0.00    +0.000 A 
BRANCH   3  10
ATOM      9  C   UNL     1      -1.239  11.643  22.881  0.00  0.00    +0.000 C 
ATOM     10  O   UNL     1      -0.204  10.674  23.009  0.00  0.00    +0.000 OA
ENDBRANCH   3  10
BRANCH   7  11
ATOM     11  O   UNL     1       0.741  10.900  18.320  0.00  0.00    +0.000 OA
ATOM     12  H   UNL     1      -0.212  10.977  18.132  0.00  0.00    +0.000 HD
ENDBRANCH   7  11
ENDBRANCH   1   6
BRANCH   1  13
ATOM     13  C   UNL     1       2.609   6.822  18.685  0.00  0.00    +0.000 C 
ATOM     14  C   UNL     1       1.985   5.790  18.093  0.00  0.00    +0.000 C 
BRANCH  14  15
ATOM     15  C   UNL     1       2.518   4.433  18.234  0.00  0.00    +0.000 A 
ATOM     16  C   UNL     1       3.535   3.989  17.381  0.00  0.00    +0.000 A 
ATOM     17  F   UNL     1       4.067   4.822  16.475  0.00  0.00    +0.000 F 
ATOM     18  C   UNL     1       4.009   2.678  17.430  0.00  0.00    +0.000 A 
ATOM     19  C   UNL     1       3.469   1.780  18.347  0.00  0.00    +0.000 A 
ATOM     20  C   UNL     1       2.463   2.202  19.218  0.00  0.00    +0.000 A 
ATOM     21  C   UNL     1       1.991   3.519  19.163  0.00  0.00    +0.000 A 
ATOM     22 CL   UNL     1       0.724   3.962  20.257  0.00  0.00    +0.000 Cl
ENDBRANCH  14  15
ENDBRANCH   1  13
TORSDOF 5
ENDMDL
MODEL 2
REMARK VINA RESULT:      -7.3      1.588      1.900
REMARK  Name = 
REMARK  6 active torsions:
REMARK  status: ('A' for Active; 'I' for Inactive)
REMARK    1  A    between atoms: C_1  and  O_2
REMARK    2  A    between atoms: O_2  and  C_3
REMARK    3  A    between atoms: C_6  and  C_7
REMARK    4  A    between atoms: C_7  and  C_9
REMARK    5  A    between atoms: C_10  and  C_11
REMARK    6  A    between atoms: C_19  and  O_20
REMARK                            x       y       z     vdW  Elec       q    Type
REMARK                         _______ _______ _______ _____ _____    ______ ____
ROOT
ATOM      1  C   UNL     1       2.169   8.132  18.483  0.00  0.00    +0.000 C 
ATOM      2  O   UNL     1       2.377   8.698  17.413  0.00  0.00    +0.000 OA
ENDROOT
BRANCH   1   6
ATOM      3  C   UNL     1       0.336  10.151  21.835  0.00  0.00    +0.000 A 
ATOM      4  C   UNL     1       0.940   8.900  21.967  0.00  0.00    +0.000 A 
ATOM      5  C   UNL     1       1.518   8.268  20.860  0.00  0.00    +0.000 A 
ATOM      6  C   UNL     1       1.502   8.877  19.596  0.00  0.00    +0.000 A 
ATOM      7  C   UNL     1       0.865  10.119  19.471  0.00  0.00    +0.000 A 
ATOM      8  C   UNL     1       0.306  10.760  20.582  0.00  0.00    +0.000 A 
BRANCH   3  10
ATOM      9  C   UNL     1      -1.143  11.714  22.846  0.00  0.00    +0.000 C 
ATOM     10  O   UNL     1      -0.195  10.662  22.988  0.00  0.00    +0.000 OA
ENDBRANCH   3  10
BRANCH   7  11
ATOM     11  O   UNL     1       0.693  10.777  18.284  0.00  0.00    +0.000 OA
ATOM     12  H   UNL     1       1.256  10.342  17.617  0.00  0.00    +0.000 HD
ENDBRANCH   7  11
ENDBRANCH   1   6
BRANCH   1  13
ATOM     13  C   UNL     1       2.541   6.712  18.698  0.00  0.00    +0.000 C 
ATOM     14  C   UNL     1       1.922   5.734  18.015  0.00  0.00    +0.000 C 
BRANCH  14  15
ATOM     15  C   UNL     1       2.373   4.346  18.153  0.00  0.00    +0.000 A 
ATOM     16  C   UNL     1       1.686   3.468  18.999  0.00  0.00    +0.000 A 
ATOM     17  F   UNL     1       0.579   3.875  19.638  0.00  0.00    +0.000 F 
ATOM     18  C   UNL     1       2.134   2.166  19.220  0.00  0.00    +0.000 A 
ATOM     19  C   UNL     1       3.289   1.715  18.587  0.00  0.00    +0.000 A 
ATOM     20  C   UNL     1       3.985   2.566  17.728  0.00  0.00    +0.000 A 
ATOM     21  C   UNL     1       3.531   3.873  17.511  0.00  0.00    +0.000 A 
ATOM     22 CL   UNL     1       4.460   4.878  16.452  0.00  0.00    +0.000 Cl
ENDBRANCH  14  15
ENDBRANCH   1  13
TORSDOF 5
ENDMDL
MODEL 3
REMARK VINA RESULT:      -7.2      1.478      1.602
REMARK  Name = 
REMARK  6 active torsions:
REMARK  status: ('A' for Active; 'I' for Inactive)
REMARK    1  A    between atoms: C_1  and  O_2
REMARK    2  A    between atoms: O_2  and  C_3
REMARK    3  A    between atoms: C_6  and  C_7
REMARK    4  A    between atoms: C_7  and  C_9
REMARK    5  A    between atoms: C_10  and  C_11
REMARK    6  A    between atoms: C_19  and  O_20
REMARK                            x       y       z     vdW  Elec       q    Type
REMARK                         _______ _______ _______ _____ _____    ______ ____
ROOT
ATOM      1  C   UNL     1       2.074   8.248  18.512  0.00  0.00    +0.000 C 
ATOM      2  O   UNL     1       2.470   8.834  17.509  0.00  0.00    +0.000 OA
ENDROOT
BRANCH   1   6
ATOM      3  C   UNL     1       0.362  10.364  21.868  0.00  0.00    +0.000 A 
ATOM      4  C   UNL     1       0.919   9.092  22.004  0.00  0.00    +0.000 A 
ATOM      5  C   UNL     1       1.458   8.428  20.896  0.00  0.00    +0.000 A 
ATOM      6  C   UNL     1       1.451   9.027  19.627  0.00  0.00    +0.000 A 
ATOM      7  C   UNL     1       0.861  10.292  19.498  0.00  0.00    +0.000 A 
ATOM      8  C   UNL     1       0.341  10.964  20.610  0.00  0.00    +0.000 A 
BRANCH   3  10
ATOM      9  C   UNL     1      -1.538  11.131  23.073  0.00  0.00    +0.000 C 
ATOM     10  O   UNL     1      -0.134  10.906  23.023  0.00  0.00    +0.000 OA
ENDBRANCH   3  10
BRANCH   7  11
ATOM     11  O   UNL     1       0.701  10.947  18.307  0.00  0.00    +0.000 OA
ATOM     12  H   UNL     1       1.553  10.919  17.835  0.00  0.00    +0.000 HD
ENDBRANCH   7  11
ENDBRANCH   1   6
BRANCH   1  13
ATOM     13  C   UNL     1       2.175   6.774  18.643  0.00  0.00    +0.000 C 
ATOM     14  C   UNL     1       3.048   6.080  17.893  0.00  0.00    +0.000 C 
BRANCH  14  15
ATOM     15  C   UNL     1       3.218   4.641  18.110  0.00  0.00    +0.000 A 
ATOM     16  C   UNL     1       2.214   3.750  17.711  0.00  0.00    +0.000 A 
ATOM     17  F   UNL     1       1.124   4.204  17.075  0.00  0.00    +0.000 F 
ATOM     18  C   UNL     1       2.304   2.383  17.975  0.00  0.00    +0.000 A 
ATOM     19  C   UNL     1       3.413   1.879  18.647  0.00  0.00    +0.000 A 
ATOM     20  C   UNL     1       4.434   2.745  19.044  0.00  0.00    +0.000 A 
ATOM     21  C   UNL     1       4.338   4.116  18.776  0.00  0.00    +0.000 A 
ATOM     22 CL   UNL     1       5.632   5.130  19.321  0.00  0.00    +0.000 Cl
ENDBRANCH  14  15
ENDBRANCH   1  13
TORSDOF 5
ENDMDL
MODEL 4
REMARK VINA RESULT:      -7.1      4.865      6.251
REMARK  Name = 
REMARK  6 active torsions:
REMARK  status: ('A' for Active; 'I' for Inactive)
REMARK    1  A    between atoms: C_1  and  O_2
REMARK    2  A    between atoms: O_2  and  C_3
REMARK    3  A    between atoms: C_6  and  C_7
REMARK    4  A    between atoms: C_7  and  C_9
REMARK    5  A    between atoms: C_10  and  C_11
REMARK    6  A    between atoms: C_19  and  O_20
REMARK                            x       y       z     vdW  Elec       q    Type
REMARK                         _______ _______ _______ _____ _____    ______ ____
ROOT
ATOM      1  C   UNL     1       5.760   4.180  16.881  0.00  0.00    +0.000 C 
ATOM      2  O   UNL     1       6.104   3.585  15.863  0.00  0.00    +0.000 OA
ENDROOT
BRANCH   1   6
ATOM      3  C   UNL     1       8.025   7.605  18.224  0.00  0.00    +0.000 A 
ATOM      4  C   UNL     1       8.144   6.357  18.835  0.00  0.00    +0.000 A 
ATOM      5  C   UNL     1       7.390   5.268  18.382  0.00  0.00    +0.000 A 
ATOM      6  C   UNL     1       6.500   5.408  17.306  0.00  0.00    +0.000 A 
ATOM      7  C   UNL     1       6.368   6.676  16.722  0.00  0.00    +0.000 A 
ATOM      8  C   UNL     1       7.137   7.759  17.161  0.00  0.00    +0.000 A 
BRANCH   3  10
ATOM      9  C   UNL     1       8.617   9.908  18.263  0.00  0.00    +0.000 C 
ATOM     10  O   UNL     1       8.812   8.589  18.760  0.00  0.00    +0.000 OA
ENDBRANCH   3  10
BRANCH   7  11
ATOM     11  O   UNL     1       5.471   6.975  15.733  0.00  0.00    +0.000 OA
ATOM     12  H   UNL     1       5.950   6.965  14.884  0.00  0.00    +0.000 HD
ENDBRANCH   7  11
ENDBRANCH   1   6
BRANCH   1  13
ATOM     13  C   UNL     1       4.607   3.726  17.696  0.00  0.00    +0.000 C 
ATOM     14  C   UNL     1       4.485   4.107  18.978  0.00  0.00    +0.000 C 
BRANCH  14  15
ATOM     15  C   UNL     1       3.287   3.744  19.740  0.00  0.00    +0.000 A 
ATOM     16  C   UNL     1       3.341   2.704  20.676  0.00  0.00    +0.000 A 
ATOM     17  F   UNL     1       4.501   2.078  20.922  0.00  0.00    +0.000 F 
ATOM     18  C   UNL     1       2.202   2.276  21.358  0.00  0.00    +0.000 A 
ATOM     19  C   UNL     1       0.978   2.892  21.116  0.00  0.00    +0.000 A 
ATOM     20  C   UNL     1       0.900   3.940  20.198  0.00  0.00    +0.000 A 
ATOM     21  C   UNL     1       2.046   4.365  19.515  0.00  0.00    +0.000 A 
ATOM     22 CL   UNL     1       1.866   5.654  18.374  0.00  0.00    +0.000 Cl
ENDBRANCH  14  15
ENDBRANCH   1  13
TORSDOF 5
ENDMDL
MODEL 5
REMARK VINA RESULT:      -7.0      4.801      6.355
REMARK  Name = 
REMARK  6 active torsions:
REMARK  status: ('A' for Active; 'I' for Inactive)
REMARK    1  A    between atoms: C_1  and  O_2
REMARK    2  A    between atoms: O_2  and  C_3
REMARK    3  A    between atoms: C_6  and  C_7
REMARK    4  A    between atoms: C_7  and  C_9
REMARK    5  A    between atoms: C_10  and  C_11
REMARK    6  A    between atoms: C_19  and  O_20
REMARK                            x       y       z     vdW  Elec       q    Type
REMARK                         _______ _______ _______ _____ _____    ______ ____
ROOT
ATOM      1  C   UNL     1       5.546   5.102  16.382  0.00  0.00    +0.000 C 
ATOM      2  O   UNL     1       5.783   4.773  15.223  0.00  0.00    +0.000 OA
ENDROOT
BRANCH   1   6
ATOM      3  C   UNL     1       8.169   7.878  18.403  0.00  0.00    +0.000 A 
ATOM      4  C   UNL     1       7.231   8.301  17.461  0.00  0.00    +0.000 A 
ATOM      5  C   UNL     1       6.401   7.376  16.817  0.00  0.00    +0.000 A 
ATOM      6  C   UNL     1       6.494   6.006  17.104  0.00  0.00    +0.000 A 
ATOM      7  C   UNL     1       7.462   5.591  18.029  0.00  0.00    +0.000 A 
ATOM      8  C   UNL     1       8.277   6.518  18.688  0.00  0.00    +0.000 A 
BRANCH   3  10
ATOM      9  C   UNL     1       8.837  10.159  18.349  0.00  0.00    +0.000 C 
ATOM     10  O   UNL     1       8.921   8.876  18.959  0.00  0.00    +0.000 OA
ENDBRANCH   3  10
BRANCH   7  11
ATOM     11  O   UNL     1       7.724   4.282  18.330  0.00  0.00    +0.000 OA
ATOM     12  H   UNL     1       8.270   3.914  17.611  0.00  0.00    +0.000 HD
ENDBRANCH   7  11
ENDBRANCH   1   6
BRANCH   1  13
ATOM     13  C   UNL     1       4.324   4.643  17.087  0.00  0.00    +0.000 C 
ATOM     14  C   UNL     1       4.374   4.291  18.382  0.00  0.00    +0.000 C 
BRANCH  14  15
ATOM     15  C   UNL     1       3.142   3.946  19.097  0.00  0.00    +0.000 A 
ATOM     16  C   UNL     1       2.413   4.943  19.755  0.00  0.00    +0.000 A 
ATOM     17  F   UNL     1       2.805   6.224  19.683  0.00  0.00    +0.000 F 
ATOM     18  C   UNL     1       1.283   4.641  20.514  0.00  0.00    +0.000 A 
ATOM     19  C   UNL     1       0.856   3.320  20.625  0.00  0.00    +0.000 A 
ATOM     20  C   UNL     1       1.558   2.309  19.967  0.00  0.00    +0.000 A 
ATOM     21  C   UNL     1       2.693   2.619  19.207  0.00  0.00    +0.000 A 
ATOM     22 CL   UNL     1       3.525   1.309  18.441  0.00  0.00    +0.000 Cl
ENDBRANCH  14  15
ENDBRANCH   1  13
TORSDOF 5
ENDMDL
MODEL 6
REMARK VINA RESULT:      -7.0      4.725      6.187
REMARK  Name = 
REMARK  6 active torsions:
REMARK  status: ('A' for Active; 'I' for Inactive)
REMARK    1  A    between atoms: C_1  and  O_2
REMARK    2  A    between atoms: O_2  and  C_3
REMARK    3  A    between atoms: C_6  and  C_7
REMARK    4  A    between atoms: C_7  and  C_9
REMARK    5  A    between atoms: C_10  and  C_11
REMARK    6  A    between atoms: C_19  and  O_20
REMARK                            x       y       z     vdW  Elec       q    Type
REMARK                         _______ _______ _______ _____ _____    ______ ____
ROOT
ATOM      1  C   UNL     1       5.817   4.182  16.496  0.00  0.00    +0.000 C 
ATOM      2  O   UNL     1       6.294   3.595  15.529  0.00  0.00    +0.000 OA
ENDROOT
BRANCH   1   6
ATOM      3  C   UNL     1       7.973   7.511  18.211  0.00  0.00    +0.000 A 
ATOM      4  C   UNL     1       8.133   6.207  18.681  0.00  0.00    +0.000 A 
ATOM      5  C   UNL     1       7.414   5.151  18.111  0.00  0.00    +0.000 A 
ATOM      6  C   UNL     1       6.518   5.379  17.055  0.00  0.00    +0.000 A 
ATOM      7  C   UNL     1       6.343   6.698  16.613  0.00  0.00    +0.000 A 
ATOM      8  C   UNL     1       7.078   7.751  17.170  0.00  0.00    +0.000 A 
BRANCH   3  10
ATOM      9  C   UNL     1       8.666   9.782  18.341  0.00  0.00    +0.000 C 
ATOM     10  O   UNL     1       8.728   8.455  18.853  0.00  0.00    +0.000 OA
ENDBRANCH   3  10
BRANCH   7  11
ATOM     11  O   UNL     1       5.436   7.075  15.661  0.00  0.00    +0.000 OA
ATOM     12  H   UNL     1       4.553   7.076  16.075  0.00  0.00    +0.000 HD
ENDBRANCH   7  11
ENDBRANCH   1   6
BRANCH   1  13
ATOM     13  C   UNL     1       4.542   3.748  17.119  0.00  0.00    +0.000 C 
ATOM     14  C   UNL     1       4.371   3.828  18.449  0.00  0.00    +0.000 C 
BRANCH  14  15
ATOM     15  C   UNL     1       3.070   3.502  19.041  0.00  0.00    +0.000 A 
ATOM     16  C   UNL     1       2.563   2.201  18.942  0.00  0.00    +0.000 A 
ATOM     17  F   UNL     1       3.291   1.235  18.361  0.00  0.00    +0.000 F 
ATOM     18  C   UNL     1       1.294   1.874  19.420  0.00  0.00    +0.000 A 
ATOM     19  C   UNL     1       0.505   2.853  20.014  0.00  0.00    +0.000 A 
ATOM     20  C   UNL     1       0.993   4.155  20.137  0.00  0.00    +0.000 A 
ATOM     21  C   UNL     1       2.267   4.478  19.655  0.00  0.00    +0.000 A 
ATOM     22 CL   UNL     1       2.794   6.118  19.821  0.00  0.00    +0.000 Cl
ENDBRANCH  14  15
ENDBRANCH   1  13
TORSDOF 5
ENDMDL
MODEL 7
REMARK VINA RESULT:      -7.0      4.985      6.279
REMARK  Name = 
REMARK  6 active torsions:
REMARK  status: ('A' for Active; 'I' for Inactive)
REMARK    1  A    between atoms: C_1  and  O_2
REMARK    2  A    between atoms: O_2  and  C_3
REMARK    3  A    between atoms: C_6  and  C_7
REMARK    4  A    between atoms: C_7  and  C_9
REMARK    5  A    between atoms: C_10  and  C_11
REMARK    6  A    between atoms: C_19  and  O_20
REMARK                            x       y       z     vdW  Elec       q    Type
REMARK                         _______ _______ _______ _____ _____    ______ ____
ROOT
ATOM      1  C   UNL     1       5.460   5.130  16.304  0.00  0.00    +0.000 C 
ATOM      2  O   UNL     1       5.739   4.747  15.172  0.00  0.00    +0.000 OA
ENDROOT
BRANCH   1   6
ATOM      3  C   UNL     1       8.143   7.796  18.394  0.00  0.00    +0.000 A 
ATOM      4  C   UNL     1       7.267   8.253  17.408  0.00  0.00    +0.000 A 
ATOM      5  C   UNL     1       6.416   7.363  16.743  0.00  0.00    +0.000 A 
ATOM      6  C   UNL     1       6.425   5.995  17.052  0.00  0.00    +0.000 A 
ATOM      7  C   UNL     1       7.331   5.544  18.022  0.00  0.00    +0.000 A 
ATOM      8  C   UNL     1       8.167   6.437  18.702  0.00  0.00    +0.000 A 
BRANCH   3  10
ATOM      9  C   UNL     1       8.820  10.075  18.428  0.00  0.00    +0.000 C 
ATOM     10  O   UNL     1       8.924   8.762  18.968  0.00  0.00    +0.000 OA
ENDBRANCH   3  10
BRANCH   7  11
ATOM     11  O   UNL     1       7.511   4.228  18.352  0.00  0.00    +0.000 OA
ATOM     12  H   UNL     1       6.915   3.697  17.793  0.00  0.00    +0.000 HD
ENDBRANCH   7  11
ENDBRANCH   1   6
BRANCH   1  13
ATOM     13  C   UNL     1       4.172   4.776  16.951  0.00  0.00    +0.000 C 
ATOM     14  C   UNL     1       4.118   3.807  17.879  0.00  0.00    +0.000 C 
BRANCH  14  15
ATOM     15  C   UNL     1       2.865   3.541  18.590  0.00  0.00    +0.000 A 
ATOM     16  C   UNL     1       2.060   2.461  18.209  0.00  0.00    +0.000 A 
ATOM     17  F   UNL     1       2.461   1.631  17.235  0.00  0.00    +0.000 F 
ATOM     18  C   UNL     1       0.821   2.228  18.807  0.00  0.00    +0.000 A 
ATOM     19  C   UNL     1       0.364   3.079  19.809  0.00  0.00    +0.000 A 
ATOM     20  C   UNL     1       1.154   4.155  20.216  0.00  0.00    +0.000 A 
ATOM     21  C   UNL     1       2.396   4.385  19.612  0.00  0.00    +0.000 A 
ATOM     22 CL   UNL     1       3.308   5.753  20.153  0.00  0.00    +0.000 Cl
ENDBRANCH  14  15
ENDBRANCH   1  13
TORSDOF 5
ENDMDL
MODEL 8
REMARK VINA RESULT:      -6.9      3.394      7.470
REMARK  Name = 
REMARK  6 active torsions:
REMARK  status: ('A' for Active; 'I' for Inactive)
REMARK    1  A    between atoms: C_1  and  O_2
REMARK    2  A    between atoms: O_2  and  C_3
REMARK    3  A    between atoms: C_6  and  C_7
REMARK    4  A    between atoms: C_7  and  C_9
REMARK    5  A    between atoms: C_10  and  C_11
REMARK    6  A    between atoms: C_19  and  O_20
REMARK                            x       y       z     vdW  Elec       q    Type
REMARK                         _______ _______ _______ _____ _____    ______ ____
ROOT
ATOM      1  C   UNL     1       3.250   5.493  19.422  0.00  0.00    +0.000 C 
ATOM      2  O   UNL     1       3.227   4.683  20.344  0.00  0.00    +0.000 OA
ENDROOT
BRANCH   1   6
ATOM      3  C   UNL     1       6.376   5.515  16.439  0.00  0.00    +0.000 A 
ATOM      4  C   UNL     1       5.304   6.406  16.391  0.00  0.00    +0.000 A 
ATOM      5  C   UNL     1       4.301   6.369  17.367  0.00  0.00    +0.000 A 
ATOM      6  C   UNL     1       4.354   5.436  18.414  0.00  0.00    +0.000 A 
ATOM      7  C   UNL     1       5.420   4.526  18.433  0.00  0.00    +0.000 A 
ATOM      8  C   UNL     1       6.432   4.578  17.469  0.00  0.00    +0.000 A 
BRANCH   3  10
ATOM      9  C   UNL     1       7.108   4.817  14.287  0.00  0.00    +0.000 C 
ATOM     10  O   UNL     1       7.287   5.651  15.427  0.00  0.00    +0.000 OA
ENDBRANCH   3  10
BRANCH   7  11
ATOM     11  O   UNL     1       5.543   3.507  19.338  0.00  0.00    +0.000 OA
ATOM     12  H   UNL     1       4.744   3.506  19.896  0.00  0.00    +0.000 HD
ENDBRANCH   7  11
ENDBRANCH   1   6
BRANCH   1  13
ATOM     13  C   UNL     1       2.192   6.521  19.262  0.00  0.00    +0.000 C 
ATOM     14  C   UNL     1       2.294   7.708  19.883  0.00  0.00    +0.000 C 
BRANCH  14  15
ATOM     15  C   UNL     1       1.301   8.756  19.630  0.00  0.00    +0.000 A 
ATOM     16  C   UNL     1       1.173   9.303  18.348  0.00  0.00    +0.000 A 
ATOM     17  F   UNL     1       1.914   8.829  17.335  0.00  0.00    +0.000 F 
ATOM     18  C   UNL     1       0.299  10.358  18.089  0.00  0.00    +0.000 A 
ATOM     19  C   UNL     1      -0.473  10.886  19.119  0.00  0.00    +0.000 A 
ATOM     20  C   UNL     1      -0.374  10.349  20.403  0.00  0.00    +0.000 A 
ATOM     21  C   UNL     1       0.506   9.291  20.658  0.00  0.00    +0.000 A 
ATOM     22 CL   UNL     1       0.592   8.694  22.281  0.00  0.00    +0.000 Cl
ENDBRANCH  14  15
ENDBRANCH   1  13
TORSDOF 5
ENDMDL
MODEL 9
REMARK VINA RESULT:      -6.8      1.946      2.255
REMARK  Name = 
REMARK  6 active torsions:
REMARK  status: ('A' for Active; 'I' for Inactive)
REMARK    1  A    between atoms: C_1  and  O_2
REMARK    2  A    between atoms: O_2  and  C_3
REMARK    3  A    between atoms: C_6  and  C_7
REMARK    4  A    between atoms: C_7  and  C_9
REMARK    5  A    between atoms: C_10  and  C_11
REMARK    6  A    between atoms: C_19  and  O_20
REMARK                            x       y       z     vdW  Elec       q    Type
REMARK                         _______ _______ _______ _____ _____    ______ ____
ROOT
ATOM      1  C   UNL     1       1.901   8.567  18.444  0.00  0.00    +0.000 C 
ATOM      2  O   UNL     1       2.243   8.934  17.324  0.00  0.00    +0.000 OA
ENDROOT
BRANCH   1   6
ATOM      3  C   UNL     1      -0.678  10.985  20.929  0.00  0.00    +0.000 A 
ATOM      4  C   UNL     1       0.319  10.173  21.470  0.00  0.00    +0.000 A 
ATOM      5  C   UNL     1       1.134   9.395  20.640  0.00  0.00    +0.000 A 
ATOM      6  C   UNL     1       0.965   9.413  19.247  0.00  0.00    +0.000 A 
ATOM      7  C   UNL     1      -0.061  10.208  18.718  0.00  0.00    +0.000 A 
ATOM      8  C   UNL     1      -0.861  11.003  19.547  0.00  0.00    +0.000 A 
BRANCH   3  10
ATOM      9  C   UNL     1      -1.458  11.172  23.167  0.00  0.00    +0.000 C 
ATOM     10  O   UNL     1      -1.408  11.694  21.844  0.00  0.00    +0.000 OA
ENDBRANCH   3  10
BRANCH   7  11
ATOM     11  O   UNL     1      -0.397  10.247  17.392  0.00  0.00    +0.000 OA
ATOM     12  H   UNL     1       0.122  10.958  16.974  0.00  0.00    +0.000 HD
ENDBRANCH   7  11
ENDBRANCH   1   6
BRANCH   1  13
ATOM     13  C   UNL     1       2.375   7.285  19.022  0.00  0.00    +0.000 C 
ATOM     14  C   UNL     1       2.103   6.119  18.411  0.00  0.00    +0.000 C 
BRANCH  14  15
ATOM     15  C   UNL     1       2.670   4.871  18.930  0.00  0.00    +0.000 A 
ATOM     16  C   UNL     1       2.110   4.266  20.061  0.00  0.00    +0.000 A 
ATOM     17  F   UNL     1       1.019   4.791  20.637  0.00  0.00    +0.000 F 
ATOM     18  C   UNL     1       2.673   3.124  20.631  0.00  0.00    +0.000 A 
ATOM     19  C   UNL     1       3.815   2.561  20.070  0.00  0.00    +0.000 A 
ATOM     20  C   UNL     1       4.384   3.137  18.934  0.00  0.00    +0.000 A 
ATOM     21  C   UNL     1       3.816   4.284  18.366  0.00  0.00    +0.000 A 
ATOM     22 CL   UNL     1       4.592   4.956  16.973  0.00  0.00    +0.000 Cl
ENDBRANCH  14  15
ENDBRANCH   1  13
TORSDOF 5
ENDMDL
