MODEL 1
REMARK VINA RESULT:      -7.3      0.000      0.000
REMARK  Name = 
REMARK  10 active torsions:
REMARK  status: ('A' for Active; 'I' for Inactive)
REMARK    1  A    between atoms: C_1  and  C_2
REMARK    2  A    between atoms: C_2  and  C_3
REMARK    3  A    between atoms: C_2  and  C_4
REMARK    4  A    between atoms: C_4  and  O_5
REMARK    5  A    between atoms: O_5  and  C_6
REMARK    6  A    between atoms: C_6  and  C_7
REMARK    7  A    between atoms: C_7  and  C_8
REMARK    8  A    between atoms: N_10  and  C_11
REMARK    9  A    between atoms: C_12  and  C_13
REMARK   10  A    between atoms: N_22  and  C_23
REMARK                            x       y       z     vdW  Elec       q    Type
REMARK                         _______ _______ _______ _____ _____    ______ ____
ROOT
ATOM      1  C   UNL     1       3.605   4.513  19.438  0.00  0.00    +0.000 A 
ATOM      2  C   UNL     1       2.575   5.302  19.928  0.00  0.00    +0.000 A 
ATOM      3  N   UNL     1       1.915   4.635  20.937  0.00  0.00    +0.000 NA
ATOM      4  C   UNL     1       2.546   3.492  21.083  0.00  0.00    +0.000 A 
ATOM      5  N   UNL     1       3.593   3.381  20.213  0.00  0.00    +0.000 N 
ATOM      6  C   UNL     1       4.389   2.190  20.032  0.00  0.00    +0.000 C 
ENDROOT
BRANCH   2   7
ATOM      7  C   UNL     1       2.213   6.658  19.523  0.00  0.00    +0.000 A 
ATOM      8  C   UNL     1       1.677   7.544  20.471  0.00  0.00    +0.000 A 
ATOM      9  C   UNL     1       1.347   8.857  20.120  0.00  0.00    +0.000 A 
ATOM     10  C   UNL     1       1.554   9.292  18.818  0.00  0.00    +0.000 A 
ATOM     11  F   UNL     1       1.235  10.544  18.475  0.00  0.00    +0.000 F 
ATOM     12  C   UNL     1       2.102   8.441  17.865  0.00  0.00    +0.000 A 
ATOM     13  C   UNL     1       2.449   7.135  18.225  0.00  0.00    +0.000 A 
ENDBRANCH   2   7
BRANCH   1  16
ATOM     14  C   UNL     1       4.101   4.313  17.029  0.00  0.00    +0.000 C 
ATOM     15  O   UNL     1       3.160   3.555  16.857  0.00  0.00    +0.000 OA
ATOM     16  N   UNL     1       4.402   4.791  18.346  0.00  0.00    +0.000 N 
ATOM     17  H   UNL     1       5.309   5.237  18.517  0.00  0.00    +0.000 HD
BRANCH  14  18
ATOM     18  C   UNL     1       5.079   4.672  15.946  0.00  0.00    +0.000 C 
BRANCH  18  19
ATOM     19  C   UNL     1       6.385   3.923  16.125  0.00  0.00    +0.000 C 
BRANCH  19  20
ATOM     20  O   UNL     1       7.404   4.760  16.696  0.00  0.00    +0.000 OA
BRANCH  20  21
ATOM     21  C   UNL     1       7.206   6.175  16.576  0.00  0.00    +0.000 C 
BRANCH  21  23
ATOM     22  C   UNL     1       7.887   6.043  18.978  0.00  0.00    +0.000 C 
ATOM     23  C   UNL     1       7.246   6.922  17.908  0.00  0.00    +0.000 C 
ATOM     24  C   UNL     1       7.986   8.248  17.744  0.00  0.00    +0.000 C 
ENDBRANCH  21  23
ENDBRANCH  20  21
ENDBRANCH  19  20
ENDBRANCH  18  19
ENDBRANCH  14  18
ENDBRANCH   1  16
TORSDOF 7
ENDMDL
MODEL 2
REMARK VINA RESULT:      -7.3      3.496      6.645
REMARK  Name = 
REMARK  10 active torsions:
REMARK  status: ('A' for Active; 'I' for Inactive)
REMARK    1  A    between atoms: C_1  and  C_2
REMARK    2  A    between atoms: C_2  and  C_3
REMARK    3  A    between atoms: C_2  and  C_4
REMARK    4  A    between atoms: C_4  and  O_5
REMARK    5  A    between atoms: O_5  and  C_6
REMARK    6  A    between atoms: C_6  and  C_7
REMARK    7  A    between atoms: C_7  and  C_8
REMARK    8  A    between atoms: N_10  and  C_11
REMARK    9  A    between atoms: C_12  and  C_13
REMARK   10  A    between atoms: N_22  and  C_23
REMARK                            x       y       z     vdW  Elec       q    Type
REMARK                         _______ _______ _______ _____ _____    ______ ____
ROOT
ATOM      1  C   UNL     1       6.893   5.009  17.729  0.00  0.00    +0.000 A 
ATOM      2  C   UNL     1       6.991   5.533  16.449  0.00  0.00    +0.000 A 
ATOM      3  N   UNL     1       7.586   6.774  16.497  0.00  0.00    +0.000 NA
ATOM      4  C   UNL     1       7.876   6.984  17.760  0.00  0.00    +0.000 A 
ATOM      5  N   UNL     1       7.498   5.931  18.544  0.00  0.00    +0.000 N 
ATOM      6  C   UNL     1       7.552   5.919  19.986  0.00  0.00    +0.000 C 
ENDROOT
BRANCH   2   7
ATOM      7  C   UNL     1       6.590   4.908  15.190  0.00  0.00    +0.000 A 
ATOM      8  C   UNL     1       5.303   4.362  15.068  0.00  0.00    +0.000 A 
ATOM      9  C   UNL     1       4.880   3.782  13.867  0.00  0.00    +0.000 A 
ATOM     10  C   UNL     1       5.744   3.746  12.781  0.00  0.00    +0.000 A 
ATOM     11  F   UNL     1       5.348   3.188  11.633  0.00  0.00    +0.000 F 
ATOM     12  C   UNL     1       7.017   4.297  12.870  0.00  0.00    +0.000 A 
ATOM     13  C   UNL     1       7.428   4.894  14.066  0.00  0.00    +0.000 A 
ENDBRANCH   2   7
BRANCH   1  16
ATOM     14  C   UNL     1       4.893   3.832  18.569  0.00  0.00    +0.000 C 
ATOM     15  O   UNL     1       4.303   4.884  18.757  0.00  0.00    +0.000 OA
ATOM     16  N   UNL     1       6.243   3.845  18.091  0.00  0.00    +0.000 N 
ATOM     17  H   UNL     1       6.799   2.986  18.148  0.00  0.00    +0.000 HD
BRANCH  14  18
ATOM     18  C   UNL     1       4.331   2.493  18.953  0.00  0.00    +0.000 C 
BRANCH  18  19
ATOM     19  C   UNL     1       3.064   2.194  18.175  0.00  0.00    +0.000 C 
BRANCH  19  20
ATOM     20  O   UNL     1       1.976   1.842  19.045  0.00  0.00    +0.000 OA
BRANCH  20  21
ATOM     21  C   UNL     1       0.941   2.822  19.197  0.00  0.00    +0.000 C 
BRANCH  21  23
ATOM     22  C   UNL     1       1.651   2.595  21.583  0.00  0.00    +0.000 C 
ATOM     23  C   UNL     1       0.891   3.461  20.584  0.00  0.00    +0.000 C 
ATOM     24  C   UNL     1       1.445   4.884  20.526  0.00  0.00    +0.000 C 
ENDBRANCH  21  23
ENDBRANCH  20  21
ENDBRANCH  19  20
ENDBRANCH  18  19
ENDBRANCH  14  18
ENDBRANCH   1  16
TORSDOF 7
ENDMDL
MODEL 3
REMARK VINA RESULT:      -7.3      3.508      6.672
REMARK  Name = 
REMARK  10 active torsions:
REMARK  status: ('A' for Active; 'I' for Inactive)
REMARK    1  A    between atoms: C_1  and  C_2
REMARK    2  A    between atoms: C_2  and  C_3
REMARK    3  A    between atoms: C_2  and  C_4
REMARK    4  A    between atoms: C_4  and  O_5
REMARK    5  A    between atoms: O_5  and  C_6
REMARK    6  A    between atoms: C_6  and  C_7
REMARK    7  A    between atoms: C_7  and  C_8
REMARK    8  A    between atoms: N_10  and  C_11
REMARK    9  A    between atoms: C_12  and  C_13
REMARK   10  A    between atoms: N_22  and  C_23
REMARK                            x       y       z     vdW  Elec       q    Type
REMARK                         _______ _______ _______ _____ _____    ______ ____
ROOT
ATOM      1  C   UNL     1       6.909   5.030  17.780  0.00  0.00    +0.000 A 
ATOM      2  C   UNL     1       6.958   5.572  16.504  0.00  0.00    +0.000 A 
ATOM      3  N   UNL     1       7.565   6.808  16.544  0.00  0.00    +0.000 NA
ATOM      4  C   UNL     1       7.908   6.997  17.797  0.00  0.00    +0.000 A 
ATOM      5  N   UNL     1       7.553   5.937  18.582  0.00  0.00    +0.000 N 
ATOM      6  C   UNL     1       7.666   5.905  20.020  0.00  0.00    +0.000 C 
ENDROOT
BRANCH   2   7
ATOM      7  C   UNL     1       6.502   4.966  15.254  0.00  0.00    +0.000 A 
ATOM      8  C   UNL     1       7.373   4.908  14.155  0.00  0.00    +0.000 A 
ATOM      9  C   UNL     1       6.975   4.311  12.955  0.00  0.00    +0.000 A 
ATOM     10  C   UNL     1       5.703   3.764  12.849  0.00  0.00    +0.000 A 
ATOM     11  F   UNL     1       5.315   3.196  11.703  0.00  0.00    +0.000 F 
ATOM     12  C   UNL     1       4.829   3.790  13.929  0.00  0.00    +0.000 A 
ATOM     13  C   UNL     1       5.237   4.372  15.133  0.00  0.00    +0.000 A 
ENDBRANCH   2   7
BRANCH   1  16
ATOM     14  C   UNL     1       4.981   3.865  18.788  0.00  0.00    +0.000 C 
ATOM     15  O   UNL     1       4.456   4.921  19.104  0.00  0.00    +0.000 OA
ATOM     16  N   UNL     1       6.265   3.867  18.153  0.00  0.00    +0.000 N 
ATOM     17  H   UNL     1       6.792   2.990  18.094  0.00  0.00    +0.000 HD
BRANCH  14  18
ATOM     18  C   UNL     1       4.421   2.522  19.163  0.00  0.00    +0.000 C 
BRANCH  18  19
ATOM     19  C   UNL     1       3.227   2.172  18.295  0.00  0.00    +0.000 C 
BRANCH  19  20
ATOM     20  O   UNL     1       2.091   1.788  19.085  0.00  0.00    +0.000 OA
BRANCH  20  21
ATOM     21  C   UNL     1       1.019   2.737  19.161  0.00  0.00    +0.000 C 
BRANCH  21  23
ATOM     22  C   UNL     1       1.605   2.585  21.586  0.00  0.00    +0.000 C 
ATOM     23  C   UNL     1       0.881   3.409  20.526  0.00  0.00    +0.000 C 
ATOM     24  C   UNL     1       1.407   4.842  20.461  0.00  0.00    +0.000 C 
ENDBRANCH  21  23
ENDBRANCH  20  21
ENDBRANCH  19  20
ENDBRANCH  18  19
ENDBRANCH  14  18
ENDBRANCH   1  16
TORSDOF 7
ENDMDL
MODEL 4
REMARK VINA RESULT:      -7.1      1.589      2.875
REMARK  Name = 
REMARK  10 active torsions:
REMARK  status: ('A' for Active; 'I' for Inactive)
REMARK    1  A    between atoms: C_1  and  C_2
REMARK    2  A    between atoms: C_2  and  C_3
REMARK    3  A    between atoms: C_2  and  C_4
REMARK    4  A    between atoms: C_4  and  O_5
REMARK    5  A    between atoms: O_5  and  C_6
REMARK    6  A    between atoms: C_6  and  C_7
REMARK    7  A    between atoms: C_7  and  C_8
REMARK    8  A    between atoms: N_10  and  C_11
REMARK    9  A    between atoms: C_12  and  C_13
REMARK   10  A    between atoms: N_22  and  C_23
REMARK                            x       y       z     vdW  Elec       q    Type
REMARK                         _______ _______ _______ _____ _____    ______ ____
ROOT
ATOM      1  C   UNL     1       3.589   4.651  19.463  0.00  0.00    +0.000 A 
ATOM      2  C   UNL     1       2.545   5.415  19.963  0.00  0.00    +0.000 A 
ATOM      3  N   UNL     1       1.857   4.699  20.917  0.00  0.00    +0.000 NA
ATOM      4  C   UNL     1       2.483   3.549  21.022  0.00  0.00    +0.000 A 
ATOM      5  N   UNL     1       3.555   3.481  20.179  0.00  0.00    +0.000 N 
ATOM      6  C   UNL     1       4.356   2.301  19.960  0.00  0.00    +0.000 C 
ENDROOT
BRANCH   2   7
ATOM      7  C   UNL     1       2.194   6.791  19.616  0.00  0.00    +0.000 A 
ATOM      8  C   UNL     1       2.376   7.240  18.299  0.00  0.00    +0.000 A 
ATOM      9  C   UNL     1       2.024   8.542  17.929  0.00  0.00    +0.000 A 
ATOM     10  C   UNL     1       1.485   9.402  18.877  0.00  0.00    +0.000 A 
ATOM     11  F   UNL     1       1.152  10.650  18.532  0.00  0.00    +0.000 F 
ATOM     12  C   UNL     1       1.276   8.976  20.183  0.00  0.00    +0.000 A 
ATOM     13  C   UNL     1       1.611   7.667  20.543  0.00  0.00    +0.000 A 
ENDBRANCH   2   7
BRANCH   1  16
ATOM     14  C   UNL     1       5.817   5.237  18.577  0.00  0.00    +0.000 C 
ATOM     15  O   UNL     1       6.303   5.255  19.697  0.00  0.00    +0.000 OA
ATOM     16  N   UNL     1       4.417   4.983  18.409  0.00  0.00    +0.000 N 
ATOM     17  H   UNL     1       3.980   5.187  17.505  0.00  0.00    +0.000 HD
BRANCH  14  18
ATOM     18  C   UNL     1       6.582   5.616  17.341  0.00  0.00    +0.000 C 
BRANCH  18  19
ATOM     19  C   UNL     1       5.706   6.396  16.380  0.00  0.00    +0.000 C 
BRANCH  19  20
ATOM     20  O   UNL     1       5.867   5.941  15.026  0.00  0.00    +0.000 OA
BRANCH  20  21
ATOM     21  C   UNL     1       5.616   4.550  14.789  0.00  0.00    +0.000 C 
BRANCH  21  23
ATOM     22  C   UNL     1       5.549   3.484  12.528  0.00  0.00    +0.000 C 
ATOM     23  C   UNL     1       6.457   3.952  13.661  0.00  0.00    +0.000 C 
ATOM     24  C   UNL     1       7.488   4.971  13.179  0.00  0.00    +0.000 C 
ENDBRANCH  21  23
ENDBRANCH  20  21
ENDBRANCH  19  20
ENDBRANCH  18  19
ENDBRANCH  14  18
ENDBRANCH   1  16
TORSDOF 7
ENDMDL
MODEL 5
REMARK VINA RESULT:      -7.1      1.517      2.898
REMARK  Name = 
REMARK  10 active torsions:
REMARK  status: ('A' for Active; 'I' for Inactive)
REMARK    1  A    between atoms: C_1  and  C_2
REMARK    2  A    between atoms: C_2  and  C_3
REMARK    3  A    between atoms: C_2  and  C_4
REMARK    4  A    between atoms: C_4  and  O_5
REMARK    5  A    between atoms: O_5  and  C_6
REMARK    6  A    between atoms: C_6  and  C_7
REMARK    7  A    between atoms: C_7  and  C_8
REMARK    8  A    between atoms: N_10  and  C_11
REMARK    9  A    between atoms: C_12  and  C_13
REMARK   10  A    between atoms: N_22  and  C_23
REMARK                            x       y       z     vdW  Elec       q    Type
REMARK                         _______ _______ _______ _____ _____    ______ ____
ROOT
ATOM      1  C   UNL     1       4.290   3.815  19.417  0.00  0.00    +0.000 A 
ATOM      2  C   UNL     1       3.194   4.634  19.647  0.00  0.00    +0.000 A 
ATOM      3  N   UNL     1       2.317   4.010  20.506  0.00  0.00    +0.000 NA
ATOM      4  C   UNL     1       2.877   2.864  20.819  0.00  0.00    +0.000 A 
ATOM      5  N   UNL     1       4.086   2.710  20.203  0.00  0.00    +0.000 N 
ATOM      6  C   UNL     1       4.876   1.503  20.234  0.00  0.00    +0.000 C 
ENDROOT
BRANCH   2   7
ATOM      7  C   UNL     1       2.958   5.982  19.133  0.00  0.00    +0.000 A 
ATOM      8  C   UNL     1       3.469   6.342  17.876  0.00  0.00    +0.000 A 
ATOM      9  C   UNL     1       3.236   7.615  17.344  0.00  0.00    +0.000 A 
ATOM     10  C   UNL     1       2.487   8.534  18.067  0.00  0.00    +0.000 A 
ATOM     11  F   UNL     1       2.265   9.753  17.567  0.00  0.00    +0.000 F 
ATOM     12  C   UNL     1       1.952   8.195  19.304  0.00  0.00    +0.000 A 
ATOM     13  C   UNL     1       2.172   6.915  19.824  0.00  0.00    +0.000 A 
ENDBRANCH   2   7
BRANCH   1  16
ATOM     14  C   UNL     1       6.503   4.758  18.867  0.00  0.00    +0.000 C 
ATOM     15  O   UNL     1       6.605   5.268  19.971  0.00  0.00    +0.000 OA
ATOM     16  N   UNL     1       5.311   4.045  18.516  0.00  0.00    +0.000 N 
ATOM     17  H   UNL     1       5.140   3.816  17.532  0.00  0.00    +0.000 HD
BRANCH  14  18
ATOM     18  C   UNL     1       7.513   4.956  17.771  0.00  0.00    +0.000 C 
BRANCH  18  19
ATOM     19  C   UNL     1       7.265   6.258  17.036  0.00  0.00    +0.000 C 
BRANCH  19  20
ATOM     20  O   UNL     1       6.611   6.040  15.775  0.00  0.00    +0.000 OA
BRANCH  20  21
ATOM     21  C   UNL     1       7.158   5.009  14.944  0.00  0.00    +0.000 C 
BRANCH  21  23
ATOM     22  C   UNL     1       4.777   4.265  15.117  0.00  0.00    +0.000 C 
ATOM     23  C   UNL     1       6.162   3.907  14.587  0.00  0.00    +0.000 C 
ATOM     24  C   UNL     1       6.151   3.679  13.076  0.00  0.00    +0.000 C 
ENDBRANCH  21  23
ENDBRANCH  20  21
ENDBRANCH  19  20
ENDBRANCH  18  19
ENDBRANCH  14  18
ENDBRANCH   1  16
TORSDOF 7
ENDMDL
MODEL 6
REMARK VINA RESULT:      -7.0      3.036      6.320
REMARK  Name = 
REMARK  10 active torsions:
REMARK  status: ('A' for Active; 'I' for Inactive)
REMARK    1  A    between atoms: C_1  and  C_2
REMARK    2  A    between atoms: C_2  and  C_3
REMARK    3  A    between atoms: C_2  and  C_4
REMARK    4  A    between atoms: C_4  and  O_5
REMARK    5  A    between atoms: O_5  and  C_6
REMARK    6  A    between atoms: C_6  and  C_7
REMARK    7  A    between atoms: C_7  and  C_8
REMARK    8  A    between atoms: N_10  and  C_11
REMARK    9  A    between atoms: C_12  and  C_13
REMARK   10  A    between atoms: N_22  and  C_23
REMARK                            x       y       z     vdW  Elec       q    Type
REMARK                         _______ _______ _______ _____ _____    ______ ____
ROOT
ATOM      1  C   UNL     1       3.508   4.668  19.984  0.00  0.00    +0.000 A 
ATOM      2  C   UNL     1       4.716   4.412  19.353  0.00  0.00    +0.000 A 
ATOM      3  N   UNL     1       4.937   3.053  19.302  0.00  0.00    +0.000 NA
ATOM      4  C   UNL     1       3.881   2.498  19.850  0.00  0.00    +0.000 A 
ATOM      5  N   UNL     1       2.974   3.435  20.257  0.00  0.00    +0.000 N 
ATOM      6  C   UNL     1       1.782   3.148  21.019  0.00  0.00    +0.000 C 
ENDROOT
BRANCH   2   7
ATOM      7  C   UNL     1       5.644   5.376  18.766  0.00  0.00    +0.000 A 
ATOM      8  C   UNL     1       6.919   5.541  19.329  0.00  0.00    +0.000 A 
ATOM      9  C   UNL     1       7.839   6.435  18.773  0.00  0.00    +0.000 A 
ATOM     10  C   UNL     1       7.489   7.169  17.647  0.00  0.00    +0.000 A 
ATOM     11  F   UNL     1       8.362   8.029  17.114  0.00  0.00    +0.000 F 
ATOM     12  C   UNL     1       6.240   7.009  17.058  0.00  0.00    +0.000 A 
ATOM     13  C   UNL     1       5.330   6.100  17.606  0.00  0.00    +0.000 A 
ENDBRANCH   2   7
BRANCH   1  16
ATOM     14  C   UNL     1       2.252   6.718  19.425  0.00  0.00    +0.000 C 
ATOM     15  O   UNL     1       2.102   6.359  18.268  0.00  0.00    +0.000 OA
ATOM     16  N   UNL     1       3.011   5.909  20.331  0.00  0.00    +0.000 N 
ATOM     17  H   UNL     1       3.318   6.314  21.221  0.00  0.00    +0.000 HD
BRANCH  14  18
ATOM     18  C   UNL     1       1.804   8.058  19.937  0.00  0.00    +0.000 C 
BRANCH  18  19
ATOM     19  C   UNL     1       1.262   7.945  21.348  0.00  0.00    +0.000 C 
BRANCH  19  20
ATOM     20  O   UNL     1       1.201   9.225  21.998  0.00  0.00    +0.000 OA
BRANCH  20  21
ATOM     21  C   UNL     1      -0.078   9.617  22.514  0.00  0.00    +0.000 C 
BRANCH  21  23
ATOM     22  C   UNL     1      -0.781  11.199  20.710  0.00  0.00    +0.000 C 
ATOM     23  C   UNL     1      -0.459  11.062  22.195  0.00  0.00    +0.000 C 
ATOM     24  C   UNL     1      -1.628  11.502  23.074  0.00  0.00    +0.000 C 
ENDBRANCH  21  23
ENDBRANCH  20  21
ENDBRANCH  19  20
ENDBRANCH  18  19
ENDBRANCH  14  18
ENDBRANCH   1  16
TORSDOF 7
ENDMDL
MODEL 7
REMARK VINA RESULT:      -6.9      1.875      3.044
REMARK  Name = 
REMARK  10 active torsions:
REMARK  status: ('A' for Active; 'I' for Inactive)
REMARK    1  A    between atoms: C_1  and  C_2
REMARK    2  A    between atoms: C_2  and  C_3
REMARK    3  A    between atoms: C_2  and  C_4
REMARK    4  A    between atoms: C_4  and  O_5
REMARK    5  A    between atoms: O_5  and  C_6
REMARK    6  A    between atoms: C_6  and  C_7
REMARK    7  A    between atoms: C_7  and  C_8
REMARK    8  A    between atoms: N_10  and  C_11
REMARK    9  A    between atoms: C_12  and  C_13
REMARK   10  A    between atoms: N_22  and  C_23
REMARK                            x       y       z     vdW  Elec       q    Type
REMARK                         _______ _______ _______ _____ _____    ______ ____
ROOT
ATOM      1  C   UNL     1       3.173   5.075  18.958  0.00  0.00    +0.000 A 
ATOM      2  C   UNL     1       2.376   5.952  19.679  0.00  0.00    +0.000 A 
ATOM      3  N   UNL     1       1.962   5.353  20.848  0.00  0.00    +0.000 NA
ATOM      4  C   UNL     1       2.518   4.164  20.857  0.00  0.00    +0.000 A 
ATOM      5  N   UNL     1       3.282   3.957  19.745  0.00  0.00    +0.000 N 
ATOM      6  C   UNL     1       3.905   2.702  19.396  0.00  0.00    +0.000 C 
ENDROOT
BRANCH   2   7
ATOM      7  C   UNL     1       2.024   7.329  19.340  0.00  0.00    +0.000 A 
ATOM      8  C   UNL     1       1.465   8.162  20.323  0.00  0.00    +0.000 A 
ATOM      9  C   UNL     1       1.143   9.493  20.038  0.00  0.00    +0.000 A 
ATOM     10  C   UNL     1       1.382  10.000  18.767  0.00  0.00    +0.000 A 
ATOM     11  F   UNL     1       1.072  11.269  18.486  0.00  0.00    +0.000 F 
ATOM     12  C   UNL     1       1.953   9.202  17.782  0.00  0.00    +0.000 A 
ATOM     13  C   UNL     1       2.291   7.877  18.077  0.00  0.00    +0.000 A 
ENDBRANCH   2   7
BRANCH   1  16
ATOM     14  C   UNL     1       5.051   5.529  17.423  0.00  0.00    +0.000 C 
ATOM     15  O   UNL     1       5.830   5.669  18.352  0.00  0.00    +0.000 OA
ATOM     16  N   UNL     1       3.666   5.274  17.684  0.00  0.00    +0.000 N 
ATOM     17  H   UNL     1       2.989   5.378  16.921  0.00  0.00    +0.000 HD
BRANCH  14  18
ATOM     18  C   UNL     1       5.432   5.755  15.987  0.00  0.00    +0.000 C 
BRANCH  18  19
ATOM     19  C   UNL     1       6.825   5.224  15.707  0.00  0.00    +0.000 C 
BRANCH  19  20
ATOM     20  O   UNL     1       6.800   4.137  14.768  0.00  0.00    +0.000 OA
BRANCH  20  21
ATOM     21  C   UNL     1       5.649   4.057  13.917  0.00  0.00    +0.000 C 
BRANCH  21  23
ATOM     22  C   UNL     1       4.647   3.375  11.730  0.00  0.00    +0.000 C 
ATOM     23  C   UNL     1       5.912   3.359  12.583  0.00  0.00    +0.000 C 
ATOM     24  C   UNL     1       7.088   4.020  11.868  0.00  0.00    +0.000 C 
ENDBRANCH  21  23
ENDBRANCH  20  21
ENDBRANCH  19  20
ENDBRANCH  18  19
ENDBRANCH  14  18
ENDBRANCH   1  16
TORSDOF 7
ENDMDL
MODEL 8
REMARK VINA RESULT:      -6.9      2.725      5.439
REMARK  Name = 
REMARK  10 active torsions:
REMARK  status: ('A' for Active; 'I' for Inactive)
REMARK    1  A    between atoms: C_1  and  C_2
REMARK    2  A    between atoms: C_2  and  C_3
REMARK    3  A    between atoms: C_2  and  C_4
REMARK    4  A    between atoms: C_4  and  O_5
REMARK    5  A    between atoms: O_5  and  C_6
REMARK    6  A    between atoms: C_6  and  C_7
REMARK    7  A    between atoms: C_7  and  C_8
REMARK    8  A    between atoms: N_10  and  C_11
REMARK    9  A    between atoms: C_12  and  C_13
REMARK   10  A    between atoms: N_22  and  C_23
REMARK                            x       y       z     vdW  Elec       q    Type
REMARK                         _______ _______ _______ _____ _____    ______ ____
ROOT
ATOM      1  C   UNL     1       2.577   3.999  18.474  0.00  0.00    +0.000 A 
ATOM      2  C   UNL     1       3.894   3.834  18.072  0.00  0.00    +0.000 A 
ATOM      3  N   UNL     1       4.144   2.502  17.824  0.00  0.00    +0.000 NA
ATOM      4  C   UNL     1       3.006   1.880  18.033  0.00  0.00    +0.000 A 
ATOM      5  N   UNL     1       2.019   2.748  18.405  0.00  0.00    +0.000 N 
ATOM      6  C   UNL     1       0.700   2.355  18.839  0.00  0.00    +0.000 C 
ENDROOT
BRANCH   2   7
ATOM      7  C   UNL     1       4.907   4.868  17.872  0.00  0.00    +0.000 A 
ATOM      8  C   UNL     1       6.031   4.907  18.713  0.00  0.00    +0.000 A 
ATOM      9  C   UNL     1       7.031   5.868  18.529  0.00  0.00    +0.000 A 
ATOM     10  C   UNL     1       6.914   6.793  17.500  0.00  0.00    +0.000 A 
ATOM     11  F   UNL     1       7.864   7.716  17.323  0.00  0.00    +0.000 F 
ATOM     12  C   UNL     1       5.822   6.762  16.641  0.00  0.00    +0.000 A 
ATOM     13  C   UNL     1       4.833   5.789  16.816  0.00  0.00    +0.000 A 
ENDBRANCH   2   7
BRANCH   1  16
ATOM     14  C   UNL     1       1.989   5.539  20.310  0.00  0.00    +0.000 C 
ATOM     15  O   UNL     1       2.423   4.768  21.151  0.00  0.00    +0.000 OA
ATOM     16  N   UNL     1       1.998   5.168  18.927  0.00  0.00    +0.000 N 
ATOM     17  H   UNL     1       1.440   5.713  18.263  0.00  0.00    +0.000 HD
BRANCH  14  18
ATOM     18  C   UNL     1       1.295   6.827  20.654  0.00  0.00    +0.000 C 
BRANCH  18  19
ATOM     19  C   UNL     1       2.032   8.014  20.066  0.00  0.00    +0.000 C 
BRANCH  19  20
ATOM     20  O   UNL     1       2.086   7.947  18.632  0.00  0.00    +0.000 OA
BRANCH  20  21
ATOM     21  C   UNL     1       1.737   9.145  17.926  0.00  0.00    +0.000 C 
BRANCH  21  23
ATOM     22  C   UNL     1       1.627  11.533  18.660  0.00  0.00    +0.000 C 
ATOM     23  C   UNL     1       0.969  10.161  18.770  0.00  0.00    +0.000 C 
ATOM     24  C   UNL     1      -0.497  10.198  18.341  0.00  0.00    +0.000 C 
ENDBRANCH  21  23
ENDBRANCH  20  21
ENDBRANCH  19  20
ENDBRANCH  18  19
ENDBRANCH  14  18
ENDBRANCH   1  16
TORSDOF 7
ENDMDL
MODEL 9
REMARK VINA RESULT:      -6.9      0.649      1.040
REMARK  Name = 
REMARK  10 active torsions:
REMARK  status: ('A' for Active; 'I' for Inactive)
REMARK    1  A    between atoms: C_1  and  C_2
REMARK    2  A    between atoms: C_2  and  C_3
REMARK    3  A    between atoms: C_2  and  C_4
REMARK    4  A    between atoms: C_4  and  O_5
REMARK    5  A    between atoms: O_5  and  C_6
REMARK    6  A    between atoms: C_6  and  C_7
REMARK    7  A    between atoms: C_7  and  C_8
REMARK    8  A    between atoms: N_10  and  C_11
REMARK    9  A    between atoms: C_12  and  C_13
REMARK   10  A    between atoms: N_22  and  C_23
REMARK                            x       y       z     vdW  Elec       q    Type
REMARK                         _______ _______ _______ _____ _____    ______ ____
ROOT
ATOM      1  C   UNL     1       3.482   4.260  19.602  0.00  0.00    +0.000 A 
ATOM      2  C   UNL     1       2.494   5.102  20.090  0.00  0.00    +0.000 A 
ATOM      3  N   UNL     1       1.833   4.491  21.133  0.00  0.00    +0.000 NA
ATOM      4  C   UNL     1       2.424   3.330  21.300  0.00  0.00    +0.000 A 
ATOM      5  N   UNL     1       3.446   3.153  20.412  0.00  0.00    +0.000 N 
ATOM      6  C   UNL     1       4.192   1.928  20.250  0.00  0.00    +0.000 C 
ENDROOT
BRANCH   2   7
ATOM      7  C   UNL     1       2.173   6.458  19.651  0.00  0.00    +0.000 A 
ATOM      8  C   UNL     1       1.660   7.381  20.575  0.00  0.00    +0.000 A 
ATOM      9  C   UNL     1       1.370   8.695  20.191  0.00  0.00    +0.000 A 
ATOM     10  C   UNL     1       1.594   9.093  18.880  0.00  0.00    +0.000 A 
ATOM     11  F   UNL     1       1.314  10.345  18.506  0.00  0.00    +0.000 F 
ATOM     12  C   UNL     1       2.121   8.203  17.951  0.00  0.00    +0.000 A 
ATOM     13  C   UNL     1       2.428   6.897  18.343  0.00  0.00    +0.000 A 
ENDBRANCH   2   7
BRANCH   1  16
ATOM     14  C   UNL     1       3.898   3.997  17.184  0.00  0.00    +0.000 C 
ATOM     15  O   UNL     1       2.909   3.296  17.049  0.00  0.00    +0.000 OA
ATOM     16  N   UNL     1       4.264   4.474  18.484  0.00  0.00    +0.000 N 
ATOM     17  H   UNL     1       5.199   4.868  18.625  0.00  0.00    +0.000 HD
BRANCH  14  18
ATOM     18  C   UNL     1       4.865   4.282  16.069  0.00  0.00    +0.000 C 
BRANCH  18  19
ATOM     19  C   UNL     1       5.153   5.768  15.969  0.00  0.00    +0.000 C 
BRANCH  19  20
ATOM     20  O   UNL     1       6.564   6.038  15.996  0.00  0.00    +0.000 OA
BRANCH  20  21
ATOM     21  C   UNL     1       7.334   5.305  16.958  0.00  0.00    +0.000 C 
BRANCH  21  23
ATOM     22  C   UNL     1       7.680   7.643  17.774  0.00  0.00    +0.000 C 
ATOM     23  C   UNL     1       7.897   6.165  18.088  0.00  0.00    +0.000 C 
ATOM     24  C   UNL     1       7.261   5.767  19.418  0.00  0.00    +0.000 C 
ENDBRANCH  21  23
ENDBRANCH  20  21
ENDBRANCH  19  20
ENDBRANCH  18  19
ENDBRANCH  14  18
ENDBRANCH   1  16
TORSDOF 7
ENDMDL
