MODEL 1
REMARK VINA RESULT:      -8.2      0.000      0.000
REMARK  Name = 
REMARK  5 active torsions:
REMARK  status: ('A' for Active; 'I' for Inactive)
REMARK    1  A    between atoms: C_1  and  C_2
REMARK    2  A    between atoms: C_2  and  O_3
REMARK    3  A    between atoms: O_3  and  C_4
REMARK    4  A    between atoms: C_10  and  S_11
REMARK    5  A    between atoms: S_11  and  C_14
REMARK                            x       y       z     vdW  Elec       q    Type
REMARK                         _______ _______ _______ _____ _____    ______ ____
ROOT
ATOM      1  C   UNL     1       1.046   8.526  20.190  0.00  0.00    +0.000 A 
ATOM      2  C   UNL     1       1.130   9.654  19.362  0.00  0.00    +0.000 A 
ATOM      3  C   UNL     1       1.894   9.635  18.193  0.00  0.00    +0.000 A 
ATOM      4  C   UNL     1       2.568   8.478  17.815  0.00  0.00    +0.000 A 
ATOM      5  C   UNL     1       2.498   7.343  18.619  0.00  0.00    +0.000 A 
ATOM      6  C   UNL     1       3.167   6.114  18.227  0.00  0.00    +0.000 A 
ATOM      7  C   UNL     1       3.170   5.059  19.054  0.00  0.00    +0.000 A 
ATOM      8  C   UNL     1       2.563   5.124  20.386  0.00  0.00    +0.000 A 
ATOM      9  O   UNL     1       2.712   4.241  21.221  0.00  0.00    +0.000 OA
ATOM     10  O   UNL     1       1.778   6.248  20.657  0.00  0.00    +0.000 OA
ATOM     11  C   UNL     1       1.763   7.379  19.809  0.00  0.00    +0.000 A 
ENDROOT
BRANCH   7  12
ATOM     12  S   UNL     1       4.034   3.651  18.549  0.00  0.00    +0.000 S 
ATOM     13  O   UNL     1       4.857   3.161  19.648  0.00  0.00    +0.000 OA
ATOM     14  O   UNL     1       3.083   2.734  17.943  0.00  0.00    +0.000 OA
BRANCH  12  15
ATOM     15  C   UNL     1       5.176   4.131  17.295  0.00  0.00    +0.000 A 
ATOM     16  C   UNL     1       4.938   3.797  15.957  0.00  0.00    +0.000 A 
ATOM     17  C   UNL     1       5.860   4.177  14.980  0.00  0.00    +0.000 A 
ATOM     18  C   UNL     1       7.014   4.876  15.341  0.00  0.00    +0.000 A 
ATOM     19  C   UNL     1       7.251   5.193  16.680  0.00  0.00    +0.000 A 
ATOM     20  C   UNL     1       6.329   4.817  17.653  0.00  0.00    +0.000 A 
ATOM     21  F   UNL     1       6.566   5.143  18.931  0.00  0.00    +0.000 F 
ENDBRANCH  12  15
ENDBRANCH   7  12
BRANCH   1  22
ATOM     22  O   UNL     1       0.304   8.471  21.346  0.00  0.00    +0.000 OA
BRANCH  22  24
ATOM     23  C   UNL     1      -0.473   9.901  23.147  0.00  0.00    +0.000 C 
ATOM     24  C   UNL     1       0.725   9.353  22.394  0.00  0.00    +0.000 C 
ENDBRANCH  22  24
ENDBRANCH   1  22
TORSDOF 4
ENDMDL
MODEL 2
REMARK VINA RESULT:      -7.8      0.972      1.368
REMARK  Name = 
REMARK  5 active torsions:
REMARK  status: ('A' for Active; 'I' for Inactive)
REMARK    1  A    between atoms: C_1  and  C_2
REMARK    2  A    between atoms: C_2  and  O_3
REMARK    3  A    between atoms: O_3  and  C_4
REMARK    4  A    between atoms: C_10  and  S_11
REMARK    5  A    between atoms: S_11  and  C_14
REMARK                            x       y       z     vdW  Elec       q    Type
REMARK                         _______ _______ _______ _____ _____    ______ ____
ROOT
ATOM      1  C   UNL     1       0.909   8.546  20.244  0.00  0.00    +0.000 A 
ATOM      2  C   UNL     1       1.036   9.654  19.396  0.00  0.00    +0.000 A 
ATOM      3  C   UNL     1       1.878   9.618  18.283  0.00  0.00    +0.000 A 
ATOM      4  C   UNL     1       2.591   8.462  17.981  0.00  0.00    +0.000 A 
ATOM      5  C   UNL     1       2.481   7.346  18.808  0.00  0.00    +0.000 A 
ATOM      6  C   UNL     1       3.190   6.117  18.493  0.00  0.00    +0.000 A 
ATOM      7  C   UNL     1       3.150   5.083  19.345  0.00  0.00    +0.000 A 
ATOM      8  C   UNL     1       2.452   5.172  20.630  0.00  0.00    +0.000 A 
ATOM      9  O   UNL     1       2.554   4.312  21.496  0.00  0.00    +0.000 OA
ATOM     10  O   UNL     1       1.636   6.291  20.818  0.00  0.00    +0.000 OA
ATOM     11  C   UNL     1       1.665   7.401  19.942  0.00  0.00    +0.000 A 
ENDROOT
BRANCH   7  12
ATOM     12  S   UNL     1       4.064   3.675  18.936  0.00  0.00    +0.000 S 
ATOM     13  O   UNL     1       4.933   3.315  20.050  0.00  0.00    +0.000 OA
ATOM     14  O   UNL     1       3.142   2.671  18.433  0.00  0.00    +0.000 OA
BRANCH  12  15
ATOM     15  C   UNL     1       5.155   4.097  17.617  0.00  0.00    +0.000 A 
ATOM     16  C   UNL     1       6.479   4.463  17.885  0.00  0.00    +0.000 A 
ATOM     17  C   UNL     1       7.324   4.803  16.828  0.00  0.00    +0.000 A 
ATOM     18  C   UNL     1       6.845   4.787  15.516  0.00  0.00    +0.000 A 
ATOM     19  C   UNL     1       5.519   4.436  15.258  0.00  0.00    +0.000 A 
ATOM     20  C   UNL     1       4.678   4.092  16.313  0.00  0.00    +0.000 A 
ATOM     21  F   UNL     1       3.412   3.743  16.046  0.00  0.00    +0.000 F 
ENDBRANCH  12  15
ENDBRANCH   7  12
BRANCH   1  22
ATOM     22  O   UNL     1       0.090   8.509  21.348  0.00  0.00    +0.000 OA
BRANCH  22  24
ATOM     23  C   UNL     1      -0.632  10.197  22.935  0.00  0.00    +0.000 C 
ATOM     24  C   UNL     1       0.507   9.317  22.455  0.00  0.00    +0.000 C 
ENDBRANCH  22  24
ENDBRANCH   1  22
TORSDOF 4
ENDMDL
MODEL 3
REMARK VINA RESULT:      -7.6      2.737      4.330
REMARK  Name = 
REMARK  5 active torsions:
REMARK  status: ('A' for Active; 'I' for Inactive)
REMARK    1  A    between atoms: C_1  and  C_2
REMARK    2  A    between atoms: C_2  and  O_3
REMARK    3  A    between atoms: O_3  and  C_4
REMARK    4  A    between atoms: C_10  and  S_11
REMARK    5  A    between atoms: S_11  and  C_14
REMARK                            x       y       z     vdW  Elec       q    Type
REMARK                         _______ _______ _______ _____ _____    ______ ____
ROOT
ATOM      1  C   UNL     1       2.344   4.941  19.878  0.00  0.00    +0.000 A 
ATOM      2  C   UNL     1       2.177   3.806  20.682  0.00  0.00    +0.000 A 
ATOM      3  C   UNL     1       3.104   2.762  20.659  0.00  0.00    +0.000 A 
ATOM      4  C   UNL     1       4.231   2.844  19.848  0.00  0.00    +0.000 A 
ATOM      5  C   UNL     1       4.422   3.963  19.041  0.00  0.00    +0.000 A 
ATOM      6  C   UNL     1       5.610   4.086  18.212  0.00  0.00    +0.000 A 
ATOM      7  C   UNL     1       5.736   5.122  17.371  0.00  0.00    +0.000 A 
ATOM      8  C   UNL     1       4.675   6.119  17.213  0.00  0.00    +0.000 A 
ATOM      9  O   UNL     1       4.690   6.964  16.327  0.00  0.00    +0.000 OA
ATOM     10  O   UNL     1       3.636   6.074  18.149  0.00  0.00    +0.000 OA
ATOM     11  C   UNL     1       3.472   4.989  19.040  0.00  0.00    +0.000 A 
ENDROOT
BRANCH   7  12
ATOM     12  S   UNL     1       7.146   5.173  16.373  0.00  0.00    +0.000 S 
ATOM     13  O   UNL     1       7.577   6.556  16.206  0.00  0.00    +0.000 OA
ATOM     14  O   UNL     1       8.104   4.215  16.899  0.00  0.00    +0.000 OA
BRANCH  12  15
ATOM     15  C   UNL     1       6.691   4.633  14.758  0.00  0.00    +0.000 A 
ATOM     16  C   UNL     1       5.519   3.893  14.564  0.00  0.00    +0.000 A 
ATOM     17  C   UNL     1       5.182   3.466  13.278  0.00  0.00    +0.000 A 
ATOM     18  C   UNL     1       6.017   3.767  12.200  0.00  0.00    +0.000 A 
ATOM     19  C   UNL     1       7.192   4.492  12.404  0.00  0.00    +0.000 A 
ATOM     20  C   UNL     1       7.525   4.921  13.686  0.00  0.00    +0.000 A 
ATOM     21  F   UNL     1       8.649   5.630  13.860  0.00  0.00    +0.000 F 
ENDBRANCH  12  15
ENDBRANCH   7  12
BRANCH   1  22
ATOM     22  O   UNL     1       1.480   6.010  19.861  0.00  0.00    +0.000 OA
BRANCH  22  24
ATOM     23  C   UNL     1       1.442   8.300  20.665  0.00  0.00    +0.000 C 
ATOM     24  C   UNL     1       1.488   6.829  21.037  0.00  0.00    +0.000 C 
ENDBRANCH  22  24
ENDBRANCH   1  22
TORSDOF 4
ENDMDL
MODEL 4
REMARK VINA RESULT:      -7.5      2.509      3.814
REMARK  Name = 
REMARK  5 active torsions:
REMARK  status: ('A' for Active; 'I' for Inactive)
REMARK    1  A    between atoms: C_1  and  C_2
REMARK    2  A    between atoms: C_2  and  O_3
REMARK    3  A    between atoms: O_3  and  C_4
REMARK    4  A    between atoms: C_10  and  S_11
REMARK    5  A    between atoms: S_11  and  C_14
REMARK                            x       y       z     vdW  Elec       q    Type
REMARK                         _______ _______ _______ _____ _____    ______ ____
ROOT
ATOM      1  C   UNL     1       2.354   6.343  19.711  0.00  0.00    +0.000 A 
ATOM      2  C   UNL     1       1.583   7.481  19.438  0.00  0.00    +0.000 A 
ATOM      3  C   UNL     1       1.938   8.364  18.416  0.00  0.00    +0.000 A 
ATOM      4  C   UNL     1       3.058   8.112  17.629  0.00  0.00    +0.000 A 
ATOM      5  C   UNL     1       3.839   6.986  17.879  0.00  0.00    +0.000 A 
ATOM      6  C   UNL     1       4.993   6.686  17.049  0.00  0.00    +0.000 A 
ATOM      7  C   UNL     1       5.790   5.652  17.356  0.00  0.00    +0.000 A 
ATOM      8  C   UNL     1       5.566   4.839  18.554  0.00  0.00    +0.000 A 
ATOM      9  O   UNL     1       6.378   4.013  18.951  0.00  0.00    +0.000 OA
ATOM     10  O   UNL     1       4.355   5.038  19.224  0.00  0.00    +0.000 OA
ATOM     11  C   UNL     1       3.501   6.125  18.928  0.00  0.00    +0.000 A 
ENDROOT
BRANCH   7  12
ATOM     12  S   UNL     1       7.176   5.388  16.361  0.00  0.00    +0.000 S 
ATOM     13  O   UNL     1       7.800   6.667  16.040  0.00  0.00    +0.000 OA
ATOM     14  O   UNL     1       7.994   4.366  16.990  0.00  0.00    +0.000 OA
BRANCH  12  15
ATOM     15  C   UNL     1       6.624   4.744  14.815  0.00  0.00    +0.000 A 
ATOM     16  C   UNL     1       5.411   4.051  14.731  0.00  0.00    +0.000 A 
ATOM     17  C   UNL     1       4.996   3.540  13.501  0.00  0.00    +0.000 A 
ATOM     18  C   UNL     1       5.793   3.711  12.367  0.00  0.00    +0.000 A 
ATOM     19  C   UNL     1       7.009   4.391  12.462  0.00  0.00    +0.000 A 
ATOM     20  C   UNL     1       7.420   4.904  13.689  0.00  0.00    +0.000 A 
ATOM     21  F   UNL     1       8.583   5.567  13.758  0.00  0.00    +0.000 F 
ENDBRANCH  12  15
ENDBRANCH   7  12
BRANCH   1  22
ATOM     22  O   UNL     1       2.056   5.426  20.691  0.00  0.00    +0.000 OA
BRANCH  22  24
ATOM     23  C   UNL     1       1.636   3.058  20.360  0.00  0.00    +0.000 C 
ATOM     24  C   UNL     1       1.054   4.460  20.349  0.00  0.00    +0.000 C 
ENDBRANCH  22  24
ENDBRANCH   1  22
TORSDOF 4
ENDMDL
MODEL 5
REMARK VINA RESULT:      -7.4      2.913      4.589
REMARK  Name = 
REMARK  5 active torsions:
REMARK  status: ('A' for Active; 'I' for Inactive)
REMARK    1  A    between atoms: C_1  and  C_2
REMARK    2  A    between atoms: C_2  and  O_3
REMARK    3  A    between atoms: O_3  and  C_4
REMARK    4  A    between atoms: C_10  and  S_11
REMARK    5  A    between atoms: S_11  and  C_14
REMARK                            x       y       z     vdW  Elec       q    Type
REMARK                         _______ _______ _______ _____ _____    ______ ____
ROOT
ATOM      1  C   UNL     1       1.850   4.175  19.052  0.00  0.00    +0.000 A 
ATOM      2  C   UNL     1       1.421   2.855  19.243  0.00  0.00    +0.000 A 
ATOM      3  C   UNL     1       2.167   1.777  18.762  0.00  0.00    +0.000 A 
ATOM      4  C   UNL     1       3.372   1.998  18.102  0.00  0.00    +0.000 A 
ATOM      5  C   UNL     1       3.821   3.301  17.902  0.00  0.00    +0.000 A 
ATOM      6  C   UNL     1       5.093   3.554  17.244  0.00  0.00    +0.000 A 
ATOM      7  C   UNL     1       5.470   4.812  16.974  0.00  0.00    +0.000 A 
ATOM      8  C   UNL     1       4.602   5.955  17.271  0.00  0.00    +0.000 A 
ATOM      9  O   UNL     1       4.844   7.087  16.871  0.00  0.00    +0.000 OA
ATOM     10  O   UNL     1       3.478   5.694  18.060  0.00  0.00    +0.000 OA
ATOM     11  C   UNL     1       3.052   4.378  18.352  0.00  0.00    +0.000 A 
ENDROOT
BRANCH   7  12
ATOM     12  S   UNL     1       6.965   5.036  16.140  0.00  0.00    +0.000 S 
ATOM     13  O   UNL     1       7.299   6.455  16.105  0.00  0.00    +0.000 OA
ATOM     14  O   UNL     1       7.938   4.117  16.705  0.00  0.00    +0.000 OA
BRANCH  12  15
ATOM     15  C   UNL     1       6.724   4.577  14.454  0.00  0.00    +0.000 A 
ATOM     16  C   UNL     1       5.640   3.771  14.090  0.00  0.00    +0.000 A 
ATOM     17  C   UNL     1       5.472   3.411  12.752  0.00  0.00    +0.000 A 
ATOM     18  C   UNL     1       6.388   3.844  11.790  0.00  0.00    +0.000 A 
ATOM     19  C   UNL     1       7.475   4.635  12.164  0.00  0.00    +0.000 A 
ATOM     20  C   UNL     1       7.639   4.998  13.499  0.00  0.00    +0.000 A 
ATOM     21  F   UNL     1       8.680   5.770  13.837  0.00  0.00    +0.000 F 
ENDBRANCH  12  15
ENDBRANCH   7  12
BRANCH   1  22
ATOM     22  O   UNL     1       1.173   5.281  19.510  0.00  0.00    +0.000 OA
BRANCH  22  24
ATOM     23  C   UNL     1       1.651   7.285  20.794  0.00  0.00    +0.000 C 
ATOM     24  C   UNL     1       1.584   5.768  20.793  0.00  0.00    +0.000 C 
ENDBRANCH  22  24
ENDBRANCH   1  22
TORSDOF 4
ENDMDL
MODEL 6
REMARK VINA RESULT:      -7.3      3.552      7.475
REMARK  Name = 
REMARK  5 active torsions:
REMARK  status: ('A' for Active; 'I' for Inactive)
REMARK    1  A    between atoms: C_1  and  C_2
REMARK    2  A    between atoms: C_2  and  O_3
REMARK    3  A    between atoms: O_3  and  C_4
REMARK    4  A    between atoms: C_10  and  S_11
REMARK    5  A    between atoms: S_11  and  C_14
REMARK                            x       y       z     vdW  Elec       q    Type
REMARK                         _______ _______ _______ _____ _____    ______ ____
ROOT
ATOM      1  C   UNL     1       2.649   5.722  19.881  0.00  0.00    +0.000 A 
ATOM      2  C   UNL     1       3.454   5.252  18.835  0.00  0.00    +0.000 A 
ATOM      3  C   UNL     1       3.741   6.055  17.729  0.00  0.00    +0.000 A 
ATOM      4  C   UNL     1       3.247   7.353  17.659  0.00  0.00    +0.000 A 
ATOM      5  C   UNL     1       2.447   7.845  18.687  0.00  0.00    +0.000 A 
ATOM      6  C   UNL     1       1.948   9.210  18.650  0.00  0.00    +0.000 A 
ATOM      7  C   UNL     1       1.103   9.641  19.598  0.00  0.00    +0.000 A 
ATOM      8  C   UNL     1       0.610   8.750  20.652  0.00  0.00    +0.000 A 
ATOM      9  O   UNL     1      -0.294   9.067  21.413  0.00  0.00    +0.000 OA
ATOM     10  O   UNL     1       1.244   7.508  20.763  0.00  0.00    +0.000 OA
ATOM     11  C   UNL     1       2.132   7.024  19.774  0.00  0.00    +0.000 A 
ENDROOT
BRANCH   7  12
ATOM     12  S   UNL     1       0.505  11.255  19.461  0.00  0.00    +0.000 S 
ATOM     13  O   UNL     1       0.427  11.863  20.784  0.00  0.00    +0.000 OA
ATOM     14  O   UNL     1       1.280  11.936  18.438  0.00  0.00    +0.000 OA
BRANCH  12  15
ATOM     15  C   UNL     1      -1.162  11.173  18.892  0.00  0.00    +0.000 A 
ATOM     16  C   UNL     1      -2.155  11.949  19.502  0.00  0.00    +0.000 A 
ATOM     17  C   UNL     1      -3.471  11.863  19.044  0.00  0.00    +0.000 A 
ATOM     18  C   UNL     1      -3.791  10.999  17.993  0.00  0.00    +0.000 A 
ATOM     19  C   UNL     1      -2.798  10.218  17.401  0.00  0.00    +0.000 A 
ATOM     20  C   UNL     1      -1.485  10.308  17.856  0.00  0.00    +0.000 A 
ATOM     21  F   UNL     1      -0.542   9.562  17.265  0.00  0.00    +0.000 F 
ENDBRANCH  12  15
ENDBRANCH   7  12
BRANCH   1  22
ATOM     22  O   UNL     1       2.339   4.992  21.004  0.00  0.00    +0.000 OA
BRANCH  22  24
ATOM     23  C   UNL     1       1.690   2.746  21.656  0.00  0.00    +0.000 C 
ATOM     24  C   UNL     1       1.353   3.968  20.822  0.00  0.00    +0.000 C 
ENDBRANCH  22  24
ENDBRANCH   1  22
TORSDOF 4
ENDMDL
MODEL 7
REMARK VINA RESULT:      -7.2      3.147      4.625
REMARK  Name = 
REMARK  5 active torsions:
REMARK  status: ('A' for Active; 'I' for Inactive)
REMARK    1  A    between atoms: C_1  and  C_2
REMARK    2  A    between atoms: C_2  and  O_3
REMARK    3  A    between atoms: O_3  and  C_4
REMARK    4  A    between atoms: C_10  and  S_11
REMARK    5  A    between atoms: S_11  and  C_14
REMARK                            x       y       z     vdW  Elec       q    Type
REMARK                         _______ _______ _______ _____ _____    ______ ____
ROOT
ATOM      1  C   UNL     1       0.263  10.717  20.158  0.00  0.00    +0.000 A 
ATOM      2  C   UNL     1      -0.446  10.717  21.367  0.00  0.00    +0.000 A 
ATOM      3  C   UNL     1      -0.412   9.614  22.222  0.00  0.00    +0.000 A 
ATOM      4  C   UNL     1       0.352   8.498  21.897  0.00  0.00    +0.000 A 
ATOM      5  C   UNL     1       1.067   8.474  20.702  0.00  0.00    +0.000 A 
ATOM      6  C   UNL     1       1.898   7.333  20.358  0.00  0.00    +0.000 A 
ATOM      7  C   UNL     1       2.507   7.281  19.164  0.00  0.00    +0.000 A 
ATOM      8  C   UNL     1       2.310   8.326  18.156  0.00  0.00    +0.000 A 
ATOM      9  O   UNL     1       2.706   8.212  17.002  0.00  0.00    +0.000 OA
ATOM     10  O   UNL     1       1.659   9.488  18.582  0.00  0.00    +0.000 OA
ATOM     11  C   UNL     1       1.000   9.566  19.831  0.00  0.00    +0.000 A 
ENDROOT
BRANCH   7  12
ATOM     12  S   UNL     1       3.431   5.869  18.798  0.00  0.00    +0.000 S 
ATOM     13  O   UNL     1       3.529   5.708  17.352  0.00  0.00    +0.000 OA
ATOM     14  O   UNL     1       4.664   5.928  19.566  0.00  0.00    +0.000 OA
BRANCH  12  15
ATOM     15  C   UNL     1       2.527   4.464  19.359  0.00  0.00    +0.000 A 
ATOM     16  C   UNL     1       2.866   3.841  20.566  0.00  0.00    +0.000 A 
ATOM     17  C   UNL     1       2.144   2.723  20.988  0.00  0.00    +0.000 A 
ATOM     18  C   UNL     1       1.100   2.227  20.203  0.00  0.00    +0.000 A 
ATOM     19  C   UNL     1       0.778   2.845  18.994  0.00  0.00    +0.000 A 
ATOM     20  C   UNL     1       1.496   3.963  18.576  0.00  0.00    +0.000 A 
ATOM     21  F   UNL     1       1.162   4.552  17.420  0.00  0.00    +0.000 F 
ENDBRANCH  12  15
ENDBRANCH   7  12
BRANCH   1  22
ATOM     22  O   UNL     1       0.285  11.772  19.276  0.00  0.00    +0.000 OA
BRANCH  22  24
ATOM     23  C   UNL     1      -1.637  11.131  17.939  0.00  0.00    +0.000 C 
ATOM     24  C   UNL     1      -0.994  12.205  18.798  0.00  0.00    +0.000 C 
ENDBRANCH  22  24
ENDBRANCH   1  22
TORSDOF 4
ENDMDL
MODEL 8
REMARK VINA RESULT:      -7.2      3.900      7.597
REMARK  Name = 
REMARK  5 active torsions:
REMARK  status: ('A' for Active; 'I' for Inactive)
REMARK    1  A    between atoms: C_1  and  C_2
REMARK    2  A    between atoms: C_2  and  O_3
REMARK    3  A    between atoms: O_3  and  C_4
REMARK    4  A    between atoms: C_10  and  S_11
REMARK    5  A    between atoms: S_11  and  C_14
REMARK                            x       y       z     vdW  Elec       q    Type
REMARK                         _______ _______ _______ _____ _____    ______ ____
ROOT
ATOM      1  C   UNL     1       2.828   5.778  19.819  0.00  0.00    +0.000 A 
ATOM      2  C   UNL     1       3.620   5.372  18.736  0.00  0.00    +0.000 A 
ATOM      3  C   UNL     1       3.802   6.199  17.625  0.00  0.00    +0.000 A 
ATOM      4  C   UNL     1       3.215   7.459  17.587  0.00  0.00    +0.000 A 
ATOM      5  C   UNL     1       2.425   7.887  18.651  0.00  0.00    +0.000 A 
ATOM      6  C   UNL     1       1.830   9.213  18.647  0.00  0.00    +0.000 A 
ATOM      7  C   UNL     1       0.996   9.577  19.632  0.00  0.00    +0.000 A 
ATOM      8  C   UNL     1       0.613   8.648  20.698  0.00  0.00    +0.000 A 
ATOM      9  O   UNL     1      -0.279   8.896  21.500  0.00  0.00    +0.000 OA
ATOM     10  O   UNL     1       1.338   7.455  20.773  0.00  0.00    +0.000 OA
ATOM     11  C   UNL     1       2.215   7.040  19.744  0.00  0.00    +0.000 A 
ENDROOT
BRANCH   7  12
ATOM     12  S   UNL     1       0.280  11.146  19.533  0.00  0.00    +0.000 S 
ATOM     13  O   UNL     1       0.073  11.675  20.876  0.00  0.00    +0.000 OA
ATOM     14  O   UNL     1       1.058  11.938  18.596  0.00  0.00    +0.000 OA
BRANCH  12  15
ATOM     15  C   UNL     1      -1.337  10.965  18.855  0.00  0.00    +0.000 A 
ATOM     16  C   UNL     1      -1.629   9.898  17.998  0.00  0.00    +0.000 A 
ATOM     17  C   UNL     1      -2.913   9.778  17.463  0.00  0.00    +0.000 A 
ATOM     18  C   UNL     1      -3.891  10.725  17.774  0.00  0.00    +0.000 A 
ATOM     19  C   UNL     1      -3.588  11.795  18.617  0.00  0.00    +0.000 A 
ATOM     20  C   UNL     1      -2.309  11.911  19.153  0.00  0.00    +0.000 A 
ATOM     21  F   UNL     1      -2.040  12.937  19.973  0.00  0.00    +0.000 F 
ENDBRANCH  12  15
ENDBRANCH   7  12
BRANCH   1  22
ATOM     22  O   UNL     1       2.618   5.022  20.948  0.00  0.00    +0.000 OA
BRANCH  22  24
ATOM     23  C   UNL     1       1.084   3.176  20.583  0.00  0.00    +0.000 C 
ATOM     24  C   UNL     1       2.531   3.607  20.736  0.00  0.00    +0.000 C 
ENDBRANCH  22  24
ENDBRANCH   1  22
TORSDOF 4
ENDMDL
MODEL 9
REMARK VINA RESULT:      -7.1      3.679      4.612
REMARK  Name = 
REMARK  5 active torsions:
REMARK  status: ('A' for Active; 'I' for Inactive)
REMARK    1  A    between atoms: C_1  and  C_2
REMARK    2  A    between atoms: C_2  and  O_3
REMARK    3  A    between atoms: O_3  and  C_4
REMARK    4  A    between atoms: C_10  and  S_11
REMARK    5  A    between atoms: S_11  and  C_14
REMARK                            x       y       z     vdW  Elec       q    Type
REMARK                         _______ _______ _______ _____ _____    ______ ____
ROOT
ATOM      1  C   UNL     1       2.452   3.996  19.809  0.00  0.00    +0.000 A 
ATOM      2  C   UNL     1       1.216   3.792  19.180  0.00  0.00    +0.000 A 
ATOM      3  C   UNL     1       1.099   3.838  17.789  0.00  0.00    +0.000 A 
ATOM      4  C   UNL     1       2.221   4.063  16.998  0.00  0.00    +0.000 A 
ATOM      5  C   UNL     1       3.460   4.267  17.600  0.00  0.00    +0.000 A 
ATOM      6  C   UNL     1       4.651   4.471  16.792  0.00  0.00    +0.000 A 
ATOM      7  C   UNL     1       5.821   4.759  17.382  0.00  0.00    +0.000 A 
ATOM      8  C   UNL     1       5.927   4.935  18.832  0.00  0.00    +0.000 A 
ATOM      9  O   UNL     1       6.936   5.373  19.370  0.00  0.00    +0.000 OA
ATOM     10  O   UNL     1       4.814   4.556  19.588  0.00  0.00    +0.000 OA
ATOM     11  C   UNL     1       3.566   4.258  18.994  0.00  0.00    +0.000 A 
ENDROOT
BRANCH   7  12
ATOM     12  S   UNL     1       7.182   5.046  16.358  0.00  0.00    +0.000 S 
ATOM     13  O   UNL     1       7.436   6.480  16.272  0.00  0.00    +0.000 OA
ATOM     14  O   UNL     1       8.266   4.184  16.798  0.00  0.00    +0.000 OA
BRANCH  12  15
ATOM     15  C   UNL     1       6.748   4.555  14.721  0.00  0.00    +0.000 A 
ATOM     16  C   UNL     1       5.613   3.768  14.497  0.00  0.00    +0.000 A 
ATOM     17  C   UNL     1       5.292   3.381  13.195  0.00  0.00    +0.000 A 
ATOM     18  C   UNL     1       6.107   3.769  12.129  0.00  0.00    +0.000 A 
ATOM     19  C   UNL     1       7.246   4.541  12.363  0.00  0.00    +0.000 A 
ATOM     20  C   UNL     1       7.563   4.930  13.662  0.00  0.00    +0.000 A 
ATOM     21  F   UNL     1       8.651   5.685  13.865  0.00  0.00    +0.000 F 
ENDBRANCH  12  15
ENDBRANCH   7  12
BRANCH   1  22
ATOM     22  O   UNL     1       2.641   3.952  21.170  0.00  0.00    +0.000 OA
BRANCH  22  24
ATOM     23  C   UNL     1       1.169   2.306  22.178  0.00  0.00    +0.000 C 
ATOM     24  C   UNL     1       2.587   2.647  21.759  0.00  0.00    +0.000 C 
ENDBRANCH  22  24
ENDBRANCH   1  22
TORSDOF 4
ENDMDL
