MODEL 1
REMARK VINA RESULT:      -9.0      0.000      0.000
REMARK  Name = 
REMARK  9 active torsions:
REMARK  status: ('A' for Active; 'I' for Inactive)
REMARK    1  A    between atoms: C_1  and  O_2
REMARK    2  A    between atoms: O_2  and  C_3
REMARK    3  A    between atoms: C_6  and  C_7
REMARK    4  A    between atoms: N_9  and  N_10
REMARK    5  A    between atoms: C_11  and  C_12
REMARK    6  A    between atoms: C_15  and  O_16
REMARK    7  A    between atoms: O_16  and  C_17
REMARK    8  A    between atoms: C_18  and  C_19
REMARK    9  A    between atoms: C_19  and  N_20
REMARK                            x       y       z     vdW  Elec       q    Type
REMARK                         _______ _______ _______ _____ _____    ______ ____
ROOT
ATOM      1  C   UNL     1       7.160   7.091  17.882  0.00  0.00    +0.000 A 
ATOM      2  C   UNL     1       7.742   6.358  18.908  0.00  0.00    +0.000 A 
ATOM      3  C   UNL     1       7.125   5.189  19.301  0.00  0.00    +0.000 A 
ATOM      4  C   UNL     1       5.924   4.701  18.723  0.00  0.00    +0.000 A 
ATOM      5  C   UNL     1       5.300   5.383  17.639  0.00  0.00    +0.000 A 
ATOM      6  C   UNL     1       5.972   6.611  17.257  0.00  0.00    +0.000 A 
ENDROOT
BRANCH   1   8
ATOM      7  N   UNL     1       8.514   9.000  18.517  0.00  0.00    +0.000 NA
ATOM      8  C   UNL     1       7.857   8.392  17.578  0.00  0.00    +0.000 C 
BRANCH   7  11
ATOM      9  C   UNL     1       9.522  10.985  19.351  0.00  0.00    +0.000 C 
ATOM     10  O   UNL     1       9.432  10.654  20.540  0.00  0.00    +0.000 OA
ATOM     11  N   UNL     1       9.128  10.200  18.275  0.00  0.00    +0.000 N 
ATOM     12  H   UNL     1       9.293  10.481  17.317  0.00  0.00    +0.000 HD
BRANCH   9  16
ATOM     13  C   UNL     1      11.231  14.843  18.368  0.00  0.00    +0.000 A 
ATOM     14  C   UNL     1      10.809  13.981  17.359  0.00  0.00    +0.000 A 
ATOM     15  C   UNL     1      10.236  12.740  17.698  0.00  0.00    +0.000 A 
ATOM     16  C   UNL     1      10.101  12.354  19.042  0.00  0.00    +0.000 A 
ATOM     17  C   UNL     1      10.569  13.205  20.044  0.00  0.00    +0.000 A 
ATOM     18  C   UNL     1      11.114  14.442  19.707  0.00  0.00    +0.000 A 
BRANCH  13  20
ATOM     19  C   UNL     1      11.091  16.704  16.894  0.00  0.00    +0.000 C 
ATOM     20  O   UNL     1      11.785  16.024  17.934  0.00  0.00    +0.000 OA
ENDBRANCH  13  20
ENDBRANCH   9  16
ENDBRANCH   7  11
ENDBRANCH   1   8
BRANCH   4  21
ATOM     21  O   UNL     1       5.584   3.630  19.490  0.00  0.00    +0.000 OA
ATOM     22  C   UNL     1       4.810   2.558  19.043  0.00  0.00    +0.000 C 
ENDBRANCH   4  21
BRANCH   5  23
ATOM     23  C   UNL     1       3.899   5.040  16.911  0.00  0.00    +0.000 C 
BRANCH  23  24
ATOM     24  N   UNL     1       2.543   5.295  17.618  0.00  0.00    +0.000 N 
ATOM     25  C   UNL     1       2.329   6.724  17.900  0.00  0.00    +0.000 C 
ATOM     26  C   UNL     1       2.974   7.131  19.223  0.00  0.00    +0.000 C 
ATOM     27  C   UNL     1       2.196   6.438  20.301  0.00  0.00    +0.000 C 
ATOM     28  C   UNL     1       2.454   4.957  20.110  0.00  0.00    +0.000 A 
ATOM     29  C   UNL     1       2.248   4.211  21.306  0.00  0.00    +0.000 A 
ATOM     30  C   UNL     1       1.349   3.191  21.284  0.00  0.00    +0.000 A 
ATOM     31  C   UNL     1       0.711   2.925  20.065  0.00  0.00    +0.000 A 
ATOM     32  C   UNL     1       1.156   3.535  18.832  0.00  0.00    +0.000 A 
ATOM     33  C   UNL     1       2.181   4.498  18.798  0.00  0.00    +0.000 A 
ENDBRANCH  23  24
ENDBRANCH   5  23
TORSDOF 7
ENDMDL
MODEL 2
REMARK VINA RESULT:      -8.1      5.967      7.760
REMARK  Name = 
REMARK  9 active torsions:
REMARK  status: ('A' for Active; 'I' for Inactive)
REMARK    1  A    between atoms: C_1  and  O_2
REMARK    2  A    between atoms: O_2  and  C_3
REMARK    3  A    between atoms: C_6  and  C_7
REMARK    4  A    between atoms: N_9  and  N_10
REMARK    5  A    between atoms: C_11  and  C_12
REMARK    6  A    between atoms: C_15  and  O_16
REMARK    7  A    between atoms: O_16  and  C_17
REMARK    8  A    between atoms: C_18  and  C_19
REMARK    9  A    between atoms: C_19  and  N_20
REMARK                            x       y       z     vdW  Elec       q    Type
REMARK                         _______ _______ _______ _____ _____    ______ ____
ROOT
ATOM      1  C   UNL     1       3.896   7.085  17.370  0.00  0.00    +0.000 A 
ATOM      2  C   UNL     1       4.421   7.238  16.094  0.00  0.00    +0.000 A 
ATOM      3  C   UNL     1       5.261   6.254  15.615  0.00  0.00    +0.000 A 
ATOM      4  C   UNL     1       5.625   5.101  16.358  0.00  0.00    +0.000 A 
ATOM      5  C   UNL     1       5.088   4.864  17.656  0.00  0.00    +0.000 A 
ATOM      6  C   UNL     1       4.214   5.921  18.130  0.00  0.00    +0.000 A 
ENDROOT
BRANCH   1   8
ATOM      7  N   UNL     1       2.187   8.066  18.783  0.00  0.00    +0.000 NA
ATOM      8  C   UNL     1       3.058   8.247  17.839  0.00  0.00    +0.000 C 
BRANCH   7  11
ATOM      9  C   UNL     1       0.970   9.126  20.527  0.00  0.00    +0.000 C 
ATOM     10  O   UNL     1       1.322   8.323  21.402  0.00  0.00    +0.000 OA
ATOM     11  N   UNL     1       1.390   9.096  19.205  0.00  0.00    +0.000 N 
ATOM     12  H   UNL     1       1.135   9.820  18.545  0.00  0.00    +0.000 HD
BRANCH   9  16
ATOM     13  C   UNL     1      -1.835  12.186  21.768  0.00  0.00    +0.000 A 
ATOM     14  C   UNL     1      -1.205  11.381  22.714  0.00  0.00    +0.000 A 
ATOM     15  C   UNL     1      -0.280  10.406  22.294  0.00  0.00    +0.000 A 
ATOM     16  C   UNL     1       0.002  10.224  20.929  0.00  0.00    +0.000 A 
ATOM     17  C   UNL     1      -0.670  11.004  19.987  0.00  0.00    +0.000 A 
ATOM     18  C   UNL     1      -1.567  11.984  20.407  0.00  0.00    +0.000 A 
BRANCH  13  20
ATOM     19  C   UNL     1      -4.078  12.666  22.398  0.00  0.00    +0.000 C 
ATOM     20  O   UNL     1      -2.728  13.100  22.279  0.00  0.00    +0.000 OA
ENDBRANCH  13  20
ENDBRANCH   9  16
ENDBRANCH   7  11
ENDBRANCH   1   8
BRANCH   4  21
ATOM     21  O   UNL     1       6.567   4.485  15.596  0.00  0.00    +0.000 OA
ATOM     22  C   UNL     1       6.354   4.042  14.289  0.00  0.00    +0.000 C 
ENDBRANCH   4  21
BRANCH   5  23
ATOM     23  C   UNL     1       5.442   3.670  18.686  0.00  0.00    +0.000 C 
BRANCH  23  24
ATOM     24  N   UNL     1       4.412   2.560  19.015  0.00  0.00    +0.000 N 
ATOM     25  C   UNL     1       3.882   1.923  17.798  0.00  0.00    +0.000 C 
ATOM     26  C   UNL     1       2.700   2.706  17.231  0.00  0.00    +0.000 C 
ATOM     27  C   UNL     1       1.584   2.557  18.221  0.00  0.00    +0.000 C 
ATOM     28  C   UNL     1       2.043   3.278  19.473  0.00  0.00    +0.000 A 
ATOM     29  C   UNL     1       0.955   3.690  20.293  0.00  0.00    +0.000 A 
ATOM     30  C   UNL     1       0.917   3.257  21.581  0.00  0.00    +0.000 A 
ATOM     31  C   UNL     1       1.980   2.456  22.021  0.00  0.00    +0.000 A 
ATOM     32  C   UNL     1       3.180   2.297  21.230  0.00  0.00    +0.000 A 
ATOM     33  C   UNL     1       3.309   2.848  19.942  0.00  0.00    +0.000 A 
ENDBRANCH  23  24
ENDBRANCH   5  23
TORSDOF 7
ENDMDL
MODEL 3
REMARK VINA RESULT:      -8.1      1.684      2.903
REMARK  Name = 
REMARK  9 active torsions:
REMARK  status: ('A' for Active; 'I' for Inactive)
REMARK    1  A    between atoms: C_1  and  O_2
REMARK    2  A    between atoms: O_2  and  C_3
REMARK    3  A    between atoms: C_6  and  C_7
REMARK    4  A    between atoms: N_9  and  N_10
REMARK    5  A    between atoms: C_11  and  C_12
REMARK    6  A    between atoms: C_15  and  O_16
REMARK    7  A    between atoms: O_16  and  C_17
REMARK    8  A    between atoms: C_18  and  C_19
REMARK    9  A    between atoms: C_19  and  N_20
REMARK                            x       y       z     vdW  Elec       q    Type
REMARK                         _______ _______ _______ _____ _____    ______ ____
ROOT
ATOM      1  C   UNL     1       7.483   6.700  18.087  0.00  0.00    +0.000 A 
ATOM      2  C   UNL     1       7.641   6.516  16.720  0.00  0.00    +0.000 A 
ATOM      3  C   UNL     1       6.972   5.468  16.125  0.00  0.00    +0.000 A 
ATOM      4  C   UNL     1       6.141   4.561  16.833  0.00  0.00    +0.000 A 
ATOM      5  C   UNL     1       5.904   4.719  18.229  0.00  0.00    +0.000 A 
ATOM      6  C   UNL     1       6.628   5.828  18.823  0.00  0.00    +0.000 A 
ENDROOT
BRANCH   1   8
ATOM      7  N   UNL     1       8.412   8.939  18.019  0.00  0.00    +0.000 NA
ATOM      8  C   UNL     1       8.315   7.817  18.663  0.00  0.00    +0.000 C 
BRANCH   7  11
ATOM      9  C   UNL     1       8.925  11.258  18.095  0.00  0.00    +0.000 C 
ATOM     10  O   UNL     1       7.979  11.597  17.372  0.00  0.00    +0.000 OA
ATOM     11  N   UNL     1       9.188   9.958  18.504  0.00  0.00    +0.000 N 
ATOM     12  H   UNL     1       9.928   9.740  19.158  0.00  0.00    +0.000 HD
BRANCH   9  16
ATOM     13  C   UNL     1      11.551  14.385  19.545  0.00  0.00    +0.000 A 
ATOM     14  C   UNL     1      10.836  13.593  20.440  0.00  0.00    +0.000 A 
ATOM     15  C   UNL     1      10.004  12.567  19.952  0.00  0.00    +0.000 A 
ATOM     16  C   UNL     1       9.873  12.345  18.570  0.00  0.00    +0.000 A 
ATOM     17  C   UNL     1      10.557  13.174  17.680  0.00  0.00    +0.000 A 
ATOM     18  C   UNL     1      11.399  14.173  18.167  0.00  0.00    +0.000 A 
BRANCH  13  20
ATOM     19  C   UNL     1      11.637  16.350  20.882  0.00  0.00    +0.000 C 
ATOM     20  O   UNL     1      12.326  15.365  20.120  0.00  0.00    +0.000 OA
ENDBRANCH  13  20
ENDBRANCH   9  16
ENDBRANCH   7  11
ENDBRANCH   1   8
BRANCH   4  21
ATOM     21  O   UNL     1       5.810   3.612  15.917  0.00  0.00    +0.000 OA
ATOM     22  C   UNL     1       5.997   3.749  14.541  0.00  0.00    +0.000 C 
ENDBRANCH   4  21
BRANCH   5  23
ATOM     23  C   UNL     1       5.071   3.754  19.221  0.00  0.00    +0.000 C 
BRANCH  23  24
ATOM     24  N   UNL     1       3.584   4.035  19.554  0.00  0.00    +0.000 N 
ATOM     25  C   UNL     1       2.684   3.060  18.915  0.00  0.00    +0.000 C 
ATOM     26  C   UNL     1       2.333   3.479  17.490  0.00  0.00    +0.000 C 
ATOM     27  C   UNL     1       1.490   4.712  17.609  0.00  0.00    +0.000 C 
ATOM     28  C   UNL     1       2.399   5.781  18.182  0.00  0.00    +0.000 A 
ATOM     29  C   UNL     1       1.951   7.097  17.876  0.00  0.00    +0.000 A 
ATOM     30  C   UNL     1       1.708   7.952  18.905  0.00  0.00    +0.000 A 
ATOM     31  C   UNL     1       1.952   7.481  20.202  0.00  0.00    +0.000 A 
ATOM     32  C   UNL     1       2.657   6.240  20.432  0.00  0.00    +0.000 A 
ATOM     33  C   UNL     1       3.047   5.391  19.380  0.00  0.00    +0.000 A 
ENDBRANCH  23  24
ENDBRANCH   5  23
TORSDOF 7
ENDMDL
MODEL 4
REMARK VINA RESULT:      -7.9      5.859      9.114
REMARK  Name = 
REMARK  9 active torsions:
REMARK  status: ('A' for Active; 'I' for Inactive)
REMARK    1  A    between atoms: C_1  and  O_2
REMARK    2  A    between atoms: O_2  and  C_3
REMARK    3  A    between atoms: C_6  and  C_7
REMARK    4  A    between atoms: N_9  and  N_10
REMARK    5  A    between atoms: C_11  and  C_12
REMARK    6  A    between atoms: C_15  and  O_16
REMARK    7  A    between atoms: O_16  and  C_17
REMARK    8  A    between atoms: C_18  and  C_19
REMARK    9  A    between atoms: C_19  and  N_20
REMARK                            x       y       z     vdW  Elec       q    Type
REMARK                         _______ _______ _______ _____ _____    ______ ____
ROOT
ATOM      1  C   UNL     1       1.888   8.476  19.334  0.00  0.00    +0.000 A 
ATOM      2  C   UNL     1       1.872   7.461  20.280  0.00  0.00    +0.000 A 
ATOM      3  C   UNL     1       2.498   6.272  19.968  0.00  0.00    +0.000 A 
ATOM      4  C   UNL     1       3.150   6.027  18.732  0.00  0.00    +0.000 A 
ATOM      5  C   UNL     1       3.239   7.042  17.735  0.00  0.00    +0.000 A 
ATOM      6  C   UNL     1       2.564   8.275  18.094  0.00  0.00    +0.000 A 
ENDROOT
BRANCH   1   8
ATOM      7  N   UNL     1       0.658   9.813  20.940  0.00  0.00    +0.000 NA
ATOM      8  C   UNL     1       1.109   9.704  19.728  0.00  0.00    +0.000 C 
BRANCH   7  11
ATOM      9  C   UNL     1      -0.598  10.956  22.602  0.00  0.00    +0.000 C 
ATOM     10  O   UNL     1      -0.382  10.119  23.488  0.00  0.00    +0.000 OA
ATOM     11  N   UNL     1      -0.081  10.903  21.315  0.00  0.00    +0.000 N 
ATOM     12  H   UNL     1      -0.223  11.651  20.648  0.00  0.00    +0.000 HD
BRANCH   9  16
ATOM     13  C   UNL     1      -3.073  14.361  23.631  0.00  0.00    +0.000 A 
ATOM     14  C   UNL     1      -1.752  14.545  23.231  0.00  0.00    +0.000 A 
ATOM     15  C   UNL     1      -0.969  13.428  22.879  0.00  0.00    +0.000 A 
ATOM     16  C   UNL     1      -1.500  12.128  22.945  0.00  0.00    +0.000 A 
ATOM     17  C   UNL     1      -2.810  11.951  23.392  0.00  0.00    +0.000 A 
ATOM     18  C   UNL     1      -3.590  13.060  23.716  0.00  0.00    +0.000 A 
BRANCH  13  20
ATOM     19  C   UNL     1      -3.341  16.161  25.161  0.00  0.00    +0.000 C 
ATOM     20  O   UNL     1      -3.749  15.511  23.963  0.00  0.00    +0.000 OA
ENDBRANCH  13  20
ENDBRANCH   9  16
ENDBRANCH   7  11
ENDBRANCH   1   8
BRANCH   4  21
ATOM     21  O   UNL     1       3.489   4.711  18.777  0.00  0.00    +0.000 OA
ATOM     22  C   UNL     1       2.760   3.691  18.164  0.00  0.00    +0.000 C 
ENDBRANCH   4  21
BRANCH   5  23
ATOM     23  C   UNL     1       3.854   6.933  16.245  0.00  0.00    +0.000 C 
BRANCH  23  24
ATOM     24  N   UNL     1       5.369   6.700  16.016  0.00  0.00    +0.000 N 
ATOM     25  C   UNL     1       5.623   5.518  15.176  0.00  0.00    +0.000 C 
ATOM     26  C   UNL     1       5.662   4.241  16.012  0.00  0.00    +0.000 C 
ATOM     27  C   UNL     1       6.888   4.336  16.868  0.00  0.00    +0.000 C 
ATOM     28  C   UNL     1       6.641   5.490  17.819  0.00  0.00    +0.000 A 
ATOM     29  C   UNL     1       7.422   5.393  19.005  0.00  0.00    +0.000 A 
ATOM     30  C   UNL     1       8.251   6.425  19.319  0.00  0.00    +0.000 A 
ATOM     31  C   UNL     1       8.249   7.532  18.459  0.00  0.00    +0.000 A 
ATOM     32  C   UNL     1       7.246   7.686  17.430  0.00  0.00    +0.000 A 
ATOM     33  C   UNL     1       6.283   6.695  17.166  0.00  0.00    +0.000 A 
ENDBRANCH  23  24
ENDBRANCH   5  23
TORSDOF 7
ENDMDL
MODEL 5
REMARK VINA RESULT:      -7.8      6.061      9.253
REMARK  Name = 
REMARK  9 active torsions:
REMARK  status: ('A' for Active; 'I' for Inactive)
REMARK    1  A    between atoms: C_1  and  O_2
REMARK    2  A    between atoms: O_2  and  C_3
REMARK    3  A    between atoms: C_6  and  C_7
REMARK    4  A    between atoms: N_9  and  N_10
REMARK    5  A    between atoms: C_11  and  C_12
REMARK    6  A    between atoms: C_15  and  O_16
REMARK    7  A    between atoms: O_16  and  C_17
REMARK    8  A    between atoms: C_18  and  C_19
REMARK    9  A    between atoms: C_19  and  N_20
REMARK                            x       y       z     vdW  Elec       q    Type
REMARK                         _______ _______ _______ _____ _____    ______ ____
ROOT
ATOM      1  C   UNL     1       1.711   7.943  20.064  0.00  0.00    +0.000 A 
ATOM      2  C   UNL     1       1.290   6.904  20.882  0.00  0.00    +0.000 A 
ATOM      3  C   UNL     1       1.706   5.626  20.574  0.00  0.00    +0.000 A 
ATOM      4  C   UNL     1       2.532   5.314  19.464  0.00  0.00    +0.000 A 
ATOM      5  C   UNL     1       3.034   6.339  18.610  0.00  0.00    +0.000 A 
ATOM      6  C   UNL     1       2.571   7.669  18.959  0.00  0.00    +0.000 A 
ENDROOT
BRANCH   1   8
ATOM      7  N   UNL     1      -0.013   9.356  21.018  0.00  0.00    +0.000 NA
ATOM      8  C   UNL     1       1.140   9.290  20.428  0.00  0.00    +0.000 C 
BRANCH   7  11
ATOM      9  C   UNL     1      -0.795  10.883  22.662  0.00  0.00    +0.000 C 
ATOM     10  O   UNL     1      -0.461  10.179  23.624  0.00  0.00    +0.000 OA
ATOM     11  N   UNL     1      -0.570  10.568  21.329  0.00  0.00    +0.000 N 
ATOM     12  H   UNL     1      -0.793  11.211  20.581  0.00  0.00    +0.000 HD
BRANCH   9  16
ATOM     13  C   UNL     1      -2.729  14.657  23.556  0.00  0.00    +0.000 A 
ATOM     14  C   UNL     1      -1.411  14.628  23.107  0.00  0.00    +0.000 A 
ATOM     15  C   UNL     1      -0.806  13.394  22.801  0.00  0.00    +0.000 A 
ATOM     16  C   UNL     1      -1.511  12.189  22.960  0.00  0.00    +0.000 A 
ATOM     17  C   UNL     1      -2.815  12.225  23.454  0.00  0.00    +0.000 A 
ATOM     18  C   UNL     1      -3.420  13.449  23.734  0.00  0.00    +0.000 A 
BRANCH  13  20
ATOM     19  C   UNL     1      -4.466  15.956  24.531  0.00  0.00    +0.000 C 
ATOM     20  O   UNL     1      -3.225  15.908  23.837  0.00  0.00    +0.000 OA
ENDBRANCH  13  20
ENDBRANCH   9  16
ENDBRANCH   7  11
ENDBRANCH   1   8
BRANCH   4  21
ATOM     21  O   UNL     1       2.574   3.955  19.437  0.00  0.00    +0.000 OA
ATOM     22  C   UNL     1       1.445   3.135  19.408  0.00  0.00    +0.000 C 
ENDBRANCH   4  21
BRANCH   5  23
ATOM     23  C   UNL     1       3.906   6.182  17.259  0.00  0.00    +0.000 C 
BRANCH  23  24
ATOM     24  N   UNL     1       4.667   4.870  16.941  0.00  0.00    +0.000 N 
ATOM     25  C   UNL     1       5.550   4.465  18.048  0.00  0.00    +0.000 C 
ATOM     26  C   UNL     1       6.910   5.152  17.952  0.00  0.00    +0.000 C 
ATOM     27  C   UNL     1       7.583   4.586  16.738  0.00  0.00    +0.000 C 
ATOM     28  C   UNL     1       6.759   5.051  15.554  0.00  0.00    +0.000 A 
ATOM     29  C   UNL     1       7.508   5.066  14.343  0.00  0.00    +0.000 A 
ATOM     30  C   UNL     1       7.050   4.336  13.292  0.00  0.00    +0.000 A 
ATOM     31  C   UNL     1       5.845   3.642  13.468  0.00  0.00    +0.000 A 
ATOM     32  C   UNL     1       5.000   3.880  14.617  0.00  0.00    +0.000 A 
ATOM     33  C   UNL     1       5.381   4.738  15.664  0.00  0.00    +0.000 A 
ENDBRANCH  23  24
ENDBRANCH   5  23
TORSDOF 7
ENDMDL
MODEL 6
REMARK VINA RESULT:      -7.8      5.971      7.540
REMARK  Name = 
REMARK  9 active torsions:
REMARK  status: ('A' for Active; 'I' for Inactive)
REMARK    1  A    between atoms: C_1  and  O_2
REMARK    2  A    between atoms: O_2  and  C_3
REMARK    3  A    between atoms: C_6  and  C_7
REMARK    4  A    between atoms: N_9  and  N_10
REMARK    5  A    between atoms: C_11  and  C_12
REMARK    6  A    between atoms: C_15  and  O_16
REMARK    7  A    between atoms: O_16  and  C_17
REMARK    8  A    between atoms: C_18  and  C_19
REMARK    9  A    between atoms: C_19  and  N_20
REMARK                            x       y       z     vdW  Elec       q    Type
REMARK                         _______ _______ _______ _____ _____    ______ ____
ROOT
ATOM      1  C   UNL     1       4.019   7.068  17.331  0.00  0.00    +0.000 A 
ATOM      2  C   UNL     1       4.519   7.150  16.039  0.00  0.00    +0.000 A 
ATOM      3  C   UNL     1       5.310   6.116  15.583  0.00  0.00    +0.000 A 
ATOM      4  C   UNL     1       5.648   4.981  16.364  0.00  0.00    +0.000 A 
ATOM      5  C   UNL     1       5.133   4.816  17.682  0.00  0.00    +0.000 A 
ATOM      6  C   UNL     1       4.311   5.924  18.131  0.00  0.00    +0.000 A 
ENDROOT
BRANCH   1   8
ATOM      7  N   UNL     1       1.939   8.249  17.735  0.00  0.00    +0.000 NA
ATOM      8  C   UNL     1       3.235   8.279  17.771  0.00  0.00    +0.000 C 
BRANCH   7  11
ATOM      9  C   UNL     1       0.834   9.500  19.426  0.00  0.00    +0.000 C 
ATOM     10  O   UNL     1       1.180   8.753  20.350  0.00  0.00    +0.000 OA
ATOM     11  N   UNL     1       1.204   9.346  18.097  0.00  0.00    +0.000 N 
ATOM     12  H   UNL     1       0.959  10.026  17.389  0.00  0.00    +0.000 HD
BRANCH   9  16
ATOM     13  C   UNL     1      -1.779  12.850  20.281  0.00  0.00    +0.000 A 
ATOM     14  C   UNL     1      -2.138  11.901  19.327  0.00  0.00    +0.000 A 
ATOM     15  C   UNL     1      -1.286  10.807  19.078  0.00  0.00    +0.000 A 
ATOM     16  C   UNL     1      -0.069  10.672  19.768  0.00  0.00    +0.000 A 
ATOM     17  C   UNL     1       0.303  11.653  20.687  0.00  0.00    +0.000 A 
ATOM     18  C   UNL     1      -0.552  12.722  20.950  0.00  0.00    +0.000 A 
BRANCH  13  20
ATOM     19  C   UNL     1      -3.844  13.594  21.195  0.00  0.00    +0.000 C 
ATOM     20  O   UNL     1      -2.671  13.883  20.442  0.00  0.00    +0.000 OA
ENDBRANCH  13  20
ENDBRANCH   9  16
ENDBRANCH   7  11
ENDBRANCH   1   8
BRANCH   4  21
ATOM     21  O   UNL     1       6.549   4.299  15.607  0.00  0.00    +0.000 OA
ATOM     22  C   UNL     1       6.364   3.984  14.260  0.00  0.00    +0.000 C 
ENDBRANCH   4  21
BRANCH   5  23
ATOM     23  C   UNL     1       5.466   3.652  18.752  0.00  0.00    +0.000 C 
BRANCH  23  24
ATOM     24  N   UNL     1       4.435   2.542  19.078  0.00  0.00    +0.000 N 
ATOM     25  C   UNL     1       3.960   1.858  17.864  0.00  0.00    +0.000 C 
ATOM     26  C   UNL     1       2.793   2.606  17.226  0.00  0.00    +0.000 C 
ATOM     27  C   UNL     1       1.641   2.478  18.177  0.00  0.00    +0.000 C 
ATOM     28  C   UNL     1       2.044   3.246  19.419  0.00  0.00    +0.000 A 
ATOM     29  C   UNL     1       0.920   3.672  20.183  0.00  0.00    +0.000 A 
ATOM     30  C   UNL     1       0.836   3.282  21.483  0.00  0.00    +0.000 A 
ATOM     31  C   UNL     1       1.890   2.510  21.990  0.00  0.00    +0.000 A 
ATOM     32  C   UNL     1       3.121   2.338  21.252  0.00  0.00    +0.000 A 
ATOM     33  C   UNL     1       3.295   2.847  19.952  0.00  0.00    +0.000 A 
ENDBRANCH  23  24
ENDBRANCH   5  23
TORSDOF 7
ENDMDL
MODEL 7
REMARK VINA RESULT:      -7.8      5.515      8.783
REMARK  Name = 
REMARK  9 active torsions:
REMARK  status: ('A' for Active; 'I' for Inactive)
REMARK    1  A    between atoms: C_1  and  O_2
REMARK    2  A    between atoms: O_2  and  C_3
REMARK    3  A    between atoms: C_6  and  C_7
REMARK    4  A    between atoms: N_9  and  N_10
REMARK    5  A    between atoms: C_11  and  C_12
REMARK    6  A    between atoms: C_15  and  O_16
REMARK    7  A    between atoms: O_16  and  C_17
REMARK    8  A    between atoms: C_18  and  C_19
REMARK    9  A    between atoms: C_19  and  N_20
REMARK                            x       y       z     vdW  Elec       q    Type
REMARK                         _______ _______ _______ _____ _____    ______ ____
ROOT
ATOM      1  C   UNL     1       1.945   7.552  20.125  0.00  0.00    +0.000 A 
ATOM      2  C   UNL     1       1.766   6.263  20.608  0.00  0.00    +0.000 A 
ATOM      3  C   UNL     1       2.197   5.212  19.827  0.00  0.00    +0.000 A 
ATOM      4  C   UNL     1       2.803   5.374  18.554  0.00  0.00    +0.000 A 
ATOM      5  C   UNL     1       3.054   6.671  18.019  0.00  0.00    +0.000 A 
ATOM      6  C   UNL     1       2.582   7.752  18.865  0.00  0.00    +0.000 A 
ENDROOT
BRANCH   1   8
ATOM      7  N   UNL     1       0.086   8.804  21.050  0.00  0.00    +0.000 NA
ATOM      8  C   UNL     1       1.371   8.631  21.008  0.00  0.00    +0.000 C 
BRANCH   7  11
ATOM      9  C   UNL     1      -0.689  11.042  21.246  0.00  0.00    +0.000 C 
ATOM     10  O   UNL     1      -0.509  11.318  20.052  0.00  0.00    +0.000 OA
ATOM     11  N   UNL     1      -0.460   9.798  21.817  0.00  0.00    +0.000 N 
ATOM     12  H   UNL     1      -0.696   9.599  22.781  0.00  0.00    +0.000 HD
BRANCH   9  16
ATOM     13  C   UNL     1      -2.012  14.225  23.871  0.00  0.00    +0.000 A 
ATOM     14  C   UNL     1      -0.849  14.369  23.117  0.00  0.00    +0.000 A 
ATOM     15  C   UNL     1      -0.446  13.333  22.253  0.00  0.00    +0.000 A 
ATOM     16  C   UNL     1      -1.195  12.147  22.155  0.00  0.00    +0.000 A 
ATOM     17  C   UNL     1      -2.332  11.994  22.949  0.00  0.00    +0.000 A 
ATOM     18  C   UNL     1      -2.742  13.030  23.786  0.00  0.00    +0.000 A 
BRANCH  13  20
ATOM     19  C   UNL     1      -1.485  15.458  25.835  0.00  0.00    +0.000 C 
ATOM     20  O   UNL     1      -2.313  15.288  24.690  0.00  0.00    +0.000 OA
ENDBRANCH  13  20
ENDBRANCH   9  16
ENDBRANCH   7  11
ENDBRANCH   1   8
BRANCH   4  21
ATOM     21  O   UNL     1       2.928   4.110  18.069  0.00  0.00    +0.000 OA
ATOM     22  C   UNL     1       1.916   3.150  18.107  0.00  0.00    +0.000 C 
ENDBRANCH   4  21
BRANCH   5  23
ATOM     23  C   UNL     1       3.646   7.061  16.568  0.00  0.00    +0.000 C 
BRANCH  23  24
ATOM     24  N   UNL     1       5.135   6.818  16.216  0.00  0.00    +0.000 N 
ATOM     25  C   UNL     1       5.295   5.751  15.213  0.00  0.00    +0.000 C 
ATOM     26  C   UNL     1       5.336   4.374  15.870  0.00  0.00    +0.000 C 
ATOM     27  C   UNL     1       6.613   4.318  16.652  0.00  0.00    +0.000 C 
ATOM     28  C   UNL     1       6.464   5.341  17.760  0.00  0.00    +0.000 A 
ATOM     29  C   UNL     1       7.310   5.065  18.872  0.00  0.00    +0.000 A 
ATOM     30  C   UNL     1       8.193   6.021  19.265  0.00  0.00    +0.000 A 
ATOM     31  C   UNL     1       8.182   7.232  18.561  0.00  0.00    +0.000 A 
ATOM     32  C   UNL     1       7.127   7.551  17.626  0.00  0.00    +0.000 A 
ATOM     33  C   UNL     1       6.113   6.633  17.296  0.00  0.00    +0.000 A 
ENDBRANCH  23  24
ENDBRANCH   5  23
TORSDOF 7
ENDMDL
MODEL 8
REMARK VINA RESULT:      -7.8      5.825      8.348
REMARK  Name = 
REMARK  9 active torsions:
REMARK  status: ('A' for Active; 'I' for Inactive)
REMARK    1  A    between atoms: C_1  and  O_2
REMARK    2  A    between atoms: O_2  and  C_3
REMARK    3  A    between atoms: C_6  and  C_7
REMARK    4  A    between atoms: N_9  and  N_10
REMARK    5  A    between atoms: C_11  and  C_12
REMARK    6  A    between atoms: C_15  and  O_16
REMARK    7  A    between atoms: O_16  and  C_17
REMARK    8  A    between atoms: C_18  and  C_19
REMARK    9  A    between atoms: C_19  and  N_20
REMARK                            x       y       z     vdW  Elec       q    Type
REMARK                         _______ _______ _______ _____ _____    ______ ____
ROOT
ATOM      1  C   UNL     1       2.689   7.522  18.759  0.00  0.00    +0.000 A 
ATOM      2  C   UNL     1       2.963   8.242  17.604  0.00  0.00    +0.000 A 
ATOM      3  C   UNL     1       3.930   7.755  16.749  0.00  0.00    +0.000 A 
ATOM      4  C   UNL     1       4.665   6.566  16.990  0.00  0.00    +0.000 A 
ATOM      5  C   UNL     1       4.403   5.758  18.135  0.00  0.00    +0.000 A 
ATOM      6  C   UNL     1       3.386   6.305  19.014  0.00  0.00    +0.000 A 
ENDROOT
BRANCH   1   8
ATOM      7  N   UNL     1       1.106   9.277  19.303  0.00  0.00    +0.000 NA
ATOM      8  C   UNL     1       1.681   8.173  19.671  0.00  0.00    +0.000 C 
BRANCH   7  11
ATOM      9  C   UNL     1      -0.124  11.229  19.873  0.00  0.00    +0.000 C 
ATOM     10  O   UNL     1       0.268  11.885  18.899  0.00  0.00    +0.000 OA
ATOM     11  N   UNL     1       0.211   9.906  20.127  0.00  0.00    +0.000 N 
ATOM     12  H   UNL     1      -0.195   9.387  20.895  0.00  0.00    +0.000 HD
BRANCH   9  16
ATOM     13  C   UNL     1      -2.677  13.137  22.808  0.00  0.00    +0.000 A 
ATOM     14  C   UNL     1      -1.384  12.745  23.147  0.00  0.00    +0.000 A 
ATOM     15  C   UNL     1      -0.561  12.145  22.173  0.00  0.00    +0.000 A 
ATOM     16  C   UNL     1      -1.035  11.923  20.869  0.00  0.00    +0.000 A 
ATOM     17  C   UNL     1      -2.347  12.277  20.554  0.00  0.00    +0.000 A 
ATOM     18  C   UNL     1      -3.152  12.892  21.512  0.00  0.00    +0.000 A 
BRANCH  13  20
ATOM     19  C   UNL     1      -4.778  13.348  23.900  0.00  0.00    +0.000 C 
ATOM     20  O   UNL     1      -3.402  13.703  23.830  0.00  0.00    +0.000 OA
ENDBRANCH  13  20
ENDBRANCH   9  16
ENDBRANCH   7  11
ENDBRANCH   1   8
BRANCH   4  21
ATOM     21  O   UNL     1       5.601   6.534  16.004  0.00  0.00    +0.000 OA
ATOM     22  C   UNL     1       5.774   5.467  15.120  0.00  0.00    +0.000 C 
ENDBRANCH   4  21
BRANCH   5  23
ATOM     23  C   UNL     1       5.183   4.432  18.628  0.00  0.00    +0.000 C 
BRANCH  23  24
ATOM     24  N   UNL     1       4.425   3.106  18.890  0.00  0.00    +0.000 N 
ATOM     25  C   UNL     1       3.955   2.485  17.640  0.00  0.00    +0.000 C 
ATOM     26  C   UNL     1       2.602   3.050  17.215  0.00  0.00    +0.000 C 
ATOM     27  C   UNL     1       1.610   2.582  18.236  0.00  0.00    +0.000 C 
ATOM     28  C   UNL     1       1.997   3.266  19.532  0.00  0.00    +0.000 A 
ATOM     29  C   UNL     1       0.906   3.365  20.441  0.00  0.00    +0.000 A 
ATOM     30  C   UNL     1       1.045   2.818  21.679  0.00  0.00    +0.000 A 
ATOM     31  C   UNL     1       2.276   2.222  21.982  0.00  0.00    +0.000 A 
ATOM     32  C   UNL     1       3.426   2.390  21.123  0.00  0.00    +0.000 A 
ATOM     33  C   UNL     1       3.353   3.071  19.894  0.00  0.00    +0.000 A 
ENDBRANCH  23  24
ENDBRANCH   5  23
TORSDOF 7
ENDMDL
MODEL 9
REMARK VINA RESULT:      -7.8      5.870      8.478
REMARK  Name = 
REMARK  9 active torsions:
REMARK  status: ('A' for Active; 'I' for Inactive)
REMARK    1  A    between atoms: C_1  and  O_2
REMARK    2  A    between atoms: O_2  and  C_3
REMARK    3  A    between atoms: C_6  and  C_7
REMARK    4  A    between atoms: N_9  and  N_10
REMARK    5  A    between atoms: C_11  and  C_12
REMARK    6  A    between atoms: C_15  and  O_16
REMARK    7  A    between atoms: O_16  and  C_17
REMARK    8  A    between atoms: C_18  and  C_19
REMARK    9  A    between atoms: C_19  and  N_20
REMARK                            x       y       z     vdW  Elec       q    Type
REMARK                         _______ _______ _______ _____ _____    ______ ____
ROOT
ATOM      1  C   UNL     1       2.440   7.678  18.946  0.00  0.00    +0.000 A 
ATOM      2  C   UNL     1       2.620   8.388  17.768  0.00  0.00    +0.000 A 
ATOM      3  C   UNL     1       3.574   7.940  16.879  0.00  0.00    +0.000 A 
ATOM      4  C   UNL     1       4.388   6.800  17.107  0.00  0.00    +0.000 A 
ATOM      5  C   UNL     1       4.224   6.003  18.277  0.00  0.00    +0.000 A 
ATOM      6  C   UNL     1       3.217   6.507  19.191  0.00  0.00    +0.000 A 
ENDROOT
BRANCH   1   8
ATOM      7  N   UNL     1       1.022   9.500  19.688  0.00  0.00    +0.000 NA
ATOM      8  C   UNL     1       1.436   8.287  19.891  0.00  0.00    +0.000 C 
BRANCH   7  11
ATOM      9  C   UNL     1      -0.548  11.225  20.140  0.00  0.00    +0.000 C 
ATOM     10  O   UNL     1      -0.483  11.723  19.008  0.00  0.00    +0.000 OA
ATOM     11  N   UNL     1       0.136  10.089  20.549  0.00  0.00    +0.000 N 
ATOM     12  H   UNL     1      -0.008   9.676  21.461  0.00  0.00    +0.000 HD
BRANCH   9  16
ATOM     13  C   UNL     1      -3.122  13.268  22.965  0.00  0.00    +0.000 A 
ATOM     14  C   UNL     1      -3.458  13.216  21.614  0.00  0.00    +0.000 A 
ATOM     15  C   UNL     1      -2.620  12.529  20.714  0.00  0.00    +0.000 A 
ATOM     16  C   UNL     1      -1.440  11.910  21.160  0.00  0.00    +0.000 A 
ATOM     17  C   UNL     1      -1.088  12.009  22.506  0.00  0.00    +0.000 A 
ATOM     18  C   UNL     1      -1.931  12.668  23.400  0.00  0.00    +0.000 A 
BRANCH  13  20
ATOM     19  C   UNL     1      -3.620  15.301  24.094  0.00  0.00    +0.000 C 
ATOM     20  O   UNL     1      -3.997  13.970  23.759  0.00  0.00    +0.000 OA
ENDBRANCH  13  20
ENDBRANCH   9  16
ENDBRANCH   7  11
ENDBRANCH   1   8
BRANCH   4  21
ATOM     21  O   UNL     1       5.279   6.802  16.080  0.00  0.00    +0.000 OA
ATOM     22  C   UNL     1       5.504   5.716  15.233  0.00  0.00    +0.000 C 
ENDBRANCH   4  21
BRANCH   5  23
ATOM     23  C   UNL     1       5.101   4.733  18.757  0.00  0.00    +0.000 C 
BRANCH  23  24
ATOM     24  N   UNL     1       4.453   3.339  18.956  0.00  0.00    +0.000 N 
ATOM     25  C   UNL     1       4.086   2.716  17.674  0.00  0.00    +0.000 C 
ATOM     26  C   UNL     1       2.705   3.173  17.210  0.00  0.00    +0.000 C 
ATOM     27  C   UNL     1       1.721   2.591  18.180  0.00  0.00    +0.000 C 
ATOM     28  C   UNL     1       1.999   3.270  19.507  0.00  0.00    +0.000 A 
ATOM     29  C   UNL     1       0.871   3.247  20.375  0.00  0.00    +0.000 A 
ATOM     30  C   UNL     1       1.012   2.680  21.603  0.00  0.00    +0.000 A 
ATOM     31  C   UNL     1       2.279   2.185  21.939  0.00  0.00    +0.000 A 
ATOM     32  C   UNL     1       3.441   2.477  21.130  0.00  0.00    +0.000 A 
ATOM     33  C   UNL     1       3.353   3.183  19.916  0.00  0.00    +0.000 A 
ENDBRANCH  23  24
ENDBRANCH   5  23
TORSDOF 7
ENDMDL
