MODEL 1
REMARK VINA RESULT:      -5.6      0.000      0.000
REMARK  Name = 
REMARK  6 active torsions:
REMARK  status: ('A' for Active; 'I' for Inactive)
REMARK    1  A    between atoms: C_1  and  C_2
REMARK    2  A    between atoms: C_2  and  C_3
REMARK    3  A    between atoms: C_4  and  C_5
REMARK    4  A    between atoms: C_4  and  O_6
REMARK    5  A    between atoms: O_6  and  S_7
REMARK    6  A    between atoms: S_7  and  C_10
REMARK                            x       y       z     vdW  Elec       q    Type
REMARK                         _______ _______ _______ _____ _____    ______ ____
ROOT
ATOM      1  S   UNL     1       2.627   2.938  19.582  0.00  0.00    +0.000 S 
ATOM      2  O   UNL     1       2.052   1.668  19.162  0.00  0.00    +0.000 OA
ATOM      3  O   UNL     1       4.042   3.015  19.922  0.00  0.00    +0.000 OA
ENDROOT
BRANCH   1   4
ATOM      4  C   UNL     1       1.613   3.693  20.916  0.00  0.00    +0.000 C 
ATOM      5  F   UNL     1       1.132   2.777  21.807  0.00  0.00    +0.000 F 
ATOM      6  F   UNL     1       2.313   4.607  21.650  0.00  0.00    +0.000 F 
ATOM      7  F   UNL     1       0.524   4.356  20.427  0.00  0.00    +0.000 F 
ENDBRANCH   1   4
BRANCH   1   8
ATOM      8  O   UNL     1       2.323   4.040  18.401  0.00  0.00    +0.000 OA
BRANCH   8  12
ATOM      9  C   UNL     1       2.644   6.776  18.968  0.00  0.00    +0.000 C 
ATOM     10  C   UNL     1       3.505   6.046  17.969  0.00  0.00    +0.000 C 
ATOM     11  C   UNL     1       4.550   6.873  17.269  0.00  0.00    +0.000 C 
ATOM     12  C   UNL     1       3.326   4.731  17.715  0.00  0.00    +0.000 C 
ATOM     13  C   UNL     1       4.191   3.931  16.773  0.00  0.00    +0.000 C 
ENDBRANCH   8  12
ENDBRANCH   1   8
TORSDOF 3
ENDMDL
MODEL 2
REMARK VINA RESULT:      -5.6      0.023      1.041
REMARK  Name = 
REMARK  6 active torsions:
REMARK  status: ('A' for Active; 'I' for Inactive)
REMARK    1  A    between atoms: C_1  and  C_2
REMARK    2  A    between atoms: C_2  and  C_3
REMARK    3  A    between atoms: C_4  and  C_5
REMARK    4  A    between atoms: C_4  and  O_6
REMARK    5  A    between atoms: O_6  and  S_7
REMARK    6  A    between atoms: S_7  and  C_10
REMARK                            x       y       z     vdW  Elec       q    Type
REMARK                         _______ _______ _______ _____ _____    ______ ____
ROOT
ATOM      1  S   UNL     1       2.634   2.941  19.576  0.00  0.00    +0.000 S 
ATOM      2  O   UNL     1       2.071   1.665  19.155  0.00  0.00    +0.000 OA
ATOM      3  O   UNL     1       4.046   3.029  19.923  0.00  0.00    +0.000 OA
ENDROOT
BRANCH   1   4
ATOM      4  C   UNL     1       1.607   3.690  20.903  0.00  0.00    +0.000 C 
ATOM      5  F   UNL     1       2.296   4.582  21.675  0.00  0.00    +0.000 F 
ATOM      6  F   UNL     1       0.529   4.367  20.411  0.00  0.00    +0.000 F 
ATOM      7  F   UNL     1       1.106   2.754  21.762  0.00  0.00    +0.000 F 
ENDBRANCH   1   4
BRANCH   1   8
ATOM      8  O   UNL     1       2.328   4.038  18.392  0.00  0.00    +0.000 OA
BRANCH   8  12
ATOM      9  C   UNL     1       2.651   6.772  18.972  0.00  0.00    +0.000 C 
ATOM     10  C   UNL     1       3.508   6.046  17.967  0.00  0.00    +0.000 C 
ATOM     11  C   UNL     1       4.552   6.877  17.268  0.00  0.00    +0.000 C 
ATOM     12  C   UNL     1       3.328   4.732  17.706  0.00  0.00    +0.000 C 
ATOM     13  C   UNL     1       4.190   3.937  16.757  0.00  0.00    +0.000 C 
ENDBRANCH   8  12
ENDBRANCH   1   8
TORSDOF 3
ENDMDL
MODEL 3
REMARK VINA RESULT:      -5.6      0.067      1.060
REMARK  Name = 
REMARK  6 active torsions:
REMARK  status: ('A' for Active; 'I' for Inactive)
REMARK    1  A    between atoms: C_1  and  C_2
REMARK    2  A    between atoms: C_2  and  C_3
REMARK    3  A    between atoms: C_4  and  C_5
REMARK    4  A    between atoms: C_4  and  O_6
REMARK    5  A    between atoms: O_6  and  S_7
REMARK    6  A    between atoms: S_7  and  C_10
REMARK                            x       y       z     vdW  Elec       q    Type
REMARK                         _______ _______ _______ _____ _____    ______ ____
ROOT
ATOM      1  S   UNL     1       2.597   2.909  19.609  0.00  0.00    +0.000 S 
ATOM      2  O   UNL     1       2.024   1.647  19.162  0.00  0.00    +0.000 OA
ATOM      3  O   UNL     1       4.011   2.982  19.952  0.00  0.00    +0.000 OA
ENDROOT
BRANCH   1   4
ATOM      4  C   UNL     1       1.580   3.636  20.956  0.00  0.00    +0.000 C 
ATOM      5  F   UNL     1       0.499   4.332  20.495  0.00  0.00    +0.000 F 
ATOM      6  F   UNL     1       1.089   2.690  21.808  0.00  0.00    +0.000 F 
ATOM      7  F   UNL     1       2.291   4.509  21.729  0.00  0.00    +0.000 F 
ENDBRANCH   1   4
BRANCH   1   8
ATOM      8  O   UNL     1       2.293   4.034  18.450  0.00  0.00    +0.000 OA
BRANCH   8  12
ATOM      9  C   UNL     1       2.652   6.769  19.004  0.00  0.00    +0.000 C 
ATOM     10  C   UNL     1       3.493   6.025  17.998  0.00  0.00    +0.000 C 
ATOM     11  C   UNL     1       4.541   6.837  17.284  0.00  0.00    +0.000 C 
ATOM     12  C   UNL     1       3.296   4.711  17.750  0.00  0.00    +0.000 C 
ATOM     13  C   UNL     1       4.142   3.898  16.801  0.00  0.00    +0.000 C 
ENDBRANCH   8  12
ENDBRANCH   1   8
TORSDOF 3
ENDMDL
MODEL 4
REMARK VINA RESULT:      -5.5      4.287      5.072
REMARK  Name = 
REMARK  6 active torsions:
REMARK  status: ('A' for Active; 'I' for Inactive)
REMARK    1  A    between atoms: C_1  and  C_2
REMARK    2  A    between atoms: C_2  and  C_3
REMARK    3  A    between atoms: C_4  and  C_5
REMARK    4  A    between atoms: C_4  and  O_6
REMARK    5  A    between atoms: O_6  and  S_7
REMARK    6  A    between atoms: S_7  and  C_10
REMARK                            x       y       z     vdW  Elec       q    Type
REMARK                         _______ _______ _______ _____ _____    ______ ____
ROOT
ATOM      1  S   UNL     1       5.273   4.583  17.993  0.00  0.00    +0.000 S 
ATOM      2  O   UNL     1       4.744   5.937  18.087  0.00  0.00    +0.000 OA
ATOM      3  O   UNL     1       5.699   3.887  19.200  0.00  0.00    +0.000 OA
ENDROOT
BRANCH   1   4
ATOM      4  C   UNL     1       6.588   4.494  16.712  0.00  0.00    +0.000 C 
ATOM      5  F   UNL     1       6.740   5.661  16.018  0.00  0.00    +0.000 F 
ATOM      6  F   UNL     1       7.813   4.204  17.240  0.00  0.00    +0.000 F 
ATOM      7  F   UNL     1       6.339   3.528  15.779  0.00  0.00    +0.000 F 
ENDBRANCH   1   4
BRANCH   1   8
ATOM      8  O   UNL     1       4.145   3.656  17.239  0.00  0.00    +0.000 OA
BRANCH   8  12
ATOM      9  C   UNL     1       1.558   4.662  17.694  0.00  0.00    +0.000 C 
ATOM     10  C   UNL     1       1.990   3.291  18.150  0.00  0.00    +0.000 C 
ATOM     11  C   UNL     1       0.954   2.483  18.885  0.00  0.00    +0.000 C 
ATOM     12  C   UNL     1       3.241   2.835  17.919  0.00  0.00    +0.000 C 
ATOM     13  C   UNL     1       3.716   1.454  18.296  0.00  0.00    +0.000 C 
ENDBRANCH   8  12
ENDBRANCH   1   8
TORSDOF 3
ENDMDL
MODEL 5
REMARK VINA RESULT:      -5.5      4.772      5.767
REMARK  Name = 
REMARK  6 active torsions:
REMARK  status: ('A' for Active; 'I' for Inactive)
REMARK    1  A    between atoms: C_1  and  C_2
REMARK    2  A    between atoms: C_2  and  C_3
REMARK    3  A    between atoms: C_4  and  C_5
REMARK    4  A    between atoms: C_4  and  O_6
REMARK    5  A    between atoms: O_6  and  S_7
REMARK    6  A    between atoms: S_7  and  C_10
REMARK                            x       y       z     vdW  Elec       q    Type
REMARK                         _______ _______ _______ _____ _____    ______ ____
ROOT
ATOM      1  S   UNL     1       6.032   6.211  16.410  0.00  0.00    +0.000 S 
ATOM      2  O   UNL     1       5.086   6.611  15.378  0.00  0.00    +0.000 OA
ATOM      3  O   UNL     1       6.960   7.191  16.961  0.00  0.00    +0.000 OA
ENDROOT
BRANCH   1   4
ATOM      4  C   UNL     1       6.940   4.697  15.898  0.00  0.00    +0.000 C 
ATOM      5  F   UNL     1       7.711   4.885  14.787  0.00  0.00    +0.000 F 
ATOM      6  F   UNL     1       7.779   4.237  16.871  0.00  0.00    +0.000 F 
ATOM      7  F   UNL     1       6.098   3.662  15.605  0.00  0.00    +0.000 F 
ENDBRANCH   1   4
BRANCH   1   8
ATOM      8  O   UNL     1       5.174   5.564  17.653  0.00  0.00    +0.000 OA
BRANCH   8  12
ATOM      9  C   UNL     1       3.729   3.155  17.491  0.00  0.00    +0.000 C 
ATOM     10  C   UNL     1       3.061   4.494  17.676  0.00  0.00    +0.000 C 
ATOM     11  C   UNL     1       1.558   4.476  17.756  0.00  0.00    +0.000 C 
ATOM     12  C   UNL     1       3.781   5.636  17.748  0.00  0.00    +0.000 C 
ATOM     13  C   UNL     1       3.177   6.997  17.991  0.00  0.00    +0.000 C 
ENDBRANCH   8  12
ENDBRANCH   1   8
TORSDOF 3
ENDMDL
MODEL 6
REMARK VINA RESULT:      -5.5      1.363      2.117
REMARK  Name = 
REMARK  6 active torsions:
REMARK  status: ('A' for Active; 'I' for Inactive)
REMARK    1  A    between atoms: C_1  and  C_2
REMARK    2  A    between atoms: C_2  and  C_3
REMARK    3  A    between atoms: C_4  and  C_5
REMARK    4  A    between atoms: C_4  and  O_6
REMARK    5  A    between atoms: O_6  and  S_7
REMARK    6  A    between atoms: S_7  and  C_10
REMARK                            x       y       z     vdW  Elec       q    Type
REMARK                         _______ _______ _______ _____ _____    ______ ____
ROOT
ATOM      1  S   UNL     1       2.916   3.163  19.866  0.00  0.00    +0.000 S 
ATOM      2  O   UNL     1       2.943   2.785  18.460  0.00  0.00    +0.000 OA
ATOM      3  O   UNL     1       3.718   2.421  20.831  0.00  0.00    +0.000 OA
ENDROOT
BRANCH   1   4
ATOM      4  C   UNL     1       1.184   3.307  20.461  0.00  0.00    +0.000 C 
ATOM      5  F   UNL     1       0.785   4.601  20.641  0.00  0.00    +0.000 F 
ATOM      6  F   UNL     1       0.286   2.750  19.596  0.00  0.00    +0.000 F 
ATOM      7  F   UNL     1       0.992   2.681  21.659  0.00  0.00    +0.000 F 
ENDBRANCH   1   4
BRANCH   1   8
ATOM      8  O   UNL     1       3.334   4.749  19.966  0.00  0.00    +0.000 OA
BRANCH   8  12
ATOM      9  C   UNL     1       5.995   5.123  19.132  0.00  0.00    +0.000 C 
ATOM     10  C   UNL     1       4.824   5.755  18.425  0.00  0.00    +0.000 C 
ATOM     11  C   UNL     1       5.158   6.622  17.240  0.00  0.00    +0.000 C 
ATOM     12  C   UNL     1       3.555   5.560  18.850  0.00  0.00    +0.000 C 
ATOM     13  C   UNL     1       2.339   6.115  18.151  0.00  0.00    +0.000 C 
ENDBRANCH   8  12
ENDBRANCH   1   8
TORSDOF 3
ENDMDL
MODEL 7
REMARK VINA RESULT:      -5.5      1.485      1.847
REMARK  Name = 
REMARK  6 active torsions:
REMARK  status: ('A' for Active; 'I' for Inactive)
REMARK    1  A    between atoms: C_1  and  C_2
REMARK    2  A    between atoms: C_2  and  C_3
REMARK    3  A    between atoms: C_4  and  C_5
REMARK    4  A    between atoms: C_4  and  O_6
REMARK    5  A    between atoms: O_6  and  S_7
REMARK    6  A    between atoms: S_7  and  C_10
REMARK                            x       y       z     vdW  Elec       q    Type
REMARK                         _______ _______ _______ _____ _____    ______ ____
ROOT
ATOM      1  S   UNL     1       2.621   2.729  18.265  0.00  0.00    +0.000 S 
ATOM      2  O   UNL     1       2.266   3.093  16.900  0.00  0.00    +0.000 OA
ATOM      3  O   UNL     1       3.406   1.528  18.513  0.00  0.00    +0.000 OA
ENDROOT
BRANCH   1   4
ATOM      4  C   UNL     1       1.132   2.747  19.342  0.00  0.00    +0.000 C 
ATOM      5  F   UNL     1       0.046   2.154  18.765  0.00  0.00    +0.000 F 
ATOM      6  F   UNL     1       1.336   2.098  20.526  0.00  0.00    +0.000 F 
ATOM      7  F   UNL     1       0.743   4.015  19.668  0.00  0.00    +0.000 F 
ENDBRANCH   1   4
BRANCH   1   8
ATOM      8  O   UNL     1       3.412   4.005  18.933  0.00  0.00    +0.000 OA
BRANCH   8  12
ATOM      9  C   UNL     1       2.471   6.562  18.232  0.00  0.00    +0.000 C 
ATOM     10  C   UNL     1       3.850   6.075  17.868  0.00  0.00    +0.000 C 
ATOM     11  C   UNL     1       4.705   7.036  17.085  0.00  0.00    +0.000 C 
ATOM     12  C   UNL     1       4.274   4.839  18.216  0.00  0.00    +0.000 C 
ATOM     13  C   UNL     1       5.660   4.316  17.934  0.00  0.00    +0.000 C 
ENDBRANCH   8  12
ENDBRANCH   1   8
TORSDOF 3
ENDMDL
MODEL 8
REMARK VINA RESULT:      -5.4      1.388      2.495
REMARK  Name = 
REMARK  6 active torsions:
REMARK  status: ('A' for Active; 'I' for Inactive)
REMARK    1  A    between atoms: C_1  and  C_2
REMARK    2  A    between atoms: C_2  and  C_3
REMARK    3  A    between atoms: C_4  and  C_5
REMARK    4  A    between atoms: C_4  and  O_6
REMARK    5  A    between atoms: O_6  and  S_7
REMARK    6  A    between atoms: S_7  and  C_10
REMARK                            x       y       z     vdW  Elec       q    Type
REMARK                         _______ _______ _______ _____ _____    ______ ____
ROOT
ATOM      1  S   UNL     1       2.499   2.963  18.181  0.00  0.00    +0.000 S 
ATOM      2  O   UNL     1       1.837   3.407  16.963  0.00  0.00    +0.000 OA
ATOM      3  O   UNL     1       3.227   1.701  18.191  0.00  0.00    +0.000 OA
ENDROOT
BRANCH   1   4
ATOM      4  C   UNL     1       1.341   3.037  19.606  0.00  0.00    +0.000 C 
ATOM      5  F   UNL     1       1.102   4.311  20.037  0.00  0.00    +0.000 F 
ATOM      6  F   UNL     1       0.121   2.498  19.316  0.00  0.00    +0.000 F 
ATOM      7  F   UNL     1       1.809   2.352  20.691  0.00  0.00    +0.000 F 
ENDBRANCH   1   4
BRANCH   1   8
ATOM      8  O   UNL     1       3.531   4.152  18.652  0.00  0.00    +0.000 OA
BRANCH   8  12
ATOM      9  C   UNL     1       5.568   4.156  16.713  0.00  0.00    +0.000 C 
ATOM     10  C   UNL     1       4.704   5.359  16.987  0.00  0.00    +0.000 C 
ATOM     11  C   UNL     1       5.002   6.586  16.166  0.00  0.00    +0.000 C 
ATOM     12  C   UNL     1       3.733   5.330  17.927  0.00  0.00    +0.000 C 
ATOM     13  C   UNL     1       2.797   6.479  18.207  0.00  0.00    +0.000 C 
ENDBRANCH   8  12
ENDBRANCH   1   8
TORSDOF 3
ENDMDL
MODEL 9
REMARK VINA RESULT:      -5.4      4.743      5.661
REMARK  Name = 
REMARK  6 active torsions:
REMARK  status: ('A' for Active; 'I' for Inactive)
REMARK    1  A    between atoms: C_1  and  C_2
REMARK    2  A    between atoms: C_2  and  C_3
REMARK    3  A    between atoms: C_4  and  C_5
REMARK    4  A    between atoms: C_4  and  O_6
REMARK    5  A    between atoms: O_6  and  S_7
REMARK    6  A    between atoms: S_7  and  C_10
REMARK                            x       y       z     vdW  Elec       q    Type
REMARK                         _______ _______ _______ _____ _____    ______ ____
ROOT
ATOM      1  S   UNL     1       6.891   5.054  16.780  0.00  0.00    +0.000 S 
ATOM      2  O   UNL     1       6.863   6.504  16.649  0.00  0.00    +0.000 OA
ATOM      3  O   UNL     1       8.126   4.387  17.167  0.00  0.00    +0.000 OA
ENDROOT
BRANCH   1   4
ATOM      4  C   UNL     1       6.182   4.258  15.283  0.00  0.00    +0.000 C 
ATOM      5  F   UNL     1       5.824   2.956  15.487  0.00  0.00    +0.000 F 
ATOM      6  F   UNL     1       5.062   4.895  14.834  0.00  0.00    +0.000 F 
ATOM      7  F   UNL     1       7.059   4.251  14.236  0.00  0.00    +0.000 F 
ENDBRANCH   1   4
BRANCH   1   8
ATOM      8  O   UNL     1       5.721   4.627  17.852  0.00  0.00    +0.000 OA
BRANCH   8  12
ATOM      9  C   UNL     1       3.733   2.636  17.900  0.00  0.00    +0.000 C 
ATOM     10  C   UNL     1       3.413   4.103  17.768  0.00  0.00    +0.000 C 
ATOM     11  C   UNL     1       1.953   4.452  17.647  0.00  0.00    +0.000 C 
ATOM     12  C   UNL     1       4.389   5.038  17.745  0.00  0.00    +0.000 C 
ATOM     13  C   UNL     1       4.131   6.522  17.676  0.00  0.00    +0.000 C 
ENDBRANCH   8  12
ENDBRANCH   1   8
TORSDOF 3
ENDMDL
