MODEL 1
REMARK VINA RESULT:      -8.4      0.000      0.000
REMARK  Name = 
REMARK  11 active torsions:
REMARK  status: ('A' for Active; 'I' for Inactive)
REMARK    1  A    between atoms: C_1  and  N_2
REMARK    2  A    between atoms: N_2  and  C_3
REMARK    3  A    between atoms: C_5  and  C_6
REMARK    4  A    between atoms: C_7  and  C_8
REMARK    5  A    between atoms: C_8  and  O_9
REMARK    6  A    between atoms: C_8  and  C_10
REMARK    7  A    between atoms: N_21  and  C1*_22
REMARK    8  A    between atoms: C4*_24  and  C5*_25
REMARK    9  A    between atoms: C5*_25  and  O5*_26
REMARK   10  A    between atoms: C3*_27  and  O3*_28
REMARK   11  A    between atoms: C2*_29  and  O2*_30
REMARK                            x       y       z     vdW  Elec       q    Type
REMARK                         _______ _______ _______ _____ _____    ______ ____
ROOT
ATOM      1  C   UNL     1       1.515   4.113  20.331  0.00  0.00    +0.000 A 
ATOM      2  N   UNL     1       1.202   5.395  20.667  0.00  0.00    +0.000 NA
ATOM      3  C   UNL     1       1.957   6.389  20.159  0.00  0.00    +0.000 A 
ATOM      4  N   UNL     1       3.015   6.305  19.323  0.00  0.00    +0.000 NA
ATOM      5  C   UNL     1       3.278   5.028  19.009  0.00  0.00    +0.000 A 
ATOM      6  C   UNL     1       2.594   3.908  19.447  0.00  0.00    +0.000 A 
ATOM      7  N   UNL     1       3.122   2.761  18.891  0.00  0.00    +0.000 NA
ATOM      8  C   UNL     1       4.114   3.181  18.135  0.00  0.00    +0.000 A 
ATOM      9  N   UNL     1       4.263   4.543  18.190  0.00  0.00    +0.000 N 
ENDROOT
BRANCH   9  10
ATOM     10  C1* UNL     1       5.261   5.297  17.463  0.00  0.00    +0.000 C 
ATOM     11  O4* UNL     1       4.766   5.616  16.146  0.00  0.00    +0.000 OA
ATOM     12  C4* UNL     1       5.813   5.363  15.178  0.00  0.00    +0.000 C 
ATOM     13  C3* UNL     1       7.096   5.120  15.972  0.00  0.00    +0.000 C 
ATOM     14  C2* UNL     1       6.606   4.590  17.312  0.00  0.00    +0.000 C 
BRANCH  13  15
ATOM     15  O3* UNL     1       7.808   6.348  16.220  0.00  0.00    +0.000 OA
ATOM     16  H3* UNL     1       7.534   7.015  15.562  0.00  0.00    +0.000 HD
ENDBRANCH  13  15
BRANCH  14  17
ATOM     17  O2* UNL     1       7.502   4.933  18.373  0.00  0.00    +0.000 OA
ATOM     18  H2* UNL     1       7.803   5.850  18.193  0.00  0.00    +0.000 HD
ENDBRANCH  14  17
BRANCH  12  19
ATOM     19  C5* UNL     1       5.409   4.180  14.293  0.00  0.00    +0.000 C 
BRANCH  19  20
ATOM     20  O5* UNL     1       6.558   3.570  13.711  0.00  0.00    +0.000 OA
ATOM     21  H5* UNL     1       6.247   2.764  13.256  0.00  0.00    +0.000 HD
ENDBRANCH  19  20
ENDBRANCH  12  19
ENDBRANCH   9  10
BRANCH   1  23
ATOM     22  C   UNL     1       1.390   2.389  22.018  0.00  0.00    +0.000 C 
ATOM     23  N   UNL     1       0.817   3.020  20.854  0.00  0.00    +0.000 N 
ATOM     24  H   UNL     1      -0.173   3.251  20.924  0.00  0.00    +0.000 HD
ENDBRANCH   1  23
BRANCH   3  25
ATOM     25  C   UNL     1       1.634   7.724  20.573  0.00  0.00    +0.000 C 
ATOM     26  C   UNL     1       1.311   8.844  20.853  0.00  0.00    +0.000 C 
BRANCH  26  27
ATOM     27  C   UNL     1       0.876  10.227  21.142  0.00  0.00    +0.000 C 
BRANCH  27  28
ATOM     28  C   UNL     1      -0.232  10.693  20.207  0.00  0.00    +0.000 A 
ATOM     29  C   UNL     1      -0.387  10.182  18.906  0.00  0.00    +0.000 A 
ATOM     30  C   UNL     1      -1.395  10.659  18.062  0.00  0.00    +0.000 A 
ATOM     31  C   UNL     1      -2.276  11.640  18.510  0.00  0.00    +0.000 A 
ATOM     32  C   UNL     1      -2.163  12.132  19.807  0.00  0.00    +0.000 A 
ATOM     33  C   UNL     1      -1.155  11.658  20.650  0.00  0.00    +0.000 A 
ENDBRANCH  27  28
BRANCH  27  34
ATOM     34  O   UNL     1       0.469  10.298  22.506  0.00  0.00    +0.000 OA
ATOM     35  H   UNL     1       0.737  11.179  22.819  0.00  0.00    +0.000 HD
ENDBRANCH  27  34
ENDBRANCH  26  27
ENDBRANCH   3  25
TORSDOF 10
ENDMDL
MODEL 2
REMARK VINA RESULT:      -8.0      0.511      1.017
REMARK  Name = 
REMARK  11 active torsions:
REMARK  status: ('A' for Active; 'I' for Inactive)
REMARK    1  A    between atoms: C_1  and  N_2
REMARK    2  A    between atoms: N_2  and  C_3
REMARK    3  A    between atoms: C_5  and  C_6
REMARK    4  A    between atoms: C_7  and  C_8
REMARK    5  A    between atoms: C_8  and  O_9
REMARK    6  A    between atoms: C_8  and  C_10
REMARK    7  A    between atoms: N_21  and  C1*_22
REMARK    8  A    between atoms: C4*_24  and  C5*_25
REMARK    9  A    between atoms: C5*_25  and  O5*_26
REMARK   10  A    between atoms: C3*_27  and  O3*_28
REMARK   11  A    between atoms: C2*_29  and  O2*_30
REMARK                            x       y       z     vdW  Elec       q    Type
REMARK                         _______ _______ _______ _____ _____    ______ ____
ROOT
ATOM      1  C   UNL     1       1.530   4.164  20.347  0.00  0.00    +0.000 A 
ATOM      2  N   UNL     1       1.157   5.413  20.740  0.00  0.00    +0.000 NA
ATOM      3  C   UNL     1       1.868   6.463  20.283  0.00  0.00    +0.000 A 
ATOM      4  N   UNL     1       2.932   6.466  19.451  0.00  0.00    +0.000 NA
ATOM      5  C   UNL     1       3.255   5.219  19.079  0.00  0.00    +0.000 A 
ATOM      6  C   UNL     1       2.620   4.050  19.461  0.00  0.00    +0.000 A 
ATOM      7  N   UNL     1       3.203   2.956  18.854  0.00  0.00    +0.000 NA
ATOM      8  C   UNL     1       4.177   3.455  18.125  0.00  0.00    +0.000 A 
ATOM      9  N   UNL     1       4.263   4.819  18.244  0.00  0.00    +0.000 N 
ENDROOT
BRANCH   9  10
ATOM     10  C1* UNL     1       5.230   5.651  17.559  0.00  0.00    +0.000 C 
ATOM     11  O4* UNL     1       4.976   5.622  16.139  0.00  0.00    +0.000 OA
ATOM     12  C4* UNL     1       6.235   5.459  15.442  0.00  0.00    +0.000 C 
ATOM     13  C3* UNL     1       7.340   5.656  16.479  0.00  0.00    +0.000 C 
ATOM     14  C2* UNL     1       6.686   5.260  17.795  0.00  0.00    +0.000 C 
BRANCH  13  15
ATOM     15  O3* UNL     1       7.730   7.040  16.584  0.00  0.00    +0.000 OA
ATOM     16  H3* UNL     1       8.617   7.152  16.195  0.00  0.00    +0.000 HD
ENDBRANCH  13  15
BRANCH  14  17
ATOM     17  O2* UNL     1       7.249   5.973  18.899  0.00  0.00    +0.000 OA
ATOM     18  H2* UNL     1       6.573   6.628  19.177  0.00  0.00    +0.000 HD
ENDBRANCH  14  17
BRANCH  12  19
ATOM     19  C5* UNL     1       6.267   4.084  14.769  0.00  0.00    +0.000 C 
BRANCH  19  20
ATOM     20  O5* UNL     1       5.293   4.008  13.731  0.00  0.00    +0.000 OA
ATOM     21  H5* UNL     1       5.694   4.417  12.940  0.00  0.00    +0.000 HD
ENDBRANCH  19  20
ENDBRANCH  12  19
ENDBRANCH   9  10
BRANCH   1  23
ATOM     22  C   UNL     1       1.459   2.377  21.970  0.00  0.00    +0.000 C 
ATOM     23  N   UNL     1       0.881   3.017  20.814  0.00  0.00    +0.000 N 
ATOM     24  H   UNL     1      -0.122   3.192  20.866  0.00  0.00    +0.000 HD
ENDBRANCH   1  23
BRANCH   3  25
ATOM     25  C   UNL     1       1.483   7.761  20.758  0.00  0.00    +0.000 C 
ATOM     26  C   UNL     1       1.174   8.875  21.075  0.00  0.00    +0.000 C 
BRANCH  26  27
ATOM     27  C   UNL     1       0.809  10.269  21.406  0.00  0.00    +0.000 C 
BRANCH  27  28
ATOM     28  C   UNL     1      -0.297  10.806  20.508  0.00  0.00    +0.000 A 
ATOM     29  C   UNL     1      -1.150  11.852  20.904  0.00  0.00    +0.000 A 
ATOM     30  C   UNL     1      -2.178  12.297  20.067  0.00  0.00    +0.000 A 
ATOM     31  C   UNL     1      -2.359  11.719  18.814  0.00  0.00    +0.000 A 
ATOM     32  C   UNL     1      -1.502  10.708  18.387  0.00  0.00    +0.000 A 
ATOM     33  C   UNL     1      -0.476  10.261  19.223  0.00  0.00    +0.000 A 
ENDBRANCH  27  28
BRANCH  27  34
ATOM     34  O   UNL     1       0.437  10.326  22.780  0.00  0.00    +0.000 OA
ATOM     35  H   UNL     1       0.899  11.099  23.150  0.00  0.00    +0.000 HD
ENDBRANCH  27  34
ENDBRANCH  26  27
ENDBRANCH   3  25
TORSDOF 10
ENDMDL
MODEL 3
REMARK VINA RESULT:      -7.8      4.776      7.730
REMARK  Name = 
REMARK  11 active torsions:
REMARK  status: ('A' for Active; 'I' for Inactive)
REMARK    1  A    between atoms: C_1  and  N_2
REMARK    2  A    between atoms: N_2  and  C_3
REMARK    3  A    between atoms: C_5  and  C_6
REMARK    4  A    between atoms: C_7  and  C_8
REMARK    5  A    between atoms: C_8  and  O_9
REMARK    6  A    between atoms: C_8  and  C_10
REMARK    7  A    between atoms: N_21  and  C1*_22
REMARK    8  A    between atoms: C4*_24  and  C5*_25
REMARK    9  A    between atoms: C5*_25  and  O5*_26
REMARK   10  A    between atoms: C3*_27  and  O3*_28
REMARK   11  A    between atoms: C2*_29  and  O2*_30
REMARK                            x       y       z     vdW  Elec       q    Type
REMARK                         _______ _______ _______ _____ _____    ______ ____
ROOT
ATOM      1  C   UNL     1       7.073   5.601  15.623  0.00  0.00    +0.000 A 
ATOM      2  N   UNL     1       7.745   6.599  16.260  0.00  0.00    +0.000 NA
ATOM      3  C   UNL     1       7.367   6.923  17.514  0.00  0.00    +0.000 A 
ATOM      4  N   UNL     1       6.391   6.377  18.270  0.00  0.00    +0.000 NA
ATOM      5  C   UNL     1       5.766   5.391  17.609  0.00  0.00    +0.000 A 
ATOM      6  C   UNL     1       6.041   4.947  16.328  0.00  0.00    +0.000 A 
ATOM      7  N   UNL     1       5.221   3.892  15.987  0.00  0.00    +0.000 NA
ATOM      8  C   UNL     1       4.457   3.706  17.043  0.00  0.00    +0.000 A 
ATOM      9  N   UNL     1       4.734   4.603  18.043  0.00  0.00    +0.000 N 
ENDROOT
BRANCH   9  10
ATOM     10  C1* UNL     1       4.065   4.644  19.326  0.00  0.00    +0.000 C 
ATOM     11  O4* UNL     1       3.783   3.301  19.771  0.00  0.00    +0.000 OA
ATOM     12  C4* UNL     1       2.429   3.252  20.282  0.00  0.00    +0.000 C 
ATOM     13  C3* UNL     1       1.947   4.699  20.390  0.00  0.00    +0.000 C 
ATOM     14  C2* UNL     1       2.761   5.439  19.338  0.00  0.00    +0.000 C 
BRANCH  13  15
ATOM     15  O3* UNL     1       2.268   5.271  21.673  0.00  0.00    +0.000 OA
ATOM     16  H3* UNL     1       2.694   6.138  21.539  0.00  0.00    +0.000 HD
ENDBRANCH  13  15
BRANCH  14  17
ATOM     17  O2* UNL     1       2.980   6.803  19.705  0.00  0.00    +0.000 OA
ATOM     18  H2* UNL     1       2.746   7.341  18.917  0.00  0.00    +0.000 HD
ENDBRANCH  14  17
BRANCH  12  19
ATOM     19  C5* UNL     1       1.569   2.390  19.354  0.00  0.00    +0.000 C 
BRANCH  19  20
ATOM     20  O5* UNL     1       0.184   2.656  19.559  0.00  0.00    +0.000 OA
ATOM     21  H5* UNL     1      -0.309   1.993  19.037  0.00  0.00    +0.000 HD
ENDBRANCH  19  20
ENDBRANCH  12  19
ENDBRANCH   9  10
BRANCH   1  23
ATOM     22  C   UNL     1       6.593   4.151  13.752  0.00  0.00    +0.000 C 
ATOM     23  N   UNL     1       7.364   5.238  14.305  0.00  0.00    +0.000 N 
ATOM     24  H   UNL     1       7.420   6.075  13.726  0.00  0.00    +0.000 HD
ENDBRANCH   1  23
BRANCH   3  25
ATOM     25  C   UNL     1       8.060   8.013  18.137  0.00  0.00    +0.000 C 
ATOM     26  C   UNL     1       8.699   8.868  18.684  0.00  0.00    +0.000 C 
BRANCH  26  27
ATOM     27  C   UNL     1       9.527   9.875  19.379  0.00  0.00    +0.000 C 
BRANCH  27  28
ATOM     28  C   UNL     1       9.764  11.117  18.530  0.00  0.00    +0.000 A 
ATOM     29  C   UNL     1      11.029  11.446  18.010  0.00  0.00    +0.000 A 
ATOM     30  C   UNL     1      11.216  12.613  17.263  0.00  0.00    +0.000 A 
ATOM     31  C   UNL     1      10.142  13.460  17.006  0.00  0.00    +0.000 A 
ATOM     32  C   UNL     1       8.874  13.133  17.479  0.00  0.00    +0.000 A 
ATOM     33  C   UNL     1       8.685  11.969  18.228  0.00  0.00    +0.000 A 
ENDBRANCH  27  28
BRANCH  27  34
ATOM     34  O   UNL     1       8.898  10.204  20.615  0.00  0.00    +0.000 OA
ATOM     35  H   UNL     1       8.924  11.175  20.678  0.00  0.00    +0.000 HD
ENDBRANCH  27  34
ENDBRANCH  26  27
ENDBRANCH   3  25
TORSDOF 10
ENDMDL
MODEL 4
REMARK VINA RESULT:      -7.7      1.371      1.826
REMARK  Name = 
REMARK  11 active torsions:
REMARK  status: ('A' for Active; 'I' for Inactive)
REMARK    1  A    between atoms: C_1  and  N_2
REMARK    2  A    between atoms: N_2  and  C_3
REMARK    3  A    between atoms: C_5  and  C_6
REMARK    4  A    between atoms: C_7  and  C_8
REMARK    5  A    between atoms: C_8  and  O_9
REMARK    6  A    between atoms: C_8  and  C_10
REMARK    7  A    between atoms: N_21  and  C1*_22
REMARK    8  A    between atoms: C4*_24  and  C5*_25
REMARK    9  A    between atoms: C5*_25  and  O5*_26
REMARK   10  A    between atoms: C3*_27  and  O3*_28
REMARK   11  A    between atoms: C2*_29  and  O2*_30
REMARK                            x       y       z     vdW  Elec       q    Type
REMARK                         _______ _______ _______ _____ _____    ______ ____
ROOT
ATOM      1  C   UNL     1       1.567   3.910  20.198  0.00  0.00    +0.000 A 
ATOM      2  N   UNL     1       0.985   5.074  20.598  0.00  0.00    +0.000 NA
ATOM      3  C   UNL     1       1.717   6.205  20.541  0.00  0.00    +0.000 A 
ATOM      4  N   UNL     1       2.990   6.368  20.119  0.00  0.00    +0.000 NA
ATOM      5  C   UNL     1       3.517   5.201  19.723  0.00  0.00    +0.000 A 
ATOM      6  C   UNL     1       2.892   3.966  19.720  0.00  0.00    +0.000 A 
ATOM      7  N   UNL     1       3.728   2.994  19.210  0.00  0.00    +0.000 NA
ATOM      8  C   UNL     1       4.842   3.630  18.917  0.00  0.00    +0.000 A 
ATOM      9  N   UNL     1       4.772   4.963  19.229  0.00  0.00    +0.000 N 
ENDROOT
BRANCH   9  10
ATOM     10  C1* UNL     1       5.837   5.921  19.016  0.00  0.00    +0.000 C 
ATOM     11  O4* UNL     1       5.709   6.506  17.704  0.00  0.00    +0.000 OA
ATOM     12  C4* UNL     1       7.015   6.543  17.079  0.00  0.00    +0.000 C 
ATOM     13  C3* UNL     1       8.032   6.197  18.166  0.00  0.00    +0.000 C 
ATOM     14  C2* UNL     1       7.245   5.346  19.151  0.00  0.00    +0.000 C 
BRANCH  13  15
ATOM     15  O3* UNL     1       8.482   7.374  18.866  0.00  0.00    +0.000 OA
ATOM     16  H3* UNL     1       8.548   7.173  19.819  0.00  0.00    +0.000 HD
ENDBRANCH  13  15
BRANCH  14  17
ATOM     17  O2* UNL     1       7.744   5.485  20.484  0.00  0.00    +0.000 OA
ATOM     18  H2* UNL     1       6.964   5.421  21.078  0.00  0.00    +0.000 HD
ENDBRANCH  14  17
BRANCH  12  19
ATOM     19  C5* UNL     1       7.035   5.576  15.892  0.00  0.00    +0.000 C 
BRANCH  19  20
ATOM     20  O5* UNL     1       5.949   5.840  15.008  0.00  0.00    +0.000 OA
ATOM     21  H5* UNL     1       5.184   6.073  15.567  0.00  0.00    +0.000 HD
ENDBRANCH  19  20
ENDBRANCH  12  19
ENDBRANCH   9  10
BRANCH   1  23
ATOM     22  C   UNL     1       0.497   2.093  19.019  0.00  0.00    +0.000 C 
ATOM     23  N   UNL     1       0.898   2.685  20.273  0.00  0.00    +0.000 N 
ATOM     24  H   UNL     1       1.394   2.065  20.911  0.00  0.00    +0.000 HD
ENDBRANCH   1  23
BRANCH   3  25
ATOM     25  C   UNL     1       1.093   7.405  21.019  0.00  0.00    +0.000 C 
ATOM     26  C   UNL     1       0.647   8.431  21.450  0.00  0.00    +0.000 C 
BRANCH  26  27
ATOM     27  C   UNL     1       0.156   9.708  22.008  0.00  0.00    +0.000 C 
BRANCH  27  28
ATOM     28  C   UNL     1      -0.553  10.562  20.965  0.00  0.00    +0.000 A 
ATOM     29  C   UNL     1      -1.234  11.747  21.296  0.00  0.00    +0.000 A 
ATOM     30  C   UNL     1      -1.903  12.488  20.316  0.00  0.00    +0.000 A 
ATOM     31  C   UNL     1      -1.888  12.068  18.989  0.00  0.00    +0.000 A 
ATOM     32  C   UNL     1      -1.188  10.917  18.635  0.00  0.00    +0.000 A 
ATOM     33  C   UNL     1      -0.521  10.176  19.613  0.00  0.00    +0.000 A 
ENDBRANCH  27  28
BRANCH  27  34
ATOM     34  O   UNL     1      -0.698   9.422  23.113  0.00  0.00    +0.000 OA
ATOM     35  H   UNL     1      -0.172   8.876  23.722  0.00  0.00    +0.000 HD
ENDBRANCH  27  34
ENDBRANCH  26  27
ENDBRANCH   3  25
TORSDOF 10
ENDMDL
MODEL 5
REMARK VINA RESULT:      -7.6      1.542      1.776
REMARK  Name = 
REMARK  11 active torsions:
REMARK  status: ('A' for Active; 'I' for Inactive)
REMARK    1  A    between atoms: C_1  and  N_2
REMARK    2  A    between atoms: N_2  and  C_3
REMARK    3  A    between atoms: C_5  and  C_6
REMARK    4  A    between atoms: C_7  and  C_8
REMARK    5  A    between atoms: C_8  and  O_9
REMARK    6  A    between atoms: C_8  and  C_10
REMARK    7  A    between atoms: N_21  and  C1*_22
REMARK    8  A    between atoms: C4*_24  and  C5*_25
REMARK    9  A    between atoms: C5*_25  and  O5*_26
REMARK   10  A    between atoms: C3*_27  and  O3*_28
REMARK   11  A    between atoms: C2*_29  and  O2*_30
REMARK                            x       y       z     vdW  Elec       q    Type
REMARK                         _______ _______ _______ _____ _____    ______ ____
ROOT
ATOM      1  C   UNL     1       1.584   4.335  20.445  0.00  0.00    +0.000 A 
ATOM      2  N   UNL     1       1.201   5.626  20.652  0.00  0.00    +0.000 NA
ATOM      3  C   UNL     1       1.926   6.606  20.078  0.00  0.00    +0.000 A 
ATOM      4  N   UNL     1       3.014   6.499  19.284  0.00  0.00    +0.000 NA
ATOM      5  C   UNL     1       3.347   5.214  19.097  0.00  0.00    +0.000 A 
ATOM      6  C   UNL     1       2.701   4.105  19.616  0.00  0.00    +0.000 A 
ATOM      7  N   UNL     1       3.300   2.941  19.183  0.00  0.00    +0.000 NA
ATOM      8  C   UNL     1       4.296   3.339  18.421  0.00  0.00    +0.000 A 
ATOM      9  N   UNL     1       4.380   4.706  18.355  0.00  0.00    +0.000 N 
ENDROOT
BRANCH   9  10
ATOM     10  C1* UNL     1       5.366   5.440  17.591  0.00  0.00    +0.000 C 
ATOM     11  O4* UNL     1       4.823   5.785  16.299  0.00  0.00    +0.000 OA
ATOM     12  C4* UNL     1       5.821   5.512  15.285  0.00  0.00    +0.000 C 
ATOM     13  C3* UNL     1       7.130   5.227  16.021  0.00  0.00    +0.000 C 
ATOM     14  C2* UNL     1       6.684   4.699  17.377  0.00  0.00    +0.000 C 
BRANCH  13  15
ATOM     15  O3* UNL     1       7.884   6.434  16.248  0.00  0.00    +0.000 OA
ATOM     16  H3* UNL     1       7.282   7.131  16.569  0.00  0.00    +0.000 HD
ENDBRANCH  13  15
BRANCH  14  17
ATOM     17  O2* UNL     1       7.633   5.007  18.401  0.00  0.00    +0.000 OA
ATOM     18  H2* UNL     1       7.632   5.985  18.490  0.00  0.00    +0.000 HD
ENDBRANCH  14  17
BRANCH  12  19
ATOM     19  C5* UNL     1       5.347   4.349  14.409  0.00  0.00    +0.000 C 
BRANCH  19  20
ATOM     20  O5* UNL     1       6.445   3.523  14.030  0.00  0.00    +0.000 OA
ATOM     21  H5* UNL     1       7.028   3.458  14.811  0.00  0.00    +0.000 HD
ENDBRANCH  19  20
ENDBRANCH  12  19
ENDBRANCH   9  10
BRANCH   1  23
ATOM     22  C   UNL     1       1.687   2.473  21.980  0.00  0.00    +0.000 C 
ATOM     23  N   UNL     1       0.921   3.262  21.045  0.00  0.00    +0.000 N 
ATOM     24  H   UNL     1       0.007   3.569  21.378  0.00  0.00    +0.000 HD
ENDBRANCH   1  23
BRANCH   3  25
ATOM     25  C   UNL     1       1.528   7.955  20.358  0.00  0.00    +0.000 C 
ATOM     26  C   UNL     1       1.117   9.063  20.563  0.00  0.00    +0.000 C 
BRANCH  26  27
ATOM     27  C   UNL     1       0.553  10.410  20.788  0.00  0.00    +0.000 C 
BRANCH  27  28
ATOM     28  C   UNL     1       1.311  11.490  20.026  0.00  0.00    +0.000 A 
ATOM     29  C   UNL     1       1.679  11.343  18.677  0.00  0.00    +0.000 A 
ATOM     30  C   UNL     1       2.405  12.341  18.018  0.00  0.00    +0.000 A 
ATOM     31  C   UNL     1       2.758  13.508  18.690  0.00  0.00    +0.000 A 
ATOM     32  C   UNL     1       2.370  13.689  20.015  0.00  0.00    +0.000 A 
ATOM     33  C   UNL     1       1.647  12.692  20.674  0.00  0.00    +0.000 A 
ENDBRANCH  27  28
BRANCH  27  34
ATOM     34  O   UNL     1      -0.826  10.391  20.428  0.00  0.00    +0.000 OA
ATOM     35  H   UNL     1      -0.853  10.553  19.469  0.00  0.00    +0.000 HD
ENDBRANCH  27  34
ENDBRANCH  26  27
ENDBRANCH   3  25
TORSDOF 10
ENDMDL
MODEL 6
REMARK VINA RESULT:      -7.6      4.716      7.253
REMARK  Name = 
REMARK  11 active torsions:
REMARK  status: ('A' for Active; 'I' for Inactive)
REMARK    1  A    between atoms: C_1  and  N_2
REMARK    2  A    between atoms: N_2  and  C_3
REMARK    3  A    between atoms: C_5  and  C_6
REMARK    4  A    between atoms: C_7  and  C_8
REMARK    5  A    between atoms: C_8  and  O_9
REMARK    6  A    between atoms: C_8  and  C_10
REMARK    7  A    between atoms: N_21  and  C1*_22
REMARK    8  A    between atoms: C4*_24  and  C5*_25
REMARK    9  A    between atoms: C5*_25  and  O5*_26
REMARK   10  A    between atoms: C3*_27  and  O3*_28
REMARK   11  A    between atoms: C2*_29  and  O2*_30
REMARK                            x       y       z     vdW  Elec       q    Type
REMARK                         _______ _______ _______ _____ _____    ______ ____
ROOT
ATOM      1  C   UNL     1       7.144   5.451  15.644  0.00  0.00    +0.000 A 
ATOM      2  N   UNL     1       7.774   6.518  16.207  0.00  0.00    +0.000 NA
ATOM      3  C   UNL     1       7.324   6.970  17.395  0.00  0.00    +0.000 A 
ATOM      4  N   UNL     1       6.309   6.497  18.149  0.00  0.00    +0.000 NA
ATOM      5  C   UNL     1       5.727   5.440  17.564  0.00  0.00    +0.000 A 
ATOM      6  C   UNL     1       6.078   4.865  16.355  0.00  0.00    +0.000 A 
ATOM      7  N   UNL     1       5.283   3.770  16.085  0.00  0.00    +0.000 NA
ATOM      8  C   UNL     1       4.461   3.690  17.109  0.00  0.00    +0.000 A 
ATOM      9  N   UNL     1       4.676   4.692  18.021  0.00  0.00    +0.000 N 
ENDROOT
BRANCH   9  10
ATOM     10  C1* UNL     1       3.935   4.863  19.253  0.00  0.00    +0.000 C 
ATOM     11  O4* UNL     1       3.682   3.574  19.851  0.00  0.00    +0.000 OA
ATOM     12  C4* UNL     1       2.303   3.528  20.294  0.00  0.00    +0.000 C 
ATOM     13  C3* UNL     1       1.760   4.953  20.192  0.00  0.00    +0.000 C 
ATOM     14  C2* UNL     1       2.602   5.591  19.097  0.00  0.00    +0.000 C 
BRANCH  13  15
ATOM     15  O3* UNL     1       1.986   5.695  21.406  0.00  0.00    +0.000 OA
ATOM     16  H3* UNL     1       2.812   6.206  21.320  0.00  0.00    +0.000 HD
ENDBRANCH  13  15
BRANCH  14  17
ATOM     17  O2* UNL     1       2.747   7.000  19.297  0.00  0.00    +0.000 OA
ATOM     18  H2* UNL     1       3.267   7.334  18.534  0.00  0.00    +0.000 HD
ENDBRANCH  14  17
BRANCH  12  19
ATOM     19  C5* UNL     1       1.532   2.517  19.441  0.00  0.00    +0.000 C 
BRANCH  19  20
ATOM     20  O5* UNL     1       2.421   1.566  18.860  0.00  0.00    +0.000 OA
ATOM     21  H5* UNL     1       2.945   2.046  18.191  0.00  0.00    +0.000 HD
ENDBRANCH  19  20
ENDBRANCH  12  19
ENDBRANCH   9  10
BRANCH   1  23
ATOM     22  C   UNL     1       6.474   4.304  13.626  0.00  0.00    +0.000 C 
ATOM     23  N   UNL     1       7.512   4.952  14.391  0.00  0.00    +0.000 N 
ATOM     24  H   UNL     1       8.051   5.656  13.889  0.00  0.00    +0.000 HD
ENDBRANCH   1  23
BRANCH   3  25
ATOM     25  C   UNL     1       7.976   8.128  17.936  0.00  0.00    +0.000 C 
ATOM     26  C   UNL     1       8.567   9.043  18.436  0.00  0.00    +0.000 C 
BRANCH  26  27
ATOM     27  C   UNL     1       9.327  10.128  19.091  0.00  0.00    +0.000 C 
BRANCH  27  28
ATOM     28  C   UNL     1       8.856  11.510  18.658  0.00  0.00    +0.000 A 
ATOM     29  C   UNL     1       8.067  11.712  17.511  0.00  0.00    +0.000 A 
ATOM     30  C   UNL     1       7.680  13.000  17.124  0.00  0.00    +0.000 A 
ATOM     31  C   UNL     1       8.059  14.102  17.884  0.00  0.00    +0.000 A 
ATOM     32  C   UNL     1       8.808  13.920  19.044  0.00  0.00    +0.000 A 
ATOM     33  C   UNL     1       9.196  12.635  19.430  0.00  0.00    +0.000 A 
ENDBRANCH  27  28
BRANCH  27  34
ATOM     34  O   UNL     1       9.226   9.964  20.503  0.00  0.00    +0.000 OA
ATOM     35  H   UNL     1      10.127  10.080  20.851  0.00  0.00    +0.000 HD
ENDBRANCH  27  34
ENDBRANCH  26  27
ENDBRANCH   3  25
TORSDOF 10
ENDMDL
MODEL 7
REMARK VINA RESULT:      -7.6      0.962      1.369
REMARK  Name = 
REMARK  11 active torsions:
REMARK  status: ('A' for Active; 'I' for Inactive)
REMARK    1  A    between atoms: C_1  and  N_2
REMARK    2  A    between atoms: N_2  and  C_3
REMARK    3  A    between atoms: C_5  and  C_6
REMARK    4  A    between atoms: C_7  and  C_8
REMARK    5  A    between atoms: C_8  and  O_9
REMARK    6  A    between atoms: C_8  and  C_10
REMARK    7  A    between atoms: N_21  and  C1*_22
REMARK    8  A    between atoms: C4*_24  and  C5*_25
REMARK    9  A    between atoms: C5*_25  and  O5*_26
REMARK   10  A    between atoms: C3*_27  and  O3*_28
REMARK   11  A    between atoms: C2*_29  and  O2*_30
REMARK                            x       y       z     vdW  Elec       q    Type
REMARK                         _______ _______ _______ _____ _____    ______ ____
ROOT
ATOM      1  C   UNL     1       2.300   4.700  20.769  0.00  0.00    +0.000 A 
ATOM      2  N   UNL     1       1.730   5.933  20.674  0.00  0.00    +0.000 NA
ATOM      3  C   UNL     1       2.254   6.811  19.795  0.00  0.00    +0.000 A 
ATOM      4  N   UNL     1       3.295   6.643  18.950  0.00  0.00    +0.000 NA
ATOM      5  C   UNL     1       3.815   5.413  19.068  0.00  0.00    +0.000 A 
ATOM      6  C   UNL     1       3.386   4.409  19.918  0.00  0.00    +0.000 A 
ATOM      7  N   UNL     1       4.134   3.263  19.742  0.00  0.00    +0.000 NA
ATOM      8  C   UNL     1       5.006   3.573  18.806  0.00  0.00    +0.000 A 
ATOM      9  N   UNL     1       4.868   4.870  18.382  0.00  0.00    +0.000 N 
ENDROOT
BRANCH   9  10
ATOM     10  C1* UNL     1       5.677   5.497  17.358  0.00  0.00    +0.000 C 
ATOM     11  O4* UNL     1       4.922   5.593  16.133  0.00  0.00    +0.000 OA
ATOM     12  C4* UNL     1       5.767   5.187  15.029  0.00  0.00    +0.000 C 
ATOM     13  C3* UNL     1       7.189   5.082  15.580  0.00  0.00    +0.000 C 
ATOM     14  C2* UNL     1       6.991   4.779  17.058  0.00  0.00    +0.000 C 
BRANCH  13  15
ATOM     15  O3* UNL     1       7.891   6.337  15.481  0.00  0.00    +0.000 OA
ATOM     16  H3* UNL     1       7.245   7.053  15.332  0.00  0.00    +0.000 HD
ENDBRANCH  13  15
BRANCH  14  17
ATOM     17  O2* UNL     1       8.064   5.295  17.851  0.00  0.00    +0.000 OA
ATOM     18  H2* UNL     1       7.868   6.246  17.992  0.00  0.00    +0.000 HD
ENDBRANCH  14  17
BRANCH  12  19
ATOM     19  C5* UNL     1       5.240   3.874  14.444  0.00  0.00    +0.000 C 
BRANCH  19  20
ATOM     20  O5* UNL     1       6.200   3.293  13.566  0.00  0.00    +0.000 OA
ATOM     21  H5* UNL     1       6.083   3.725  12.698  0.00  0.00    +0.000 HD
ENDBRANCH  19  20
ENDBRANCH  12  19
ENDBRANCH   9  10
BRANCH   1  23
ATOM     22  C   UNL     1       1.146   2.612  21.149  0.00  0.00    +0.000 C 
ATOM     23  N   UNL     1       1.853   3.749  21.690  0.00  0.00    +0.000 N 
ATOM     24  H   UNL     1       2.604   3.527  22.342  0.00  0.00    +0.000 HD
ENDBRANCH   1  23
BRANCH   3  25
ATOM     25  C   UNL     1       1.665   8.118  19.757  0.00  0.00    +0.000 C 
ATOM     26  C   UNL     1       1.243   9.238  19.684  0.00  0.00    +0.000 C 
BRANCH  26  27
ATOM     27  C   UNL     1       0.780  10.637  19.568  0.00  0.00    +0.000 C 
BRANCH  27  28
ATOM     28  C   UNL     1      -0.580  10.743  18.890  0.00  0.00    +0.000 A 
ATOM     29  C   UNL     1      -1.579  11.627  19.336  0.00  0.00    +0.000 A 
ATOM     30  C   UNL     1      -2.829  11.672  18.710  0.00  0.00    +0.000 A 
ATOM     31  C   UNL     1      -3.095  10.850  17.619  0.00  0.00    +0.000 A 
ATOM     32  C   UNL     1      -2.107   9.995  17.138  0.00  0.00    +0.000 A 
ATOM     33  C   UNL     1      -0.859   9.947  17.764  0.00  0.00    +0.000 A 
ENDBRANCH  27  28
BRANCH  27  34
ATOM     34  O   UNL     1       0.757  11.217  20.870  0.00  0.00    +0.000 OA
ATOM     35  H   UNL     1      -0.178  11.407  21.061  0.00  0.00    +0.000 HD
ENDBRANCH  27  34
ENDBRANCH  26  27
ENDBRANCH   3  25
TORSDOF 10
ENDMDL
MODEL 8
REMARK VINA RESULT:      -7.6      2.958      4.991
REMARK  Name = 
REMARK  11 active torsions:
REMARK  status: ('A' for Active; 'I' for Inactive)
REMARK    1  A    between atoms: C_1  and  N_2
REMARK    2  A    between atoms: N_2  and  C_3
REMARK    3  A    between atoms: C_5  and  C_6
REMARK    4  A    between atoms: C_7  and  C_8
REMARK    5  A    between atoms: C_8  and  O_9
REMARK    6  A    between atoms: C_8  and  C_10
REMARK    7  A    between atoms: N_21  and  C1*_22
REMARK    8  A    between atoms: C4*_24  and  C5*_25
REMARK    9  A    between atoms: C5*_25  and  O5*_26
REMARK   10  A    between atoms: C3*_27  and  O3*_28
REMARK   11  A    between atoms: C2*_29  and  O2*_30
REMARK                            x       y       z     vdW  Elec       q    Type
REMARK                         _______ _______ _______ _____ _____    ______ ____
ROOT
ATOM      1  C   UNL     1       5.303   6.849  17.287  0.00  0.00    +0.000 A 
ATOM      2  N   UNL     1       4.289   7.744  17.445  0.00  0.00    +0.000 NA
ATOM      3  C   UNL     1       3.260   7.408  18.249  0.00  0.00    +0.000 A 
ATOM      4  N   UNL     1       3.081   6.275  18.962  0.00  0.00    +0.000 NA
ATOM      5  C   UNL     1       4.107   5.430  18.788  0.00  0.00    +0.000 A 
ATOM      6  C   UNL     1       5.227   5.636  18.002  0.00  0.00    +0.000 A 
ATOM      7  N   UNL     1       6.093   4.566  18.092  0.00  0.00    +0.000 NA
ATOM      8  C   UNL     1       5.503   3.725  18.913  0.00  0.00    +0.000 A 
ATOM      9  N   UNL     1       4.288   4.192  19.345  0.00  0.00    +0.000 N 
ENDROOT
BRANCH   9  10
ATOM     10  C1* UNL     1       3.410   3.494  20.259  0.00  0.00    +0.000 C 
ATOM     11  O4* UNL     1       3.033   2.221  19.695  0.00  0.00    +0.000 OA
ATOM     12  C4* UNL     1       1.611   2.027  19.885  0.00  0.00    +0.000 C 
ATOM     13  C3* UNL     1       1.142   3.124  20.841  0.00  0.00    +0.000 C 
ATOM     14  C2* UNL     1       2.137   4.254  20.623  0.00  0.00    +0.000 C 
BRANCH  13  15
ATOM     15  O3* UNL     1       1.247   2.709  22.218  0.00  0.00    +0.000 OA
ATOM     16  H3* UNL     1       0.698   3.296  22.771  0.00  0.00    +0.000 HD
ENDBRANCH  13  15
BRANCH  14  17
ATOM     17  O2* UNL     1       2.312   5.038  21.806  0.00  0.00    +0.000 OA
ATOM     18  H2* UNL     1       1.410   5.271  22.118  0.00  0.00    +0.000 HD
ENDBRANCH  14  17
BRANCH  12  19
ATOM     19  C5* UNL     1       0.909   2.062  18.525  0.00  0.00    +0.000 C 
BRANCH  19  20
ATOM     20  O5* UNL     1       1.861   1.996  17.466  0.00  0.00    +0.000 OA
ATOM     21  H5* UNL     1       1.798   2.841  16.980  0.00  0.00    +0.000 HD
ENDBRANCH  19  20
ENDBRANCH  12  19
ENDBRANCH   9  10
BRANCH   1  23
ATOM     22  C   UNL     1       7.582   7.611  17.044  0.00  0.00    +0.000 C 
ATOM     23  N   UNL     1       6.380   7.096  16.432  0.00  0.00    +0.000 N 
ATOM     24  H   UNL     1       6.512   6.298  15.812  0.00  0.00    +0.000 HD
ENDBRANCH   1  23
BRANCH   3  25
ATOM     25  C   UNL     1       2.184   8.350  18.351  0.00  0.00    +0.000 C 
ATOM     26  C   UNL     1       1.270   9.109  18.516  0.00  0.00    +0.000 C 
BRANCH  26  27
ATOM     27  C   UNL     1       0.132  10.015  18.778  0.00  0.00    +0.000 C 
BRANCH  27  28
ATOM     28  C   UNL     1      -0.184  10.134  20.263  0.00  0.00    +0.000 A 
ATOM     29  C   UNL     1      -0.053   9.051  21.152  0.00  0.00    +0.000 A 
ATOM     30  C   UNL     1      -0.385   9.188  22.504  0.00  0.00    +0.000 A 
ATOM     31  C   UNL     1      -0.836  10.410  22.994  0.00  0.00    +0.000 A 
ATOM     32  C   UNL     1      -0.936  11.504  22.138  0.00  0.00    +0.000 A 
ATOM     33  C   UNL     1      -0.607  11.369  20.787  0.00  0.00    +0.000 A 
ENDBRANCH  27  28
BRANCH  27  34
ATOM     34  O   UNL     1       0.426  11.287  18.207  0.00  0.00    +0.000 OA
ATOM     35  H   UNL     1      -0.056  11.318  17.362  0.00  0.00    +0.000 HD
ENDBRANCH  27  34
ENDBRANCH  26  27
ENDBRANCH   3  25
TORSDOF 10
ENDMDL
MODEL 9
REMARK VINA RESULT:      -7.6      2.968      5.140
REMARK  Name = 
REMARK  11 active torsions:
REMARK  status: ('A' for Active; 'I' for Inactive)
REMARK    1  A    between atoms: C_1  and  N_2
REMARK    2  A    between atoms: N_2  and  C_3
REMARK    3  A    between atoms: C_5  and  C_6
REMARK    4  A    between atoms: C_7  and  C_8
REMARK    5  A    between atoms: C_8  and  O_9
REMARK    6  A    between atoms: C_8  and  C_10
REMARK    7  A    between atoms: N_21  and  C1*_22
REMARK    8  A    between atoms: C4*_24  and  C5*_25
REMARK    9  A    between atoms: C5*_25  and  O5*_26
REMARK   10  A    between atoms: C3*_27  and  O3*_28
REMARK   11  A    between atoms: C2*_29  and  O2*_30
REMARK                            x       y       z     vdW  Elec       q    Type
REMARK                         _______ _______ _______ _____ _____    ______ ____
ROOT
ATOM      1  C   UNL     1       5.680   7.015  17.121  0.00  0.00    +0.000 A 
ATOM      2  N   UNL     1       4.742   7.966  17.388  0.00  0.00    +0.000 NA
ATOM      3  C   UNL     1       3.497   7.560  17.710  0.00  0.00    +0.000 A 
ATOM      4  N   UNL     1       3.021   6.302  17.824  0.00  0.00    +0.000 NA
ATOM      5  C   UNL     1       3.980   5.400  17.567  0.00  0.00    +0.000 A 
ATOM      6  C   UNL     1       5.296   5.663  17.228  0.00  0.00    +0.000 A 
ATOM      7  N   UNL     1       6.006   4.490  17.071  0.00  0.00    +0.000 NA
ATOM      8  C   UNL     1       5.131   3.535  17.303  0.00  0.00    +0.000 A 
ATOM      9  N   UNL     1       3.885   4.034  17.586  0.00  0.00    +0.000 N 
ENDROOT
BRANCH   9  10
ATOM     10  C1* UNL     1       2.721   3.231  17.891  0.00  0.00    +0.000 C 
ATOM     11  O4* UNL     1       1.634   4.086  18.304  0.00  0.00    +0.000 OA
ATOM     12  C4* UNL     1       1.001   3.506  19.471  0.00  0.00    +0.000 C 
ATOM     13  C3* UNL     1       1.568   2.095  19.622  0.00  0.00    +0.000 C 
ATOM     14  C2* UNL     1       2.941   2.176  18.972  0.00  0.00    +0.000 C 
BRANCH  13  15
ATOM     15  O3* UNL     1       0.791   1.129  18.886  0.00  0.00    +0.000 OA
ATOM     16  H3* UNL     1      -0.053   0.976  19.351  0.00  0.00    +0.000 HD
ENDBRANCH  13  15
BRANCH  14  17
ATOM     17  O2* UNL     1       3.333   0.921  18.410  0.00  0.00    +0.000 OA
ATOM     18  H2* UNL     1       4.219   0.718  18.782  0.00  0.00    +0.000 HD
ENDBRANCH  14  17
BRANCH  12  19
ATOM     19  C5* UNL     1       1.260   4.403  20.685  0.00  0.00    +0.000 C 
BRANCH  19  20
ATOM     20  O5* UNL     1       1.716   5.688  20.273  0.00  0.00    +0.000 OA
ATOM     21  H5* UNL     1       1.678   6.264  21.061  0.00  0.00    +0.000 HD
ENDBRANCH  19  20
ENDBRANCH  12  19
ENDBRANCH   9  10
BRANCH   1  23
ATOM     22  C   UNL     1       7.781   8.058  17.698  0.00  0.00    +0.000 C 
ATOM     23  N   UNL     1       6.980   7.349  16.730  0.00  0.00    +0.000 N 
ATOM     24  H   UNL     1       7.425   6.538  16.302  0.00  0.00    +0.000 HD
ENDBRANCH   1  23
BRANCH   3  25
ATOM     25  C   UNL     1       2.520   8.586  17.933  0.00  0.00    +0.000 C 
ATOM     26  C   UNL     1       1.714   9.431  18.204  0.00  0.00    +0.000 C 
BRANCH  26  27
ATOM     27  C   UNL     1       0.727  10.457  18.602  0.00  0.00    +0.000 C 
BRANCH  27  28
ATOM     28  C   UNL     1       0.319  10.333  20.064  0.00  0.00    +0.000 A 
ATOM     29  C   UNL     1      -0.357  11.358  20.749  0.00  0.00    +0.000 A 
ATOM     30  C   UNL     1      -0.686  11.223  22.101  0.00  0.00    +0.000 A 
ATOM     31  C   UNL     1      -0.362  10.056  22.787  0.00  0.00    +0.000 A 
ATOM     32  C   UNL     1       0.274   9.014  22.117  0.00  0.00    +0.000 A 
ATOM     33  C   UNL     1       0.605   9.148  20.767  0.00  0.00    +0.000 A 
ENDBRANCH  27  28
BRANCH  27  34
ATOM     34  O   UNL     1       1.273  11.744  18.322  0.00  0.00    +0.000 OA
ATOM     35  H   UNL     1       0.590  12.219  17.818  0.00  0.00    +0.000 HD
ENDBRANCH  27  34
ENDBRANCH  26  27
ENDBRANCH   3  25
TORSDOF 10
ENDMDL
