MODEL 1
REMARK VINA RESULT:      -7.4      0.000      0.000
REMARK  Name = 
REMARK  5 active torsions:
REMARK  status: ('A' for Active; 'I' for Inactive)
REMARK    1  A    between atoms: C_1  and  O_2
REMARK    2  A    between atoms: O_2  and  C_3
REMARK    3  A    between atoms: C_8  and  N_9
REMARK    4  A    between atoms: N_12  and  C_13
REMARK    5  A    between atoms: N_21  and  C_22
REMARK                            x       y       z     vdW  Elec       q    Type
REMARK                         _______ _______ _______ _____ _____    ______ ____
ROOT
ATOM      1  C   UNL     1       1.017   9.809  19.661  0.00  0.00    +0.000 A 
ATOM      2  N   UNL     1       1.405  10.334  18.471  0.00  0.00    +0.000 NA
ATOM      3  C   UNL     1       2.156   9.596  17.639  0.00  0.00    +0.000 A 
ATOM      4  N   UNL     1       2.586   8.342  17.814  0.00  0.00    +0.000 NA
ATOM      5  C   UNL     1       2.156   7.814  18.979  0.00  0.00    +0.000 A 
ATOM      6  C   UNL     1       1.376   8.474  19.917  0.00  0.00    +0.000 A 
ATOM      7  C   UNL     1       1.128   7.510  20.907  0.00  0.00    +0.000 A 
ATOM      8  N   UNL     1       1.712   6.339  20.661  0.00  0.00    +0.000 NA
ATOM      9  N   UNL     1       2.383   6.533  19.484  0.00  0.00    +0.000 N 
ENDROOT
BRANCH   1  13
ATOM     10  N   UNL     1      -1.477  11.810  22.311  0.00  0.00    +0.000 N 
ATOM     11  C   UNL     1      -1.784  11.887  20.885  0.00  0.00    +0.000 C 
ATOM     12  C   UNL     1      -0.450  11.791  20.099  0.00  0.00    +0.000 C 
ATOM     13  N   UNL     1       0.328  10.619  20.527  0.00  0.00    +0.000 N 
ATOM     14  C   UNL     1       0.524  10.446  21.978  0.00  0.00    +0.000 C 
ATOM     15  C   UNL     1      -0.822  10.563  22.721  0.00  0.00    +0.000 C 
BRANCH  10  21
ATOM     16  C   UNL     1      -1.536  13.867  23.607  0.00  0.00    +0.000 A 
ATOM     17  C   UNL     1      -2.240  14.675  24.503  0.00  0.00    +0.000 A 
ATOM     18  C   UNL     1      -3.486  14.266  24.964  0.00  0.00    +0.000 A 
ATOM     19  C   UNL     1      -3.990  13.067  24.505  0.00  0.00    +0.000 A 
ATOM     20  N   UNL     1      -3.337  12.260  23.642  0.00  0.00    +0.000 NA
ATOM     21  C   UNL     1      -2.109  12.636  23.211  0.00  0.00    +0.000 A 
BRANCH  16  23
ATOM     22  C   UNL     1      -0.341  15.246  22.054  0.00  0.00    +0.000 C 
ATOM     23  O   UNL     1      -0.340  14.220  23.032  0.00  0.00    +0.000 OA
ENDBRANCH  16  23
ENDBRANCH  10  21
ENDBRANCH   1  13
BRANCH   9  24
ATOM     24  C   UNL     1       3.187   5.480  18.954  0.00  0.00    +0.000 A 
ATOM     25  C   UNL     1       2.608   4.563  18.061  0.00  0.00    +0.000 A 
ATOM     26  C   UNL     1       3.362   3.511  17.538  0.00  0.00    +0.000 A 
ATOM     27  C   UNL     1       4.696   3.362  17.906  0.00  0.00    +0.000 A 
ATOM     28  C   UNL     1       5.279   4.264  18.793  0.00  0.00    +0.000 A 
ATOM     29  C   UNL     1       4.531   5.323  19.315  0.00  0.00    +0.000 A 
ENDBRANCH   9  24
TORSDOF 4
ENDMDL
MODEL 2
REMARK VINA RESULT:      -7.4      2.452      9.430
REMARK  Name = 
REMARK  5 active torsions:
REMARK  status: ('A' for Active; 'I' for Inactive)
REMARK    1  A    between atoms: C_1  and  O_2
REMARK    2  A    between atoms: O_2  and  C_3
REMARK    3  A    between atoms: C_8  and  N_9
REMARK    4  A    between atoms: N_12  and  C_13
REMARK    5  A    between atoms: N_21  and  C_22
REMARK                            x       y       z     vdW  Elec       q    Type
REMARK                         _______ _______ _______ _____ _____    ______ ____
ROOT
ATOM      1  C   UNL     1       1.013   9.440  20.095  0.00  0.00    +0.000 A 
ATOM      2  N   UNL     1       1.003  10.270  19.022  0.00  0.00    +0.000 NA
ATOM      3  C   UNL     1       0.385  11.458  19.113  0.00  0.00    +0.000 A 
ATOM      4  N   UNL     1      -0.241  11.979  20.174  0.00  0.00    +0.000 NA
ATOM      5  C   UNL     1      -0.185  11.164  21.249  0.00  0.00    +0.000 A 
ATOM      6  C   UNL     1       0.424   9.919  21.278  0.00  0.00    +0.000 A 
ATOM      7  C   UNL     1       0.288   9.494  22.610  0.00  0.00    +0.000 A 
ATOM      8  N   UNL     1      -0.371  10.361  23.375  0.00  0.00    +0.000 NA
ATOM      9  N   UNL     1      -0.701  11.383  22.527  0.00  0.00    +0.000 N 
ENDROOT
BRANCH   1  13
ATOM     10  N   UNL     1       2.201   5.537  19.322  0.00  0.00    +0.000 N 
ATOM     11  C   UNL     1       1.339   5.778  20.476  0.00  0.00    +0.000 C 
ATOM     12  C   UNL     1       1.645   7.199  21.017  0.00  0.00    +0.000 C 
ATOM     13  N   UNL     1       1.573   8.198  19.941  0.00  0.00    +0.000 N 
ATOM     14  C   UNL     1       2.324   7.900  18.707  0.00  0.00    +0.000 C 
ATOM     15  C   UNL     1       2.001   6.475  18.212  0.00  0.00    +0.000 C 
BRANCH  10  21
ATOM     16  C   UNL     1       4.227   4.193  19.240  0.00  0.00    +0.000 A 
ATOM     17  C   UNL     1       4.795   2.927  19.085  0.00  0.00    +0.000 A 
ATOM     18  C   UNL     1       3.974   1.826  18.871  0.00  0.00    +0.000 A 
ATOM     19  C   UNL     1       2.610   2.030  18.828  0.00  0.00    +0.000 A 
ATOM     20  N   UNL     1       2.027   3.238  18.972  0.00  0.00    +0.000 NA
ATOM     21  C   UNL     1       2.822   4.321  19.151  0.00  0.00    +0.000 A 
BRANCH  16  23
ATOM     22  C   UNL     1       6.325   5.350  19.217  0.00  0.00    +0.000 C 
ATOM     23  O   UNL     1       4.945   5.327  19.537  0.00  0.00    +0.000 OA
ENDBRANCH  16  23
ENDBRANCH  10  21
ENDBRANCH   1  13
BRANCH   9  24
ATOM     24  C   UNL     1      -1.488  12.470  23.013  0.00  0.00    +0.000 A 
ATOM     25  C   UNL     1      -2.844  12.252  23.307  0.00  0.00    +0.000 A 
ATOM     26  C   UNL     1      -3.647  13.297  23.767  0.00  0.00    +0.000 A 
ATOM     27  C   UNL     1      -3.105  14.569  23.930  0.00  0.00    +0.000 A 
ATOM     28  C   UNL     1      -1.762  14.797  23.639  0.00  0.00    +0.000 A 
ATOM     29  C   UNL     1      -0.952  13.753  23.184  0.00  0.00    +0.000 A 
ENDBRANCH   9  24
TORSDOF 4
ENDMDL
MODEL 3
REMARK VINA RESULT:      -7.3      1.150      1.614
REMARK  Name = 
REMARK  5 active torsions:
REMARK  status: ('A' for Active; 'I' for Inactive)
REMARK    1  A    between atoms: C_1  and  O_2
REMARK    2  A    between atoms: O_2  and  C_3
REMARK    3  A    between atoms: C_8  and  N_9
REMARK    4  A    between atoms: N_12  and  C_13
REMARK    5  A    between atoms: N_21  and  C_22
REMARK                            x       y       z     vdW  Elec       q    Type
REMARK                         _______ _______ _______ _____ _____    ______ ____
ROOT
ATOM      1  C   UNL     1       1.057  10.022  19.750  0.00  0.00    +0.000 A 
ATOM      2  N   UNL     1       1.408  10.470  18.519  0.00  0.00    +0.000 NA
ATOM      3  C   UNL     1       2.068   9.652  17.683  0.00  0.00    +0.000 A 
ATOM      4  N   UNL     1       2.433   8.383  17.894  0.00  0.00    +0.000 NA
ATOM      5  C   UNL     1       2.039   7.934  19.104  0.00  0.00    +0.000 A 
ATOM      6  C   UNL     1       1.352   8.680  20.050  0.00  0.00    +0.000 A 
ATOM      7  C   UNL     1       1.105   7.777  21.096  0.00  0.00    +0.000 A 
ATOM      8  N   UNL     1       1.604   6.563  20.874  0.00  0.00    +0.000 NA
ATOM      9  N   UNL     1       2.219   6.664  19.655  0.00  0.00    +0.000 N 
ENDROOT
BRANCH   1  13
ATOM     10  N   UNL     1      -1.234  12.366  22.300  0.00  0.00    +0.000 N 
ATOM     11  C   UNL     1      -1.327  12.617  20.863  0.00  0.00    +0.000 C 
ATOM     12  C   UNL     1       0.039  12.261  20.222  0.00  0.00    +0.000 C 
ATOM     13  N   UNL     1       0.466  10.909  20.613  0.00  0.00    +0.000 N 
ATOM     14  C   UNL     1       0.428  10.591  22.052  0.00  0.00    +0.000 C 
ATOM     15  C   UNL     1      -0.940  10.973  22.652  0.00  0.00    +0.000 C 
BRANCH  10  21
ATOM     16  C   UNL     1      -3.154  13.259  23.496  0.00  0.00    +0.000 A 
ATOM     17  C   UNL     1      -3.634  14.165  24.444  0.00  0.00    +0.000 A 
ATOM     18  C   UNL     1      -2.748  15.019  25.090  0.00  0.00    +0.000 A 
ATOM     19  C   UNL     1      -1.408  14.930  24.771  0.00  0.00    +0.000 A 
ATOM     20  N   UNL     1      -0.910  14.069  23.859  0.00  0.00    +0.000 NA
ATOM     21  C   UNL     1      -1.771  13.253  23.203  0.00  0.00    +0.000 A 
BRANCH  16  23
ATOM     22  C   UNL     1      -5.128  12.753  22.237  0.00  0.00    +0.000 C 
ATOM     23  O   UNL     1      -3.935  12.320  22.866  0.00  0.00    +0.000 OA
ENDBRANCH  16  23
ENDBRANCH  10  21
ENDBRANCH   1  13
BRANCH   9  24
ATOM     24  C   UNL     1       2.930   5.543  19.134  0.00  0.00    +0.000 A 
ATOM     25  C   UNL     1       2.227   4.570  18.402  0.00  0.00    +0.000 A 
ATOM     26  C   UNL     1       2.889   3.452  17.892  0.00  0.00    +0.000 A 
ATOM     27  C   UNL     1       4.254   3.291  18.114  0.00  0.00    +0.000 A 
ATOM     28  C   UNL     1       4.959   4.248  18.840  0.00  0.00    +0.000 A 
ATOM     29  C   UNL     1       4.304   5.373  19.347  0.00  0.00    +0.000 A 
ENDBRANCH   9  24
TORSDOF 4
ENDMDL
MODEL 4
REMARK VINA RESULT:      -7.3      2.292      3.802
REMARK  Name = 
REMARK  5 active torsions:
REMARK  status: ('A' for Active; 'I' for Inactive)
REMARK    1  A    between atoms: C_1  and  O_2
REMARK    2  A    between atoms: O_2  and  C_3
REMARK    3  A    between atoms: C_8  and  N_9
REMARK    4  A    between atoms: N_12  and  C_13
REMARK    5  A    between atoms: N_21  and  C_22
REMARK                            x       y       z     vdW  Elec       q    Type
REMARK                         _______ _______ _______ _____ _____    ______ ____
ROOT
ATOM      1  C   UNL     1       0.903  10.253  20.292  0.00  0.00    +0.000 A 
ATOM      2  N   UNL     1       0.766   9.632  21.491  0.00  0.00    +0.000 NA
ATOM      3  C   UNL     1       1.120   8.343  21.611  0.00  0.00    +0.000 A 
ATOM      4  N   UNL     1       1.634   7.542  20.670  0.00  0.00    +0.000 NA
ATOM      5  C   UNL     1       1.808   8.182  19.495  0.00  0.00    +0.000 A 
ATOM      6  C   UNL     1       1.484   9.509  19.251  0.00  0.00    +0.000 A 
ATOM      7  C   UNL     1       1.909   9.734  17.932  0.00  0.00    +0.000 A 
ATOM      8  N   UNL     1       2.434   8.657  17.354  0.00  0.00    +0.000 NA
ATOM      9  N   UNL     1       2.340   7.679  18.307  0.00  0.00    +0.000 N 
ENDROOT
BRANCH   1  13
ATOM     10  N   UNL     1      -0.212  14.152  19.402  0.00  0.00    +0.000 N 
ATOM     11  C   UNL     1       1.123  13.926  19.949  0.00  0.00    +0.000 C 
ATOM     12  C   UNL     1       1.060  12.683  20.875  0.00  0.00    +0.000 C 
ATOM     13  N   UNL     1       0.448  11.542  20.180  0.00  0.00    +0.000 N 
ATOM     14  C   UNL     1      -0.834  11.790  19.496  0.00  0.00    +0.000 C 
ATOM     15  C   UNL     1      -0.733  13.041  18.599  0.00  0.00    +0.000 C 
BRANCH  10  21
ATOM     16  C   UNL     1      -1.610  15.930  20.298  0.00  0.00    +0.000 A 
ATOM     17  C   UNL     1      -2.079  17.239  20.167  0.00  0.00    +0.000 A 
ATOM     18  C   UNL     1      -1.655  18.017  19.096  0.00  0.00    +0.000 A 
ATOM     19  C   UNL     1      -0.769  17.461  18.197  0.00  0.00    +0.000 A 
ATOM     20  N   UNL     1      -0.298  16.200  18.290  0.00  0.00    +0.000 NA
ATOM     21  C   UNL     1      -0.729  15.424  19.315  0.00  0.00    +0.000 A 
BRANCH  16  23
ATOM     22  C   UNL     1      -1.283  15.380  22.607  0.00  0.00    +0.000 C 
ATOM     23  O   UNL     1      -1.904  15.111  21.362  0.00  0.00    +0.000 OA
ENDBRANCH  16  23
ENDBRANCH  10  21
ENDBRANCH   1  13
BRANCH   9  24
ATOM     24  C   UNL     1       2.756   6.351  17.992  0.00  0.00    +0.000 A 
ATOM     25  C   UNL     1       4.090   6.127  17.611  0.00  0.00    +0.000 A 
ATOM     26  C   UNL     1       4.527   4.843  17.280  0.00  0.00    +0.000 A 
ATOM     27  C   UNL     1       3.636   3.774  17.319  0.00  0.00    +0.000 A 
ATOM     28  C   UNL     1       2.310   3.986  17.693  0.00  0.00    +0.000 A 
ATOM     29  C   UNL     1       1.869   5.268  18.032  0.00  0.00    +0.000 A 
ENDBRANCH   9  24
TORSDOF 4
ENDMDL
MODEL 5
REMARK VINA RESULT:      -7.3      2.466      3.380
REMARK  Name = 
REMARK  5 active torsions:
REMARK  status: ('A' for Active; 'I' for Inactive)
REMARK    1  A    between atoms: C_1  and  O_2
REMARK    2  A    between atoms: O_2  and  C_3
REMARK    3  A    between atoms: C_8  and  N_9
REMARK    4  A    between atoms: N_12  and  C_13
REMARK    5  A    between atoms: N_21  and  C_22
REMARK                            x       y       z     vdW  Elec       q    Type
REMARK                         _______ _______ _______ _____ _____    ______ ____
ROOT
ATOM      1  C   UNL     1       0.864  10.034  20.196  0.00  0.00    +0.000 A 
ATOM      2  N   UNL     1       0.718   9.426  21.400  0.00  0.00    +0.000 NA
ATOM      3  C   UNL     1       1.106   8.149  21.545  0.00  0.00    +0.000 A 
ATOM      4  N   UNL     1       1.663   7.351  20.627  0.00  0.00    +0.000 NA
ATOM      5  C   UNL     1       1.845   7.981  19.447  0.00  0.00    +0.000 A 
ATOM      6  C   UNL     1       1.489   9.294  19.178  0.00  0.00    +0.000 A 
ATOM      7  C   UNL     1       1.935   9.515  17.865  0.00  0.00    +0.000 A 
ATOM      8  N   UNL     1       2.503   8.445  17.314  0.00  0.00    +0.000 NA
ATOM      9  N   UNL     1       2.416   7.477  18.278  0.00  0.00    +0.000 N 
ENDROOT
BRANCH   1  13
ATOM     10  N   UNL     1      -0.869  13.806  20.324  0.00  0.00    +0.000 N 
ATOM     11  C   UNL     1      -1.688  12.687  19.864  0.00  0.00    +0.000 C 
ATOM     12  C   UNL     1      -0.754  11.654  19.181  0.00  0.00    +0.000 C 
ATOM     13  N   UNL     1       0.375  11.308  20.057  0.00  0.00    +0.000 N 
ATOM     14  C   UNL     1       1.126  12.431  20.648  0.00  0.00    +0.000 C 
ATOM     15  C   UNL     1       0.160  13.440  21.303  0.00  0.00    +0.000 C 
BRANCH  10  21
ATOM     16  C   UNL     1      -0.633  15.994  19.288  0.00  0.00    +0.000 A 
ATOM     17  C   UNL     1      -1.134  17.290  19.145  0.00  0.00    +0.000 A 
ATOM     18  C   UNL     1      -2.276  17.666  19.842  0.00  0.00    +0.000 A 
ATOM     19  C   UNL     1      -2.885  16.729  20.651  0.00  0.00    +0.000 A 
ATOM     20  N   UNL     1      -2.427  15.469  20.814  0.00  0.00    +0.000 NA
ATOM     21  C   UNL     1      -1.298  15.103  20.162  0.00  0.00    +0.000 A 
BRANCH  16  23
ATOM     22  C   UNL     1       1.731  15.987  18.898  0.00  0.00    +0.000 C 
ATOM     23  O   UNL     1       0.438  15.502  18.581  0.00  0.00    +0.000 OA
ENDBRANCH  16  23
ENDBRANCH  10  21
ENDBRANCH   1  13
BRANCH   9  24
ATOM     24  C   UNL     1       2.877   6.158  17.990  0.00  0.00    +0.000 A 
ATOM     25  C   UNL     1       4.245   5.953  17.740  0.00  0.00    +0.000 A 
ATOM     26  C   UNL     1       4.727   4.678  17.439  0.00  0.00    +0.000 A 
ATOM     27  C   UNL     1       3.849   3.600  17.377  0.00  0.00    +0.000 A 
ATOM     28  C   UNL     1       2.490   3.793  17.620  0.00  0.00    +0.000 A 
ATOM     29  C   UNL     1       2.003   5.066  17.929  0.00  0.00    +0.000 A 
ENDBRANCH   9  24
TORSDOF 4
ENDMDL
MODEL 6
REMARK VINA RESULT:      -7.2      2.474      9.586
REMARK  Name = 
REMARK  5 active torsions:
REMARK  status: ('A' for Active; 'I' for Inactive)
REMARK    1  A    between atoms: C_1  and  O_2
REMARK    2  A    between atoms: O_2  and  C_3
REMARK    3  A    between atoms: C_8  and  N_9
REMARK    4  A    between atoms: N_12  and  C_13
REMARK    5  A    between atoms: N_21  and  C_22
REMARK                            x       y       z     vdW  Elec       q    Type
REMARK                         _______ _______ _______ _____ _____    ______ ____
ROOT
ATOM      1  C   UNL     1       0.647  10.172  19.702  0.00  0.00    +0.000 A 
ATOM      2  N   UNL     1       0.213  10.975  18.699  0.00  0.00    +0.000 NA
ATOM      3  C   UNL     1      -0.660  11.958  18.971  0.00  0.00    +0.000 A 
ATOM      4  N   UNL     1      -1.179  12.289  20.159  0.00  0.00    +0.000 NA
ATOM      5  C   UNL     1      -0.706  11.513  21.156  0.00  0.00    +0.000 A 
ATOM      6  C   UNL     1       0.198  10.472  21.000  0.00  0.00    +0.000 A 
ATOM      7  C   UNL     1       0.439  10.020  22.307  0.00  0.00    +0.000 A 
ATOM      8  N   UNL     1      -0.258  10.678  23.231  0.00  0.00    +0.000 NA
ATOM      9  N   UNL     1      -1.000  11.581  22.519  0.00  0.00    +0.000 N 
ENDROOT
BRANCH   1  13
ATOM     10  N   UNL     1       2.635   6.747  18.453  0.00  0.00    +0.000 N 
ATOM     11  C   UNL     1       1.895   6.693  19.711  0.00  0.00    +0.000 C 
ATOM     12  C   UNL     1       1.915   8.109  20.343  0.00  0.00    +0.000 C 
ATOM     13  N   UNL     1       1.467   9.122  19.376  0.00  0.00    +0.000 N 
ATOM     14  C   UNL     1       2.103   9.098  18.046  0.00  0.00    +0.000 C 
ATOM     15  C   UNL     1       2.075   7.671  17.461  0.00  0.00    +0.000 C 
BRANCH  10  21
ATOM     16  C   UNL     1       3.035   4.462  17.723  0.00  0.00    +0.000 A 
ATOM     17  C   UNL     1       3.967   3.489  17.354  0.00  0.00    +0.000 A 
ATOM     18  C   UNL     1       5.322   3.800  17.351  0.00  0.00    +0.000 A 
ATOM     19  C   UNL     1       5.697   5.079  17.708  0.00  0.00    +0.000 A 
ATOM     20  N   UNL     1       4.825   6.043  18.071  0.00  0.00    +0.000 NA
ATOM     21  C   UNL     1       3.505   5.739  18.106  0.00  0.00    +0.000 A 
BRANCH  16  23
ATOM     22  C   UNL     1       1.112   3.237  18.459  0.00  0.00    +0.000 C 
ATOM     23  O   UNL     1       1.674   4.278  17.679  0.00  0.00    +0.000 OA
ENDBRANCH  16  23
ENDBRANCH  10  21
ENDBRANCH   1  13
BRANCH   9  24
ATOM     24  C   UNL     1      -1.929  12.420  23.204  0.00  0.00    +0.000 A 
ATOM     25  C   UNL     1      -1.559  13.742  23.508  0.00  0.00    +0.000 A 
ATOM     26  C   UNL     1      -2.437  14.584  24.192  0.00  0.00    +0.000 A 
ATOM     27  C   UNL     1      -3.687  14.113  24.584  0.00  0.00    +0.000 A 
ATOM     28  C   UNL     1      -4.062  12.804  24.290  0.00  0.00    +0.000 A 
ATOM     29  C   UNL     1      -3.190  11.959  23.599  0.00  0.00    +0.000 A 
ENDBRANCH   9  24
TORSDOF 4
ENDMDL
MODEL 7
REMARK VINA RESULT:      -7.2      2.355      9.430
REMARK  Name = 
REMARK  5 active torsions:
REMARK  status: ('A' for Active; 'I' for Inactive)
REMARK    1  A    between atoms: C_1  and  O_2
REMARK    2  A    between atoms: O_2  and  C_3
REMARK    3  A    between atoms: C_8  and  N_9
REMARK    4  A    between atoms: N_12  and  C_13
REMARK    5  A    between atoms: N_21  and  C_22
REMARK                            x       y       z     vdW  Elec       q    Type
REMARK                         _______ _______ _______ _____ _____    ______ ____
ROOT
ATOM      1  C   UNL     1       0.852  10.247  19.750  0.00  0.00    +0.000 A 
ATOM      2  N   UNL     1       1.035  11.358  18.994  0.00  0.00    +0.000 NA
ATOM      3  C   UNL     1       0.497  12.522  19.390  0.00  0.00    +0.000 A 
ATOM      4  N   UNL     1      -0.219  12.761  20.495  0.00  0.00    +0.000 NA
ATOM      5  C   UNL     1      -0.356  11.659  21.262  0.00  0.00    +0.000 A 
ATOM      6  C   UNL     1       0.155  10.406  20.960  0.00  0.00    +0.000 A 
ATOM      7  C   UNL     1      -0.176   9.617  22.073  0.00  0.00    +0.000 A 
ATOM      8  N   UNL     1      -0.863  10.276  23.003  0.00  0.00    +0.000 NA
ATOM      9  N   UNL     1      -1.011  11.536  22.488  0.00  0.00    +0.000 N 
ENDROOT
BRANCH   1  13
ATOM     10  N   UNL     1       2.849   6.805  18.563  0.00  0.00    +0.000 N 
ATOM     11  C   UNL     1       2.988   8.001  17.736  0.00  0.00    +0.000 C 
ATOM     12  C   UNL     1       1.681   8.827  17.861  0.00  0.00    +0.000 C 
ATOM     13  N   UNL     1       1.338   9.057  19.272  0.00  0.00    +0.000 N 
ATOM     14  C   UNL     1       1.336   7.877  20.156  0.00  0.00    +0.000 C 
ATOM     15  C   UNL     1       2.645   7.077  19.990  0.00  0.00    +0.000 C 
BRANCH  10  21
ATOM     16  C   UNL     1       2.507   4.412  18.294  0.00  0.00    +0.000 A 
ATOM     17  C   UNL     1       2.984   3.204  17.781  0.00  0.00    +0.000 A 
ATOM     18  C   UNL     1       4.186   3.180  17.083  0.00  0.00    +0.000 A 
ATOM     19  C   UNL     1       4.864   4.369  16.914  0.00  0.00    +0.000 A 
ATOM     20  N   UNL     1       4.434   5.554  17.398  0.00  0.00    +0.000 NA
ATOM     21  C   UNL     1       3.279   5.581  18.105  0.00  0.00    +0.000 A 
BRANCH  16  23
ATOM     22  C   UNL     1       0.976   3.658  19.976  0.00  0.00    +0.000 C 
ATOM     23  O   UNL     1       1.294   4.553  18.925  0.00  0.00    +0.000 OA
ENDBRANCH  16  23
ENDBRANCH  10  21
ENDBRANCH   1  13
BRANCH   9  24
ATOM     24  C   UNL     1      -1.773  12.503  23.209  0.00  0.00    +0.000 A 
ATOM     25  C   UNL     1      -3.103  12.203  23.554  0.00  0.00    +0.000 A 
ATOM     26  C   UNL     1      -3.882  13.134  24.244  0.00  0.00    +0.000 A 
ATOM     27  C   UNL     1      -3.345  14.371  24.590  0.00  0.00    +0.000 A 
ATOM     28  C   UNL     1      -2.029  14.678  24.250  0.00  0.00    +0.000 A 
ATOM     29  C   UNL     1      -1.242  13.749  23.565  0.00  0.00    +0.000 A 
ENDBRANCH   9  24
TORSDOF 4
ENDMDL
MODEL 8
REMARK VINA RESULT:      -7.1      2.374      9.386
REMARK  Name = 
REMARK  5 active torsions:
REMARK  status: ('A' for Active; 'I' for Inactive)
REMARK    1  A    between atoms: C_1  and  O_2
REMARK    2  A    between atoms: O_2  and  C_3
REMARK    3  A    between atoms: C_8  and  N_9
REMARK    4  A    between atoms: N_12  and  C_13
REMARK    5  A    between atoms: N_21  and  C_22
REMARK                            x       y       z     vdW  Elec       q    Type
REMARK                         _______ _______ _______ _____ _____    ______ ____
ROOT
ATOM      1  C   UNL     1       0.670  10.515  19.809  0.00  0.00    +0.000 A 
ATOM      2  N   UNL     1       0.846  11.609  19.026  0.00  0.00    +0.000 NA
ATOM      3  C   UNL     1       0.358  12.794  19.430  0.00  0.00    +0.000 A 
ATOM      4  N   UNL     1      -0.297  13.069  20.563  0.00  0.00    +0.000 NA
ATOM      5  C   UNL     1      -0.426  11.983  21.354  0.00  0.00    +0.000 A 
ATOM      6  C   UNL     1       0.037  10.711  21.048  0.00  0.00    +0.000 A 
ATOM      7  C   UNL     1      -0.262   9.948  22.189  0.00  0.00    +0.000 A 
ATOM      8  N   UNL     1      -0.885  10.641  23.139  0.00  0.00    +0.000 NA
ATOM      9  N   UNL     1      -1.024  11.896  22.612  0.00  0.00    +0.000 N 
ENDROOT
BRANCH   1  13
ATOM     10  N   UNL     1       2.511   6.996  18.595  0.00  0.00    +0.000 N 
ATOM     11  C   UNL     1       2.666   8.180  17.753  0.00  0.00    +0.000 C 
ATOM     12  C   UNL     1       1.392   9.052  17.909  0.00  0.00    +0.000 C 
ATOM     13  N   UNL     1       1.100   9.305  19.327  0.00  0.00    +0.000 N 
ATOM     14  C   UNL     1       1.083   8.133  20.221  0.00  0.00    +0.000 C 
ATOM     15  C   UNL     1       2.358   7.287  20.024  0.00  0.00    +0.000 C 
BRANCH  10  21
ATOM     16  C   UNL     1       4.234   5.455  17.839  0.00  0.00    +0.000 A 
ATOM     17  C   UNL     1       4.553   4.167  17.403  0.00  0.00    +0.000 A 
ATOM     18  C   UNL     1       3.551   3.210  17.292  0.00  0.00    +0.000 A 
ATOM     19  C   UNL     1       2.264   3.573  17.630  0.00  0.00    +0.000 A 
ATOM     20  N   UNL     1       1.919   4.807  18.053  0.00  0.00    +0.000 NA
ATOM     21  C   UNL     1       2.884   5.755  18.135  0.00  0.00    +0.000 A 
BRANCH  16  23
ATOM     22  C   UNL     1       6.100   6.725  17.036  0.00  0.00    +0.000 C 
ATOM     23  O   UNL     1       5.161   6.444  18.060  0.00  0.00    +0.000 OA
ENDBRANCH  16  23
ENDBRANCH  10  21
ENDBRANCH   1  13
BRANCH   9  24
ATOM     24  C   UNL     1      -1.724  12.894  23.353  0.00  0.00    +0.000 A 
ATOM     25  C   UNL     1      -3.068  12.670  23.696  0.00  0.00    +0.000 A 
ATOM     26  C   UNL     1      -3.788  13.634  24.406  0.00  0.00    +0.000 A 
ATOM     27  C   UNL     1      -3.176  14.829  24.772  0.00  0.00    +0.000 A 
ATOM     28  C   UNL     1      -1.844  15.062  24.433  0.00  0.00    +0.000 A 
ATOM     29  C   UNL     1      -1.117  14.098  23.729  0.00  0.00    +0.000 A 
ENDBRANCH   9  24
TORSDOF 4
ENDMDL
MODEL 9
REMARK VINA RESULT:      -7.1      2.209      3.522
REMARK  Name = 
REMARK  5 active torsions:
REMARK  status: ('A' for Active; 'I' for Inactive)
REMARK    1  A    between atoms: C_1  and  O_2
REMARK    2  A    between atoms: O_2  and  C_3
REMARK    3  A    between atoms: C_8  and  N_9
REMARK    4  A    between atoms: N_12  and  C_13
REMARK    5  A    between atoms: N_21  and  C_22
REMARK                            x       y       z     vdW  Elec       q    Type
REMARK                         _______ _______ _______ _____ _____    ______ ____
ROOT
ATOM      1  C   UNL     1       0.965  10.105  20.054  0.00  0.00    +0.000 A 
ATOM      2  N   UNL     1       0.767   9.585  21.291  0.00  0.00    +0.000 NA
ATOM      3  C   UNL     1       1.093   8.304  21.527  0.00  0.00    +0.000 A 
ATOM      4  N   UNL     1       1.631   7.423  20.677  0.00  0.00    +0.000 NA
ATOM      5  C   UNL     1       1.865   7.965  19.463  0.00  0.00    +0.000 A 
ATOM      6  C   UNL     1       1.576   9.272  19.101  0.00  0.00    +0.000 A 
ATOM      7  C   UNL     1       2.059   9.385  17.787  0.00  0.00    +0.000 A 
ATOM      8  N   UNL     1       2.588   8.257  17.320  0.00  0.00    +0.000 NA
ATOM      9  N   UNL     1       2.436   7.360  18.342  0.00  0.00    +0.000 N 
ENDROOT
BRANCH   1  13
ATOM     10  N   UNL     1      -0.542  13.973  19.918  0.00  0.00    +0.000 N 
ATOM     11  C   UNL     1      -1.454  12.868  19.632  0.00  0.00    +0.000 C 
ATOM     12  C   UNL     1      -0.632  11.718  18.994  0.00  0.00    +0.000 C 
ATOM     13  N   UNL     1       0.538  11.388  19.821  0.00  0.00    +0.000 N 
ATOM     14  C   UNL     1       1.392  12.513  20.242  0.00  0.00    +0.000 C 
ATOM     15  C   UNL     1       0.536  13.639  20.856  0.00  0.00    +0.000 C 
BRANCH  10  21
ATOM     16  C   UNL     1      -1.782  15.978  20.516  0.00  0.00    +0.000 A 
ATOM     17  C   UNL     1      -2.094  17.304  20.211  0.00  0.00    +0.000 A 
ATOM     18  C   UNL     1      -1.530  17.904  19.091  0.00  0.00    +0.000 A 
ATOM     19  C   UNL     1      -0.662  17.157  18.320  0.00  0.00    +0.000 A 
ATOM     20  N   UNL     1      -0.340  15.874  18.584  0.00  0.00    +0.000 NA
ATOM     21  C   UNL     1      -0.909  15.272  19.656  0.00  0.00    +0.000 A 
BRANCH  16  23
ATOM     22  C   UNL     1      -3.612  15.092  21.782  0.00  0.00    +0.000 C 
ATOM     23  O   UNL     1      -2.222  15.324  21.642  0.00  0.00    +0.000 OA
ENDBRANCH  16  23
ENDBRANCH  10  21
ENDBRANCH   1  13
BRANCH   9  24
ATOM     24  C   UNL     1       2.842   6.005  18.152  0.00  0.00    +0.000 A 
ATOM     25  C   UNL     1       1.861   5.029  17.909  0.00  0.00    +0.000 A 
ATOM     26  C   UNL     1       2.221   3.691  17.735  0.00  0.00    +0.000 A 
ATOM     27  C   UNL     1       3.560   3.316  17.810  0.00  0.00    +0.000 A 
ATOM     28  C   UNL     1       4.539   4.277  18.054  0.00  0.00    +0.000 A 
ATOM     29  C   UNL     1       4.186   5.618  18.221  0.00  0.00    +0.000 A 
ENDBRANCH   9  24
TORSDOF 4
ENDMDL
