MODEL 1
REMARK VINA RESULT:      -8.2      0.000      0.000
REMARK  Name = 
REMARK  7 active torsions:
REMARK  status: ('A' for Active; 'I' for Inactive)
REMARK    1  A    between atoms: C_2  and  C_3
REMARK    2  A    between atoms: C_3  and  C_4
REMARK    3  A    between atoms: C_4  and  C_5
REMARK    4  A    between atoms: N_12  and  C_13
REMARK    5  A    between atoms: N_12  and  C_25
REMARK    6  A    between atoms: C_13  and  C_14
REMARK    7  A    between atoms: C_25  and  C_26
REMARK                            x       y       z     vdW  Elec       q    Type
REMARK                         _______ _______ _______ _____ _____    ______ ____
ROOT
ATOM      1  O   UNL     1       5.317   7.111  15.277  0.00  0.00    +0.000 OA
ATOM      2  C   UNL     1       5.376   6.504  16.344  0.00  0.00    +0.000 C 
ATOM      3  N   UNL     1       6.183   5.371  16.519  0.00  0.00    +0.000 N 
ENDROOT
BRANCH   2   4
ATOM      4  C   UNL     1       4.603   6.978  17.571  0.00  0.00    +0.000 C 
BRANCH   4   5
ATOM      5  C   UNL     1       3.099   6.759  17.434  0.00  0.00    +0.000 C 
BRANCH   5   6
ATOM      6  C   UNL     1       2.324   7.699  18.326  0.00  0.00    +0.000 A 
ATOM      7  C   UNL     1       1.764   8.878  17.808  0.00  0.00    +0.000 A 
ATOM      8  C   UNL     1       1.044   9.748  18.633  0.00  0.00    +0.000 A 
ATOM      9  C   UNL     1       0.885   9.451  19.986  0.00  0.00    +0.000 A 
ATOM     10  C   UNL     1       1.452   8.293  20.501  0.00  0.00    +0.000 A 
ATOM     11  F   UNL     1       1.305   8.010  21.802  0.00  0.00    +0.000 F 
ATOM     12  C   UNL     1       2.169   7.420  19.690  0.00  0.00    +0.000 A 
ENDBRANCH   5   6
ENDBRANCH   4   5
ENDBRANCH   2   4
BRANCH   3  13
ATOM     13  C   UNL     1       6.185   4.657  17.793  0.00  0.00    +0.000 C 
BRANCH  13  14
ATOM     14  C   UNL     1       4.979   3.896  18.324  0.00  0.00    +0.000 A 
ATOM     15  N   UNL     1       4.528   4.186  19.499  0.00  0.00    +0.000 NA
ATOM     16  C   UNL     1       3.344   3.613  19.882  0.00  0.00    +0.000 A 
ATOM     17  C   UNL     1       2.568   2.880  19.068  0.00  0.00    +0.000 A 
ATOM     18  C   UNL     1       3.084   2.581  17.720  0.00  0.00    +0.000 A 
ATOM     19  O   UNL     1       2.416   2.014  16.870  0.00  0.00    +0.000 OA
ATOM     20  N   UNL     1       4.356   3.027  17.473  0.00  0.00    +0.000 N 
ATOM     21  C   UNL     1       1.219   2.374  19.458  0.00  0.00    +0.000 C 
ATOM     22  O   UNL     1       1.022   2.412  20.882  0.00  0.00    +0.000 OA
ATOM     23  C   UNL     1       1.381   3.681  21.437  0.00  0.00    +0.000 C 
ATOM     24  C   UNL     1       2.880   3.926  21.278  0.00  0.00    +0.000 C 
ATOM     25  H   UNL     1       4.718   2.840  16.549  0.00  0.00    +0.000 HD
ENDBRANCH  13  14
ENDBRANCH   3  13
BRANCH   3  26
ATOM     26  C   UNL     1       7.300   5.197  15.588  0.00  0.00    +0.000 C 
BRANCH  26  27
ATOM     27  C   UNL     1       6.825   4.590  14.296  0.00  0.00    +0.000 A 
ATOM     28  C   UNL     1       5.748   3.750  14.072  0.00  0.00    +0.000 A 
ATOM     29  C   UNL     1       5.641   3.348  12.709  0.00  0.00    +0.000 A 
ATOM     30  C   UNL     1       6.644   3.886  11.935  0.00  0.00    +0.000 A 
ATOM     31  S   UNL     1       7.703   4.868  12.848  0.00  0.00    +0.000 S 
ENDBRANCH  26  27
ENDBRANCH   3  26
TORSDOF 7
ENDMDL
MODEL 2
REMARK VINA RESULT:      -8.0      3.287      6.143
REMARK  Name = 
REMARK  7 active torsions:
REMARK  status: ('A' for Active; 'I' for Inactive)
REMARK    1  A    between atoms: C_2  and  C_3
REMARK    2  A    between atoms: C_3  and  C_4
REMARK    3  A    between atoms: C_4  and  C_5
REMARK    4  A    between atoms: N_12  and  C_13
REMARK    5  A    between atoms: N_12  and  C_25
REMARK    6  A    between atoms: C_13  and  C_14
REMARK    7  A    between atoms: C_25  and  C_26
REMARK                            x       y       z     vdW  Elec       q    Type
REMARK                         _______ _______ _______ _____ _____    ______ ____
ROOT
ATOM      1  O   UNL     1       1.233   8.178  21.729  0.00  0.00    +0.000 OA
ATOM      2  C   UNL     1       1.522   7.893  20.568  0.00  0.00    +0.000 C 
ATOM      3  N   UNL     1       2.047   6.644  20.211  0.00  0.00    +0.000 N 
ENDROOT
BRANCH   2   4
ATOM      4  C   UNL     1       1.282   8.876  19.426  0.00  0.00    +0.000 C 
BRANCH   4   5
ATOM      5  C   UNL     1       0.724  10.210  19.912  0.00  0.00    +0.000 C 
BRANCH   5   6
ATOM      6  C   UNL     1      -0.525  10.593  19.155  0.00  0.00    +0.000 A 
ATOM      7  C   UNL     1      -1.425  11.530  19.685  0.00  0.00    +0.000 A 
ATOM      8  C   UNL     1      -2.581  11.886  18.983  0.00  0.00    +0.000 A 
ATOM      9  C   UNL     1      -2.852  11.301  17.747  0.00  0.00    +0.000 A 
ATOM     10  C   UNL     1      -1.969  10.361  17.229  0.00  0.00    +0.000 A 
ATOM     11  F   UNL     1      -2.231   9.794  16.045  0.00  0.00    +0.000 F 
ATOM     12  C   UNL     1      -0.815  10.001  17.918  0.00  0.00    +0.000 A 
ENDBRANCH   5   6
ENDBRANCH   4   5
ENDBRANCH   2   4
BRANCH   3  13
ATOM     13  C   UNL     1       2.417   6.368  18.825  0.00  0.00    +0.000 C 
BRANCH  13  14
ATOM     14  C   UNL     1       3.746   5.746  18.426  0.00  0.00    +0.000 A 
ATOM     15  N   UNL     1       3.987   5.541  17.173  0.00  0.00    +0.000 NA
ATOM     16  C   UNL     1       5.252   5.144  16.828  0.00  0.00    +0.000 A 
ATOM     17  C   UNL     1       6.280   5.082  17.688  0.00  0.00    +0.000 A 
ATOM     18  C   UNL     1       5.994   5.345  19.111  0.00  0.00    +0.000 A 
ATOM     19  O   UNL     1       6.873   5.416  19.956  0.00  0.00    +0.000 OA
ATOM     20  N   UNL     1       4.674   5.550  19.411  0.00  0.00    +0.000 N 
ATOM     21  C   UNL     1       7.680   4.776  17.273  0.00  0.00    +0.000 C 
ATOM     22  O   UNL     1       7.734   4.182  15.965  0.00  0.00    +0.000 OA
ATOM     23  C   UNL     1       6.962   4.918  15.011  0.00  0.00    +0.000 C 
ATOM     24  C   UNL     1       5.479   4.858  15.369  0.00  0.00    +0.000 C 
ATOM     25  H   UNL     1       4.465   5.744  20.379  0.00  0.00    +0.000 HD
ENDBRANCH  13  14
ENDBRANCH   3  13
BRANCH   3  26
ATOM     26  C   UNL     1       1.807   5.531  21.132  0.00  0.00    +0.000 C 
BRANCH  26  27
ATOM     27  C   UNL     1       1.667   4.237  20.377  0.00  0.00    +0.000 A 
ATOM     28  C   UNL     1       0.702   3.866  19.456  0.00  0.00    +0.000 A 
ATOM     29  C   UNL     1       0.882   2.534  18.981  0.00  0.00    +0.000 A 
ATOM     30  C   UNL     1       1.972   1.926  19.561  0.00  0.00    +0.000 A 
ATOM     31  S   UNL     1       2.771   2.955  20.665  0.00  0.00    +0.000 S 
ENDBRANCH  26  27
ENDBRANCH   3  26
TORSDOF 7
ENDMDL
MODEL 3
REMARK VINA RESULT:      -8.0      1.344      1.518
REMARK  Name = 
REMARK  7 active torsions:
REMARK  status: ('A' for Active; 'I' for Inactive)
REMARK    1  A    between atoms: C_2  and  C_3
REMARK    2  A    between atoms: C_3  and  C_4
REMARK    3  A    between atoms: C_4  and  C_5
REMARK    4  A    between atoms: N_12  and  C_13
REMARK    5  A    between atoms: N_12  and  C_25
REMARK    6  A    between atoms: C_13  and  C_14
REMARK    7  A    between atoms: C_25  and  C_26
REMARK                            x       y       z     vdW  Elec       q    Type
REMARK                         _______ _______ _______ _____ _____    ______ ____
ROOT
ATOM      1  O   UNL     1       6.815   6.910  16.379  0.00  0.00    +0.000 OA
ATOM      2  C   UNL     1       5.836   6.236  16.692  0.00  0.00    +0.000 C 
ATOM      3  N   UNL     1       5.627   4.941  16.198  0.00  0.00    +0.000 N 
ENDROOT
BRANCH   2   4
ATOM      4  C   UNL     1       4.800   6.754  17.685  0.00  0.00    +0.000 C 
BRANCH   4   5
ATOM      5  C   UNL     1       3.691   7.555  17.008  0.00  0.00    +0.000 C 
BRANCH   5   6
ATOM      6  C   UNL     1       2.716   8.108  18.020  0.00  0.00    +0.000 A 
ATOM      7  C   UNL     1       2.023   9.302  17.767  0.00  0.00    +0.000 A 
ATOM      8  C   UNL     1       1.118   9.813  18.703  0.00  0.00    +0.000 A 
ATOM      9  C   UNL     1       0.905   9.139  19.905  0.00  0.00    +0.000 A 
ATOM     10  C   UNL     1       1.604   7.966  20.162  0.00  0.00    +0.000 A 
ATOM     11  F   UNL     1       1.405   7.322  21.319  0.00  0.00    +0.000 F 
ATOM     12  C   UNL     1       2.505   7.448  19.238  0.00  0.00    +0.000 A 
ENDBRANCH   5   6
ENDBRANCH   4   5
ENDBRANCH   2   4
BRANCH   3  13
ATOM     13  C   UNL     1       4.425   4.197  16.564  0.00  0.00    +0.000 C 
BRANCH  13  14
ATOM     14  C   UNL     1       4.079   3.826  17.999  0.00  0.00    +0.000 A 
ATOM     15  N   UNL     1       2.904   4.116  18.451  0.00  0.00    +0.000 NA
ATOM     16  C   UNL     1       2.559   3.620  19.681  0.00  0.00    +0.000 A 
ATOM     17  C   UNL     1       3.309   2.753  20.377  0.00  0.00    +0.000 A 
ATOM     18  C   UNL     1       4.637   2.410  19.834  0.00  0.00    +0.000 A 
ATOM     19  O   UNL     1       5.352   1.556  20.334  0.00  0.00    +0.000 OA
ATOM     20  N   UNL     1       4.993   3.088  18.699  0.00  0.00    +0.000 N 
ATOM     21  C   UNL     1       2.860   2.119  21.652  0.00  0.00    +0.000 C 
ATOM     22  O   UNL     1       1.749   2.819  22.237  0.00  0.00    +0.000 OA
ATOM     23  C   UNL     1       0.713   3.070  21.282  0.00  0.00    +0.000 C 
ATOM     24  C   UNL     1       1.207   4.027  20.200  0.00  0.00    +0.000 C 
ATOM     25  H   UNL     1       5.894   2.855  18.309  0.00  0.00    +0.000 HD
ENDBRANCH  13  14
ENDBRANCH   3  13
BRANCH   3  26
ATOM     26  C   UNL     1       6.799   4.222  15.692  0.00  0.00    +0.000 C 
BRANCH  26  27
ATOM     27  C   UNL     1       6.775   4.160  14.189  0.00  0.00    +0.000 A 
ATOM     28  C   UNL     1       6.026   3.342  13.362  0.00  0.00    +0.000 A 
ATOM     29  C   UNL     1       6.310   3.550  11.981  0.00  0.00    +0.000 A 
ATOM     30  C   UNL     1       7.275   4.514  11.796  0.00  0.00    +0.000 A 
ATOM     31  S   UNL     1       7.829   5.162  13.277  0.00  0.00    +0.000 S 
ENDBRANCH  26  27
ENDBRANCH   3  26
TORSDOF 7
ENDMDL
MODEL 4
REMARK VINA RESULT:      -7.9      3.346      6.578
REMARK  Name = 
REMARK  7 active torsions:
REMARK  status: ('A' for Active; 'I' for Inactive)
REMARK    1  A    between atoms: C_2  and  C_3
REMARK    2  A    between atoms: C_3  and  C_4
REMARK    3  A    between atoms: C_4  and  C_5
REMARK    4  A    between atoms: N_12  and  C_13
REMARK    5  A    between atoms: N_12  and  C_25
REMARK    6  A    between atoms: C_13  and  C_14
REMARK    7  A    between atoms: C_25  and  C_26
REMARK                            x       y       z     vdW  Elec       q    Type
REMARK                         _______ _______ _______ _____ _____    ______ ____
ROOT
ATOM      1  O   UNL     1       4.464   2.938  17.761  0.00  0.00    +0.000 OA
ATOM      2  C   UNL     1       4.364   4.106  17.390  0.00  0.00    +0.000 C 
ATOM      3  N   UNL     1       3.872   5.118  18.224  0.00  0.00    +0.000 N 
ENDROOT
BRANCH   2   4
ATOM      4  C   UNL     1       4.820   4.538  16.000  0.00  0.00    +0.000 C 
BRANCH   4   5
ATOM      5  C   UNL     1       6.339   4.526  15.853  0.00  0.00    +0.000 C 
BRANCH   5   6
ATOM      6  C   UNL     1       6.998   5.407  16.887  0.00  0.00    +0.000 A 
ATOM      7  C   UNL     1       7.535   4.854  18.061  0.00  0.00    +0.000 A 
ATOM      8  C   UNL     1       8.147   5.669  19.018  0.00  0.00    +0.000 A 
ATOM      9  C   UNL     1       8.220   7.046  18.815  0.00  0.00    +0.000 A 
ATOM     10  C   UNL     1       7.674   7.595  17.661  0.00  0.00    +0.000 A 
ATOM     11  F   UNL     1       7.739   8.919  17.468  0.00  0.00    +0.000 F 
ATOM     12  C   UNL     1       7.064   6.794  16.701  0.00  0.00    +0.000 A 
ENDBRANCH   5   6
ENDBRANCH   4   5
ENDBRANCH   2   4
BRANCH   3  13
ATOM     13  C   UNL     1       3.731   6.483  17.723  0.00  0.00    +0.000 C 
BRANCH  13  14
ATOM     14  C   UNL     1       2.725   7.477  18.284  0.00  0.00    +0.000 A 
ATOM     15  N   UNL     1       2.297   7.314  19.493  0.00  0.00    +0.000 NA
ATOM     16  C   UNL     1       1.531   8.313  20.033  0.00  0.00    +0.000 A 
ATOM     17  C   UNL     1       1.309   9.494  19.436  0.00  0.00    +0.000 A 
ATOM     18  C   UNL     1       1.827   9.675  18.067  0.00  0.00    +0.000 A 
ATOM     19  O   UNL     1       1.771  10.742  17.478  0.00  0.00    +0.000 OA
ATOM     20  N   UNL     1       2.419   8.568  17.519  0.00  0.00    +0.000 N 
ATOM     21  C   UNL     1       0.584  10.621  20.092  0.00  0.00    +0.000 C 
ATOM     22  O   UNL     1      -0.172  10.181  21.233  0.00  0.00    +0.000 OA
ATOM     23  C   UNL     1       0.611   9.366  22.111  0.00  0.00    +0.000 C 
ATOM     24  C   UNL     1       1.002   8.063  21.419  0.00  0.00    +0.000 C 
ATOM     25  H   UNL     1       2.790   8.680  16.588  0.00  0.00    +0.000 HD
ENDBRANCH  13  14
ENDBRANCH   3  13
BRANCH   3  26
ATOM     26  C   UNL     1       3.923   4.878  19.668  0.00  0.00    +0.000 C 
BRANCH  26  27
ATOM     27  C   UNL     1       2.725   4.085  20.116  0.00  0.00    +0.000 A 
ATOM     28  C   UNL     1       2.534   3.388  21.297  0.00  0.00    +0.000 A 
ATOM     29  C   UNL     1       1.275   2.722  21.342  0.00  0.00    +0.000 A 
ATOM     30  C   UNL     1       0.547   2.923  20.191  0.00  0.00    +0.000 A 
ATOM     31  S   UNL     1       1.377   3.908  19.069  0.00  0.00    +0.000 S 
ENDBRANCH  26  27
ENDBRANCH   3  26
TORSDOF 7
ENDMDL
MODEL 5
REMARK VINA RESULT:      -7.8      5.932      9.519
REMARK  Name = 
REMARK  7 active torsions:
REMARK  status: ('A' for Active; 'I' for Inactive)
REMARK    1  A    between atoms: C_2  and  C_3
REMARK    2  A    between atoms: C_3  and  C_4
REMARK    3  A    between atoms: C_4  and  C_5
REMARK    4  A    between atoms: N_12  and  C_13
REMARK    5  A    between atoms: N_12  and  C_25
REMARK    6  A    between atoms: C_13  and  C_14
REMARK    7  A    between atoms: C_25  and  C_26
REMARK                            x       y       z     vdW  Elec       q    Type
REMARK                         _______ _______ _______ _____ _____    ______ ____
ROOT
ATOM      1  O   UNL     1       2.073   9.222  18.005  0.00  0.00    +0.000 OA
ATOM      2  C   UNL     1       1.595   9.132  19.134  0.00  0.00    +0.000 C 
ATOM      3  N   UNL     1       0.924  10.196  19.752  0.00  0.00    +0.000 N 
ENDROOT
BRANCH   2   4
ATOM      4  C   UNL     1       1.662   7.827  19.922  0.00  0.00    +0.000 C 
BRANCH   4   5
ATOM      5  C   UNL     1       2.663   6.839  19.331  0.00  0.00    +0.000 C 
BRANCH   5   6
ATOM      6  C   UNL     1       2.109   5.434  19.323  0.00  0.00    +0.000 A 
ATOM      7  C   UNL     1       1.917   4.747  18.114  0.00  0.00    +0.000 A 
ATOM      8  C   UNL     1       1.405   3.445  18.107  0.00  0.00    +0.000 A 
ATOM      9  C   UNL     1       1.072   2.822  19.309  0.00  0.00    +0.000 A 
ATOM     10  C   UNL     1       1.247   3.508  20.503  0.00  0.00    +0.000 A 
ATOM     11  F   UNL     1       0.922   2.913  21.658  0.00  0.00    +0.000 F 
ATOM     12  C   UNL     1       1.756   4.803  20.523  0.00  0.00    +0.000 A 
ENDBRANCH   5   6
ENDBRANCH   4   5
ENDBRANCH   2   4
BRANCH   3  13
ATOM     13  C   UNL     1       0.412  10.054  21.113  0.00  0.00    +0.000 C 
BRANCH  13  14
ATOM     14  C   UNL     1      -0.181  11.210  21.904  0.00  0.00    +0.000 A 
ATOM     15  N   UNL     1       0.313  12.393  21.743  0.00  0.00    +0.000 NA
ATOM     16  C   UNL     1      -0.347  13.440  22.330  0.00  0.00    +0.000 A 
ATOM     17  C   UNL     1      -1.535  13.328  22.946  0.00  0.00    +0.000 A 
ATOM     18  C   UNL     1      -2.099  11.973  23.098  0.00  0.00    +0.000 A 
ATOM     19  O   UNL     1      -3.216  11.773  23.548  0.00  0.00    +0.000 OA
ATOM     20  N   UNL     1      -1.295  10.957  22.654  0.00  0.00    +0.000 N 
ATOM     21  C   UNL     1      -2.303  14.497  23.464  0.00  0.00    +0.000 C 
ATOM     22  O   UNL     1      -1.480  15.669  23.588  0.00  0.00    +0.000 OA
ATOM     23  C   UNL     1      -0.721  15.917  22.400  0.00  0.00    +0.000 C 
ATOM     24  C   UNL     1       0.288  14.794  22.171  0.00  0.00    +0.000 C 
ATOM     25  H   UNL     1      -1.674  10.025  22.740  0.00  0.00    +0.000 HD
ENDBRANCH  13  14
ENDBRANCH   3  13
BRANCH   3  26
ATOM     26  C   UNL     1       0.385  11.242  18.880  0.00  0.00    +0.000 C 
BRANCH  26  27
ATOM     27  C   UNL     1      -1.007  10.891  18.427  0.00  0.00    +0.000 A 
ATOM     28  C   UNL     1      -1.413   9.907  17.544  0.00  0.00    +0.000 A 
ATOM     29  C   UNL     1      -2.823   9.908  17.334  0.00  0.00    +0.000 A 
ATOM     30  C   UNL     1      -3.449  10.899  18.056  0.00  0.00    +0.000 A 
ATOM     31  S   UNL     1      -2.343  11.816  18.980  0.00  0.00    +0.000 S 
ENDBRANCH  26  27
ENDBRANCH   3  26
TORSDOF 7
ENDMDL
MODEL 6
REMARK VINA RESULT:      -7.8      3.686      7.384
REMARK  Name = 
REMARK  7 active torsions:
REMARK  status: ('A' for Active; 'I' for Inactive)
REMARK    1  A    between atoms: C_2  and  C_3
REMARK    2  A    between atoms: C_3  and  C_4
REMARK    3  A    between atoms: C_4  and  C_5
REMARK    4  A    between atoms: N_12  and  C_13
REMARK    5  A    between atoms: N_12  and  C_25
REMARK    6  A    between atoms: C_13  and  C_14
REMARK    7  A    between atoms: C_25  and  C_26
REMARK                            x       y       z     vdW  Elec       q    Type
REMARK                         _______ _______ _______ _____ _____    ______ ____
ROOT
ATOM      1  O   UNL     1       3.533   3.580  16.116  0.00  0.00    +0.000 OA
ATOM      2  C   UNL     1       3.851   4.536  16.820  0.00  0.00    +0.000 C 
ATOM      3  N   UNL     1       2.955   5.147  17.707  0.00  0.00    +0.000 N 
ENDROOT
BRANCH   2   4
ATOM      4  C   UNL     1       5.271   5.094  16.804  0.00  0.00    +0.000 C 
BRANCH   4   5
ATOM      5  C   UNL     1       6.297   4.068  16.332  0.00  0.00    +0.000 C 
BRANCH   5   6
ATOM      6  C   UNL     1       6.610   4.240  14.865  0.00  0.00    +0.000 A 
ATOM      7  C   UNL     1       5.937   3.479  13.895  0.00  0.00    +0.000 A 
ATOM      8  C   UNL     1       6.226   3.639  12.536  0.00  0.00    +0.000 A 
ATOM      9  C   UNL     1       7.197   4.555  12.135  0.00  0.00    +0.000 A 
ATOM     10  C   UNL     1       7.874   5.296  13.095  0.00  0.00    +0.000 A 
ATOM     11  F   UNL     1       8.812   6.171  12.711  0.00  0.00    +0.000 F 
ATOM     12  C   UNL     1       7.594   5.146  14.450  0.00  0.00    +0.000 A 
ENDBRANCH   5   6
ENDBRANCH   4   5
ENDBRANCH   2   4
BRANCH   3  13
ATOM     13  C   UNL     1       3.368   6.309  18.489  0.00  0.00    +0.000 C 
BRANCH  13  14
ATOM     14  C   UNL     1       2.445   7.480  18.792  0.00  0.00    +0.000 A 
ATOM     15  N   UNL     1       1.881   7.545  19.953  0.00  0.00    +0.000 NA
ATOM     16  C   UNL     1       1.197   8.691  20.261  0.00  0.00    +0.000 A 
ATOM     17  C   UNL     1       1.188   9.790  19.490  0.00  0.00    +0.000 A 
ATOM     18  C   UNL     1       1.859   9.709  18.180  0.00  0.00    +0.000 A 
ATOM     19  O   UNL     1       1.997  10.678  17.451  0.00  0.00    +0.000 OA
ATOM     20  N   UNL     1       2.358   8.474  17.858  0.00  0.00    +0.000 N 
ATOM     21  C   UNL     1       0.549  11.074  19.901  0.00  0.00    +0.000 C 
ATOM     22  O   UNL     1      -0.367  10.892  20.994  0.00  0.00    +0.000 OA
ATOM     23  C   UNL     1       0.214  10.133  22.059  0.00  0.00    +0.000 C 
ATOM     24  C   UNL     1       0.505   8.707  21.597  0.00  0.00    +0.000 C 
ATOM     25  H   UNL     1       2.831   8.407  16.969  0.00  0.00    +0.000 HD
ENDBRANCH  13  14
ENDBRANCH   3  13
BRANCH   3  26
ATOM     26  C   UNL     1       1.799   4.357  18.138  0.00  0.00    +0.000 C 
BRANCH  26  27
ATOM     27  C   UNL     1       2.040   3.762  19.499  0.00  0.00    +0.000 A 
ATOM     28  C   UNL     1       1.407   4.043  20.697  0.00  0.00    +0.000 A 
ATOM     29  C   UNL     1       1.944   3.297  21.787  0.00  0.00    +0.000 A 
ATOM     30  C   UNL     1       2.975   2.477  21.390  0.00  0.00    +0.000 A 
ATOM     31  S   UNL     1       3.291   2.606  19.716  0.00  0.00    +0.000 S 
ENDBRANCH  26  27
ENDBRANCH   3  26
TORSDOF 7
ENDMDL
MODEL 7
REMARK VINA RESULT:      -7.8      5.915      9.475
REMARK  Name = 
REMARK  7 active torsions:
REMARK  status: ('A' for Active; 'I' for Inactive)
REMARK    1  A    between atoms: C_2  and  C_3
REMARK    2  A    between atoms: C_3  and  C_4
REMARK    3  A    between atoms: C_4  and  C_5
REMARK    4  A    between atoms: N_12  and  C_13
REMARK    5  A    between atoms: N_12  and  C_25
REMARK    6  A    between atoms: C_13  and  C_14
REMARK    7  A    between atoms: C_25  and  C_26
REMARK                            x       y       z     vdW  Elec       q    Type
REMARK                         _______ _______ _______ _____ _____    ______ ____
ROOT
ATOM      1  O   UNL     1       2.045   9.415  17.521  0.00  0.00    +0.000 OA
ATOM      2  C   UNL     1       1.639   9.256  18.671  0.00  0.00    +0.000 C 
ATOM      3  N   UNL     1       0.936  10.252  19.362  0.00  0.00    +0.000 N 
ENDROOT
BRANCH   2   4
ATOM      4  C   UNL     1       1.835   7.934  19.406  0.00  0.00    +0.000 C 
BRANCH   4   5
ATOM      5  C   UNL     1       2.550   6.891  18.552  0.00  0.00    +0.000 C 
BRANCH   5   6
ATOM      6  C   UNL     1       2.151   5.490  18.947  0.00  0.00    +0.000 A 
ATOM      7  C   UNL     1       1.663   5.220  20.236  0.00  0.00    +0.000 A 
ATOM      8  C   UNL     1       1.292   3.923  20.601  0.00  0.00    +0.000 A 
ATOM      9  C   UNL     1       1.412   2.880  19.683  0.00  0.00    +0.000 A 
ATOM     10  C   UNL     1       1.909   3.144  18.414  0.00  0.00    +0.000 A 
ATOM     11  F   UNL     1       2.031   2.142  17.533  0.00  0.00    +0.000 F 
ATOM     12  C   UNL     1       2.281   4.431  18.039  0.00  0.00    +0.000 A 
ENDBRANCH   5   6
ENDBRANCH   4   5
ENDBRANCH   2   4
BRANCH   3  13
ATOM     13  C   UNL     1       0.513  10.033  20.743  0.00  0.00    +0.000 C 
BRANCH  13  14
ATOM     14  C   UNL     1      -0.008  11.145  21.641  0.00  0.00    +0.000 A 
ATOM     15  N   UNL     1       0.482  12.333  21.509  0.00  0.00    +0.000 NA
ATOM     16  C   UNL     1      -0.121  13.347  22.204  0.00  0.00    +0.000 A 
ATOM     17  C   UNL     1      -1.259  13.205  22.902  0.00  0.00    +0.000 A 
ATOM     18  C   UNL     1      -1.821  11.847  23.021  0.00  0.00    +0.000 A 
ATOM     19  O   UNL     1      -2.901  11.626  23.544  0.00  0.00    +0.000 OA
ATOM     20  N   UNL     1      -1.063  10.854  22.460  0.00  0.00    +0.000 N 
ATOM     21  C   UNL     1      -1.975  14.347  23.544  0.00  0.00    +0.000 C 
ATOM     22  O   UNL     1      -1.135  15.506  23.668  0.00  0.00    +0.000 OA
ATOM     23  C   UNL     1      -0.467  15.817  22.441  0.00  0.00    +0.000 C 
ATOM     24  C   UNL     1       0.511  14.705  22.072  0.00  0.00    +0.000 C 
ATOM     25  H   UNL     1      -1.441   9.920  22.523  0.00  0.00    +0.000 HD
ENDBRANCH  13  14
ENDBRANCH   3  13
BRANCH   3  26
ATOM     26  C   UNL     1       0.282  11.288  18.559  0.00  0.00    +0.000 C 
BRANCH  26  27
ATOM     27  C   UNL     1      -1.129  10.888  18.223  0.00  0.00    +0.000 A 
ATOM     28  C   UNL     1      -1.572   9.876  17.389  0.00  0.00    +0.000 A 
ATOM     29  C   UNL     1      -2.993   9.831  17.291  0.00  0.00    +0.000 A 
ATOM     30  C   UNL     1      -3.591  10.815  18.046  0.00  0.00    +0.000 A 
ATOM     31  S   UNL     1      -2.446  11.781  18.865  0.00  0.00    +0.000 S 
ENDBRANCH  26  27
ENDBRANCH   3  26
TORSDOF 7
ENDMDL
MODEL 8
REMARK VINA RESULT:      -7.8      1.031      1.354
REMARK  Name = 
REMARK  7 active torsions:
REMARK  status: ('A' for Active; 'I' for Inactive)
REMARK    1  A    between atoms: C_2  and  C_3
REMARK    2  A    between atoms: C_3  and  C_4
REMARK    3  A    between atoms: C_4  and  C_5
REMARK    4  A    between atoms: N_12  and  C_13
REMARK    5  A    between atoms: N_12  and  C_25
REMARK    6  A    between atoms: C_13  and  C_14
REMARK    7  A    between atoms: C_25  and  C_26
REMARK                            x       y       z     vdW  Elec       q    Type
REMARK                         _______ _______ _______ _____ _____    ______ ____
ROOT
ATOM      1  O   UNL     1       5.194   7.178  15.256  0.00  0.00    +0.000 OA
ATOM      2  C   UNL     1       5.284   6.730  16.397  0.00  0.00    +0.000 C 
ATOM      3  N   UNL     1       6.161   5.689  16.727  0.00  0.00    +0.000 N 
ENDROOT
BRANCH   2   4
ATOM      4  C   UNL     1       4.473   7.319  17.547  0.00  0.00    +0.000 C 
BRANCH   4   5
ATOM      5  C   UNL     1       2.969   7.216  17.314  0.00  0.00    +0.000 C 
BRANCH   5   6
ATOM      6  C   UNL     1       2.200   8.069  18.294  0.00  0.00    +0.000 A 
ATOM      7  C   UNL     1       2.079   7.682  19.638  0.00  0.00    +0.000 A 
ATOM      8  C   UNL     1       1.369   8.473  20.547  0.00  0.00    +0.000 A 
ATOM      9  C   UNL     1       0.766   9.654  20.118  0.00  0.00    +0.000 A 
ATOM     10  C   UNL     1       0.872  10.028  18.785  0.00  0.00    +0.000 A 
ATOM     11  F   UNL     1       0.288  11.160  18.370  0.00  0.00    +0.000 F 
ATOM     12  C   UNL     1       1.577   9.250  17.872  0.00  0.00    +0.000 A 
ENDBRANCH   5   6
ENDBRANCH   4   5
ENDBRANCH   2   4
BRANCH   3  13
ATOM     13  C   UNL     1       6.200   5.160  18.088  0.00  0.00    +0.000 C 
BRANCH  13  14
ATOM     14  C   UNL     1       5.109   4.274  18.669  0.00  0.00    +0.000 A 
ATOM     15  N   UNL     1       4.301   4.774  19.545  0.00  0.00    +0.000 NA
ATOM     16  C   UNL     1       3.226   4.013  19.922  0.00  0.00    +0.000 A 
ATOM     17  C   UNL     1       2.893   2.847  19.346  0.00  0.00    +0.000 A 
ATOM     18  C   UNL     1       3.812   2.302  18.329  0.00  0.00    +0.000 A 
ATOM     19  O   UNL     1       3.551   1.306  17.673  0.00  0.00    +0.000 OA
ATOM     20  N   UNL     1       4.961   3.023  18.139  0.00  0.00    +0.000 N 
ATOM     21  C   UNL     1       1.647   2.096  19.676  0.00  0.00    +0.000 C 
ATOM     22  O   UNL     1       1.068   2.535  20.917  0.00  0.00    +0.000 OA
ATOM     23  C   UNL     1       0.955   3.961  20.980  0.00  0.00    +0.000 C 
ATOM     24  C   UNL     1       2.340   4.603  20.985  0.00  0.00    +0.000 C 
ATOM     25  H   UNL     1       5.593   2.669  17.436  0.00  0.00    +0.000 HD
ENDBRANCH  13  14
ENDBRANCH   3  13
BRANCH   3  26
ATOM     26  C   UNL     1       7.294   5.459  15.827  0.00  0.00    +0.000 C 
BRANCH  26  27
ATOM     27  C   UNL     1       6.843   4.767  14.570  0.00  0.00    +0.000 A 
ATOM     28  C   UNL     1       5.805   3.868  14.395  0.00  0.00    +0.000 A 
ATOM     29  C   UNL     1       5.712   3.394  13.054  0.00  0.00    +0.000 A 
ATOM     30  C   UNL     1       6.687   3.938  12.249  0.00  0.00    +0.000 A 
ATOM     31  S   UNL     1       7.702   5.011  13.105  0.00  0.00    +0.000 S 
ENDBRANCH  26  27
ENDBRANCH   3  26
TORSDOF 7
ENDMDL
MODEL 9
REMARK VINA RESULT:      -7.8      3.660      6.989
REMARK  Name = 
REMARK  7 active torsions:
REMARK  status: ('A' for Active; 'I' for Inactive)
REMARK    1  A    between atoms: C_2  and  C_3
REMARK    2  A    between atoms: C_3  and  C_4
REMARK    3  A    between atoms: C_4  and  C_5
REMARK    4  A    between atoms: N_12  and  C_13
REMARK    5  A    between atoms: N_12  and  C_25
REMARK    6  A    between atoms: C_13  and  C_14
REMARK    7  A    between atoms: C_25  and  C_26
REMARK                            x       y       z     vdW  Elec       q    Type
REMARK                         _______ _______ _______ _____ _____    ______ ____
ROOT
ATOM      1  O   UNL     1       6.335   4.729  19.254  0.00  0.00    +0.000 OA
ATOM      2  C   UNL     1       5.621   5.463  18.572  0.00  0.00    +0.000 C 
ATOM      3  N   UNL     1       4.227   5.485  18.703  0.00  0.00    +0.000 N 
ENDROOT
BRANCH   2   4
ATOM      4  C   UNL     1       6.221   6.440  17.566  0.00  0.00    +0.000 C 
BRANCH   4   5
ATOM      5  C   UNL     1       7.376   5.830  16.777  0.00  0.00    +0.000 C 
BRANCH   5   6
ATOM      6  C   UNL     1       6.883   5.120  15.540  0.00  0.00    +0.000 A 
ATOM      7  C   UNL     1       5.778   4.256  15.603  0.00  0.00    +0.000 A 
ATOM      8  C   UNL     1       5.320   3.599  14.456  0.00  0.00    +0.000 A 
ATOM      9  C   UNL     1       5.968   3.793  13.237  0.00  0.00    +0.000 A 
ATOM     10  C   UNL     1       7.071   4.635  13.179  0.00  0.00    +0.000 A 
ATOM     11  F   UNL     1       7.699   4.818  12.010  0.00  0.00    +0.000 F 
ATOM     12  C   UNL     1       7.535   5.295  14.312  0.00  0.00    +0.000 A 
ENDBRANCH   5   6
ENDBRANCH   4   5
ENDBRANCH   2   4
BRANCH   3  13
ATOM     13  C   UNL     1       3.418   6.343  17.839  0.00  0.00    +0.000 C 
BRANCH  13  14
ATOM     14  C   UNL     1       2.543   7.469  18.368  0.00  0.00    +0.000 A 
ATOM     15  N   UNL     1       2.081   7.386  19.571  0.00  0.00    +0.000 NA
ATOM     16  C   UNL     1       1.443   8.486  20.082  0.00  0.00    +0.000 A 
ATOM     17  C   UNL     1       1.387   9.675  19.462  0.00  0.00    +0.000 A 
ATOM     18  C   UNL     1       1.944   9.761  18.099  0.00  0.00    +0.000 A 
ATOM     19  O   UNL     1       2.036  10.816  17.491  0.00  0.00    +0.000 OA
ATOM     20  N   UNL     1       2.394   8.576  17.580  0.00  0.00    +0.000 N 
ATOM     21  C   UNL     1       0.806  10.899  20.088  0.00  0.00    +0.000 C 
ATOM     22  O   UNL     1      -0.018  10.583  21.223  0.00  0.00    +0.000 OA
ATOM     23  C   UNL     1       0.639   9.689  22.127  0.00  0.00    +0.000 C 
ATOM     24  C   UNL     1       0.867   8.333  21.462  0.00  0.00    +0.000 C 
ATOM     25  H   UNL     1       2.790   8.622  16.653  0.00  0.00    +0.000 HD
ENDBRANCH  13  14
ENDBRANCH   3  13
BRANCH   3  26
ATOM     26  C   UNL     1       3.665   4.989  19.961  0.00  0.00    +0.000 C 
BRANCH  26  27
ATOM     27  C   UNL     1       2.598   3.962  19.698  0.00  0.00    +0.000 A 
ATOM     28  C   UNL     1       1.282   3.944  20.125  0.00  0.00    +0.000 A 
ATOM     29  C   UNL     1       0.585   2.774  19.703  0.00  0.00    +0.000 A 
ATOM     30  C   UNL     1       1.393   1.930  18.975  0.00  0.00    +0.000 A 
ATOM     31  S   UNL     1       2.977   2.547  18.803  0.00  0.00    +0.000 S 
ENDBRANCH  26  27
ENDBRANCH   3  26
TORSDOF 7
ENDMDL
