MODEL 1
REMARK VINA RESULT:      -9.4      0.000      0.000
REMARK  Name = 
REMARK  5 active torsions:
REMARK  status: ('A' for Active; 'I' for Inactive)
REMARK    1  A    between atoms: C_5  and  C_6
REMARK    2  A    between atoms: C_9  and  C_10
REMARK    3  A    between atoms: C_15  and  S_16
REMARK    4  A    between atoms: S_16  and  C_17
REMARK    5  A    between atoms: C_19  and  N_20
REMARK                            x       y       z     vdW  Elec       q    Type
REMARK                         _______ _______ _______ _____ _____    ______ ____
ROOT
ATOM      1  C   UNL     1       1.428   8.592  19.851  0.00  0.00    +0.000 A 
ATOM      2  C   UNL     1       1.872   7.349  20.325  0.00  0.00    +0.000 A 
ATOM      3  C   UNL     1       2.672   6.503  19.531  0.00  0.00    +0.000 A 
ATOM      4  C   UNL     1       3.103   6.861  18.233  0.00  0.00    +0.000 A 
ATOM      5  C   UNL     1       2.605   8.077  17.754  0.00  0.00    +0.000 A 
ATOM      6  C   UNL     1       1.772   8.896  18.529  0.00  0.00    +0.000 A 
ATOM      7  F   UNL     1       1.328  10.027  17.956  0.00  0.00    +0.000 F 
ENDROOT
BRANCH   1  12
ATOM      8  N   UNL     1      -1.538  11.968  23.191  0.00  0.00    +0.000 N 
ATOM      9  C   UNL     1      -0.756  11.177  22.353  0.00  0.00    +0.000 A 
ATOM     10  C   UNL     1      -0.879  11.202  20.967  0.00  0.00    +0.000 A 
ATOM     11  N   UNL     1      -0.157  10.404  20.129  0.00  0.00    +0.000 NA
ATOM     12  C   UNL     1       0.708   9.538  20.728  0.00  0.00    +0.000 A 
ATOM     13  C   UNL     1       0.813   9.528  22.123  0.00  0.00    +0.000 A 
ATOM     14  N   UNL     1       0.089  10.335  22.951  0.00  0.00    +0.000 NA
ATOM     15  H   UNL     1      -1.464  12.951  22.966  0.00  0.00    +0.000 HD
ATOM     16  H   UNL     1      -1.231  11.777  24.142  0.00  0.00    +0.000 HD
ENDBRANCH   1  12
BRANCH   4  17
ATOM     17  C   UNL     1       4.117   6.037  17.495  0.00  0.00    +0.000 A 
ATOM     18  C   UNL     1       5.322   6.681  17.106  0.00  0.00    +0.000 A 
ATOM     19  C   UNL     1       6.335   6.038  16.386  0.00  0.00    +0.000 A 
ATOM     20  C   UNL     1       6.180   4.718  16.007  0.00  0.00    +0.000 A 
ATOM     21  C   UNL     1       5.012   4.049  16.351  0.00  0.00    +0.000 A 
ATOM     22  C   UNL     1       3.986   4.680  17.092  0.00  0.00    +0.000 A 
BRANCH  22  23
ATOM     23  S   UNL     1       2.565   3.620  17.373  0.00  0.00    +0.000 S 
BRANCH  23  24
ATOM     24  C   UNL     1       2.861   2.996  19.017  0.00  0.00    +0.000 A 
ATOM     25  C   UNL     1       1.794   2.961  19.882  0.00  0.00    +0.000 A 
ATOM     26  C   UNL     1       2.078   2.633  21.184  0.00  0.00    +0.000 A 
ATOM     27  N   UNL     1       3.294   2.257  21.587  0.00  0.00    +0.000 NA
ATOM     28  C   UNL     1       4.247   2.241  20.644  0.00  0.00    +0.000 A 
ATOM     29  N   UNL     1       4.101   2.611  19.366  0.00  0.00    +0.000 NA
BRANCH  26  30
ATOM     30  N   UNL     1       1.060   2.631  22.137  0.00  0.00    +0.000 N 
ATOM     31  H   UNL     1       0.936   1.726  22.579  0.00  0.00    +0.000 HD
ATOM     32  H   UNL     1       0.210   2.964  21.688  0.00  0.00    +0.000 HD
ENDBRANCH  26  30
ENDBRANCH  23  24
ENDBRANCH  22  23
ENDBRANCH   4  17
TORSDOF 5
ENDMDL
MODEL 2
REMARK VINA RESULT:      -9.3      1.133      1.649
REMARK  Name = 
REMARK  5 active torsions:
REMARK  status: ('A' for Active; 'I' for Inactive)
REMARK    1  A    between atoms: C_5  and  C_6
REMARK    2  A    between atoms: C_9  and  C_10
REMARK    3  A    between atoms: C_15  and  S_16
REMARK    4  A    between atoms: S_16  and  C_17
REMARK    5  A    between atoms: C_19  and  N_20
REMARK                            x       y       z     vdW  Elec       q    Type
REMARK                         _______ _______ _______ _____ _____    ______ ____
ROOT
ATOM      1  C   UNL     1       1.034   9.356  19.987  0.00  0.00    +0.000 A 
ATOM      2  C   UNL     1       1.564   8.205  20.587  0.00  0.00    +0.000 A 
ATOM      3  C   UNL     1       2.267   7.242  19.835  0.00  0.00    +0.000 A 
ATOM      4  C   UNL     1       2.510   7.387  18.450  0.00  0.00    +0.000 A 
ATOM      5  C   UNL     1       1.926   8.511  17.857  0.00  0.00    +0.000 A 
ATOM      6  C   UNL     1       1.189   9.445  18.599  0.00  0.00    +0.000 A 
ATOM      7  F   UNL     1       0.647  10.469  17.920  0.00  0.00    +0.000 F 
ENDROOT
BRANCH   1  12
ATOM      8  N   UNL     1      -1.103  13.349  23.280  0.00  0.00    +0.000 N 
ATOM      9  C   UNL     1      -0.617  12.370  22.416  0.00  0.00    +0.000 A 
ATOM     10  C   UNL     1      -1.129  11.077  22.383  0.00  0.00    +0.000 A 
ATOM     11  N   UNL     1      -0.640  10.090  21.578  0.00  0.00    +0.000 NA
ATOM     12  C   UNL     1       0.419  10.431  20.793  0.00  0.00    +0.000 A 
ATOM     13  C   UNL     1       0.919  11.737  20.844  0.00  0.00    +0.000 A 
ATOM     14  N   UNL     1       0.419  12.718  21.649  0.00  0.00    +0.000 NA
ATOM     15  H   UNL     1      -2.098  13.492  23.174  0.00  0.00    +0.000 HD
ATOM     16  H   UNL     1      -0.579  14.198  23.083  0.00  0.00    +0.000 HD
ENDBRANCH   1  12
BRANCH   4  17
ATOM     17  C   UNL     1       3.432   6.455  17.720  0.00  0.00    +0.000 A 
ATOM     18  C   UNL     1       4.633   7.004  17.195  0.00  0.00    +0.000 A 
ATOM     19  C   UNL     1       5.563   6.253  16.467  0.00  0.00    +0.000 A 
ATOM     20  C   UNL     1       5.324   4.915  16.216  0.00  0.00    +0.000 A 
ATOM     21  C   UNL     1       4.156   4.336  16.697  0.00  0.00    +0.000 A 
ATOM     22  C   UNL     1       3.214   5.076  17.447  0.00  0.00    +0.000 A 
BRANCH  22  23
ATOM     23  S   UNL     1       1.773   4.116  17.916  0.00  0.00    +0.000 S 
BRANCH  23  24
ATOM     24  C   UNL     1       2.237   3.465  19.509  0.00  0.00    +0.000 A 
ATOM     25  C   UNL     1       3.502   2.943  19.636  0.00  0.00    +0.000 A 
ATOM     26  C   UNL     1       3.780   2.302  20.818  0.00  0.00    +0.000 A 
ATOM     27  N   UNL     1       2.925   2.271  21.842  0.00  0.00    +0.000 NA
ATOM     28  C   UNL     1       1.750   2.886  21.646  0.00  0.00    +0.000 A 
ATOM     29  N   UNL     1       1.345   3.475  20.515  0.00  0.00    +0.000 NA
BRANCH  26  30
ATOM     30  N   UNL     1       5.022   1.696  21.002  0.00  0.00    +0.000 N 
ATOM     31  H   UNL     1       5.311   1.678  21.975  0.00  0.00    +0.000 HD
ATOM     32  H   UNL     1       5.694   2.172  20.407  0.00  0.00    +0.000 HD
ENDBRANCH  26  30
ENDBRANCH  23  24
ENDBRANCH  22  23
ENDBRANCH   4  17
TORSDOF 5
ENDMDL
MODEL 3
REMARK VINA RESULT:      -9.2      2.878      4.336
REMARK  Name = 
REMARK  5 active torsions:
REMARK  status: ('A' for Active; 'I' for Inactive)
REMARK    1  A    between atoms: C_5  and  C_6
REMARK    2  A    between atoms: C_9  and  C_10
REMARK    3  A    between atoms: C_15  and  S_16
REMARK    4  A    between atoms: S_16  and  C_17
REMARK    5  A    between atoms: C_19  and  N_20
REMARK                            x       y       z     vdW  Elec       q    Type
REMARK                         _______ _______ _______ _____ _____    ______ ____
ROOT
ATOM      1  C   UNL     1       1.499   9.232  18.970  0.00  0.00    +0.000 A 
ATOM      2  C   UNL     1       2.037   8.584  17.848  0.00  0.00    +0.000 A 
ATOM      3  C   UNL     1       2.564   7.280  17.935  0.00  0.00    +0.000 A 
ATOM      4  C   UNL     1       2.556   6.535  19.136  0.00  0.00    +0.000 A 
ATOM      5  C   UNL     1       2.069   7.216  20.257  0.00  0.00    +0.000 A 
ATOM      6  C   UNL     1       1.587   8.530  20.177  0.00  0.00    +0.000 A 
ATOM      7  F   UNL     1       1.173   9.096  21.322  0.00  0.00    +0.000 F 
ENDROOT
BRANCH   1  12
ATOM      8  N   UNL     1      -1.078  14.201  18.844  0.00  0.00    +0.000 N 
ATOM      9  C   UNL     1      -0.443  12.962  18.810  0.00  0.00    +0.000 A 
ATOM     10  C   UNL     1      -1.142  11.760  18.827  0.00  0.00    +0.000 A 
ATOM     11  N   UNL     1      -0.539  10.536  18.840  0.00  0.00    +0.000 NA
ATOM     12  C   UNL     1       0.822  10.540  18.853  0.00  0.00    +0.000 A 
ATOM     13  C   UNL     1       1.504  11.762  18.838  0.00  0.00    +0.000 A 
ATOM     14  N   UNL     1       0.892  12.981  18.820  0.00  0.00    +0.000 NA
ATOM     15  H   UNL     1      -1.749  14.307  18.094  0.00  0.00    +0.000 HD
ATOM     16  H   UNL     1      -0.347  14.906  18.796  0.00  0.00    +0.000 HD
ENDBRANCH   1  12
BRANCH   4  17
ATOM     17  C   UNL     1       2.932   5.083  19.154  0.00  0.00    +0.000 A 
ATOM     18  C   UNL     1       2.475   4.303  20.250  0.00  0.00    +0.000 A 
ATOM     19  C   UNL     1       2.782   2.947  20.405  0.00  0.00    +0.000 A 
ATOM     20  C   UNL     1       3.577   2.309  19.471  0.00  0.00    +0.000 A 
ATOM     21  C   UNL     1       4.061   3.033  18.388  0.00  0.00    +0.000 A 
ATOM     22  C   UNL     1       3.748   4.400  18.210  0.00  0.00    +0.000 A 
BRANCH  22  23
ATOM     23  S   UNL     1       4.525   5.118  16.760  0.00  0.00    +0.000 S 
BRANCH  23  24
ATOM     24  C   UNL     1       6.007   5.848  17.431  0.00  0.00    +0.000 A 
ATOM     25  C   UNL     1       6.588   5.224  18.509  0.00  0.00    +0.000 A 
ATOM     26  C   UNL     1       7.628   5.890  19.108  0.00  0.00    +0.000 A 
ATOM     27  N   UNL     1       8.135   7.026  18.624  0.00  0.00    +0.000 NA
ATOM     28  C   UNL     1       7.550   7.506  17.518  0.00  0.00    +0.000 A 
ATOM     29  N   UNL     1       6.488   6.983  16.894  0.00  0.00    +0.000 NA
BRANCH  26  30
ATOM     30  N   UNL     1       8.234   5.351  20.242  0.00  0.00    +0.000 N 
ATOM     31  H   UNL     1       9.235   5.520  20.272  0.00  0.00    +0.000 HD
ATOM     32  H   UNL     1       8.007   4.361  20.278  0.00  0.00    +0.000 HD
ENDBRANCH  26  30
ENDBRANCH  23  24
ENDBRANCH  22  23
ENDBRANCH   4  17
TORSDOF 5
ENDMDL
MODEL 4
REMARK VINA RESULT:      -9.1      2.992      4.534
REMARK  Name = 
REMARK  5 active torsions:
REMARK  status: ('A' for Active; 'I' for Inactive)
REMARK    1  A    between atoms: C_5  and  C_6
REMARK    2  A    between atoms: C_9  and  C_10
REMARK    3  A    between atoms: C_15  and  S_16
REMARK    4  A    between atoms: S_16  and  C_17
REMARK    5  A    between atoms: C_19  and  N_20
REMARK                            x       y       z     vdW  Elec       q    Type
REMARK                         _______ _______ _______ _____ _____    ______ ____
ROOT
ATOM      1  C   UNL     1       1.557   9.024  18.998  0.00  0.00    +0.000 A 
ATOM      2  C   UNL     1       2.033   8.418  17.826  0.00  0.00    +0.000 A 
ATOM      3  C   UNL     1       2.426   7.064  17.807  0.00  0.00    +0.000 A 
ATOM      4  C   UNL     1       2.337   6.230  18.945  0.00  0.00    +0.000 A 
ATOM      5  C   UNL     1       1.914   6.864  20.118  0.00  0.00    +0.000 A 
ATOM      6  C   UNL     1       1.567   8.222  20.145  0.00  0.00    +0.000 A 
ATOM      7  F   UNL     1       1.205   8.734  21.332  0.00  0.00    +0.000 F 
ENDROOT
BRANCH   1  12
ATOM      8  N   UNL     1      -0.564  14.195  18.653  0.00  0.00    +0.000 N 
ATOM      9  C   UNL     1      -0.017  12.922  18.800  0.00  0.00    +0.000 A 
ATOM     10  C   UNL     1       1.322  12.646  18.542  0.00  0.00    +0.000 A 
ATOM     11  N   UNL     1       1.868  11.400  18.635  0.00  0.00    +0.000 NA
ATOM     12  C   UNL     1       1.015  10.399  18.988  0.00  0.00    +0.000 A 
ATOM     13  C   UNL     1      -0.328  10.700  19.240  0.00  0.00    +0.000 A 
ATOM     14  N   UNL     1      -0.863  11.951  19.149  0.00  0.00    +0.000 NA
ATOM     15  H   UNL     1      -0.071  14.888  19.200  0.00  0.00    +0.000 HD
ATOM     16  H   UNL     1      -1.541  14.126  18.928  0.00  0.00    +0.000 HD
ENDBRANCH   1  12
BRANCH   4  17
ATOM     17  C   UNL     1       2.566   4.750  18.845  0.00  0.00    +0.000 A 
ATOM     18  C   UNL     1       1.437   3.932  18.571  0.00  0.00    +0.000 A 
ATOM     19  C   UNL     1       1.506   2.537  18.485  0.00  0.00    +0.000 A 
ATOM     20  C   UNL     1       2.713   1.893  18.684  0.00  0.00    +0.000 A 
ATOM     21  C   UNL     1       3.844   2.649  18.969  0.00  0.00    +0.000 A 
ATOM     22  C   UNL     1       3.793   4.060  19.045  0.00  0.00    +0.000 A 
BRANCH  22  23
ATOM     23  S   UNL     1       5.372   4.801  19.467  0.00  0.00    +0.000 S 
BRANCH  23  24
ATOM     24  C   UNL     1       6.050   5.214  17.871  0.00  0.00    +0.000 A 
ATOM     25  C   UNL     1       5.838   4.326  16.843  0.00  0.00    +0.000 A 
ATOM     26  C   UNL     1       6.504   4.583  15.671  0.00  0.00    +0.000 A 
ATOM     27  N   UNL     1       7.234   5.683  15.479  0.00  0.00    +0.000 NA
ATOM     28  C   UNL     1       7.307   6.529  16.518  0.00  0.00    +0.000 A 
ATOM     29  N   UNL     1       6.762   6.346  17.726  0.00  0.00    +0.000 NA
BRANCH  26  30
ATOM     30  N   UNL     1       6.386   3.699  14.600  0.00  0.00    +0.000 N 
ATOM     31  H   UNL     1       7.250   3.205  14.400  0.00  0.00    +0.000 HD
ATOM     32  H   UNL     1       6.044   4.222  13.797  0.00  0.00    +0.000 HD
ENDBRANCH  26  30
ENDBRANCH  23  24
ENDBRANCH  22  23
ENDBRANCH   4  17
TORSDOF 5
ENDMDL
MODEL 5
REMARK VINA RESULT:      -9.1      2.851      4.261
REMARK  Name = 
REMARK  5 active torsions:
REMARK  status: ('A' for Active; 'I' for Inactive)
REMARK    1  A    between atoms: C_5  and  C_6
REMARK    2  A    between atoms: C_9  and  C_10
REMARK    3  A    between atoms: C_15  and  S_16
REMARK    4  A    between atoms: S_16  and  C_17
REMARK    5  A    between atoms: C_19  and  N_20
REMARK                            x       y       z     vdW  Elec       q    Type
REMARK                         _______ _______ _______ _____ _____    ______ ____
ROOT
ATOM      1  C   UNL     1       1.420   9.267  19.095  0.00  0.00    +0.000 A 
ATOM      2  C   UNL     1       1.899   8.935  17.819  0.00  0.00    +0.000 A 
ATOM      3  C   UNL     1       2.517   7.694  17.565  0.00  0.00    +0.000 A 
ATOM      4  C   UNL     1       2.663   6.700  18.560  0.00  0.00    +0.000 A 
ATOM      5  C   UNL     1       2.232   7.068  19.839  0.00  0.00    +0.000 A 
ATOM      6  C   UNL     1       1.659   8.321  20.098  0.00  0.00    +0.000 A 
ATOM      7  F   UNL     1       1.311   8.579  21.369  0.00  0.00    +0.000 F 
ENDROOT
BRANCH   1  12
ATOM      8  N   UNL     1      -1.539  13.984  19.676  0.00  0.00    +0.000 N 
ATOM      9  C   UNL     1      -0.790  12.813  19.596  0.00  0.00    +0.000 A 
ATOM     10  C   UNL     1       0.588  12.816  19.404  0.00  0.00    +0.000 A 
ATOM     11  N   UNL     1       1.336  11.682  19.277  0.00  0.00    +0.000 NA
ATOM     12  C   UNL     1       0.651  10.506  19.331  0.00  0.00    +0.000 A 
ATOM     13  C   UNL     1      -0.735  10.528  19.522  0.00  0.00    +0.000 A 
ATOM     14  N   UNL     1      -1.473  11.668  19.653  0.00  0.00    +0.000 NA
ATOM     15  H   UNL     1      -1.202  14.605  20.399  0.00  0.00    +0.000 HD
ATOM     16  H   UNL     1      -2.503  13.704  19.843  0.00  0.00    +0.000 HD
ENDBRANCH   1  12
BRANCH   4  17
ATOM     17  C   UNL     1       3.134   5.318  18.215  0.00  0.00    +0.000 A 
ATOM     18  C   UNL     1       2.609   4.240  18.977  0.00  0.00    +0.000 A 
ATOM     19  C   UNL     1       2.989   2.908  18.781  0.00  0.00    +0.000 A 
ATOM     20  C   UNL     1       3.929   2.594  17.817  0.00  0.00    +0.000 A 
ATOM     21  C   UNL     1       4.483   3.615  17.056  0.00  0.00    +0.000 A 
ATOM     22  C   UNL     1       4.099   4.965  17.231  0.00  0.00    +0.000 A 
BRANCH  22  23
ATOM     23  S   UNL     1       4.987   6.097  16.159  0.00  0.00    +0.000 S 
BRANCH  23  24
ATOM     24  C   UNL     1       6.391   6.561  17.155  0.00  0.00    +0.000 A 
ATOM     25  C   UNL     1       6.797   5.678  18.127  0.00  0.00    +0.000 A 
ATOM     26  C   UNL     1       7.771   6.126  18.986  0.00  0.00    +0.000 A 
ATOM     27  N   UNL     1       8.381   7.303  18.837  0.00  0.00    +0.000 NA
ATOM     28  C   UNL     1       7.970   8.052  17.803  0.00  0.00    +0.000 A 
ATOM     29  N   UNL     1       6.984   7.750  16.951  0.00  0.00    +0.000 NA
BRANCH  26  30
ATOM     30  N   UNL     1       8.197   5.312  20.034  0.00  0.00    +0.000 N 
ATOM     31  H   UNL     1       7.680   5.473  20.893  0.00  0.00    +0.000 HD
ATOM     32  H   UNL     1       9.197   5.450  20.152  0.00  0.00    +0.000 HD
ENDBRANCH  26  30
ENDBRANCH  23  24
ENDBRANCH  22  23
ENDBRANCH   4  17
TORSDOF 5
ENDMDL
MODEL 6
REMARK VINA RESULT:      -9.1      3.604      8.438
REMARK  Name = 
REMARK  5 active torsions:
REMARK  status: ('A' for Active; 'I' for Inactive)
REMARK    1  A    between atoms: C_5  and  C_6
REMARK    2  A    between atoms: C_9  and  C_10
REMARK    3  A    between atoms: C_15  and  S_16
REMARK    4  A    between atoms: S_16  and  C_17
REMARK    5  A    between atoms: C_19  and  N_20
REMARK                            x       y       z     vdW  Elec       q    Type
REMARK                         _______ _______ _______ _____ _____    ______ ____
ROOT
ATOM      1  C   UNL     1       2.590   6.833  19.094  0.00  0.00    +0.000 A 
ATOM      2  C   UNL     1       2.766   7.526  17.887  0.00  0.00    +0.000 A 
ATOM      3  C   UNL     1       2.285   8.839  17.716  0.00  0.00    +0.000 A 
ATOM      4  C   UNL     1       1.630   9.550  18.748  0.00  0.00    +0.000 A 
ATOM      5  C   UNL     1       1.413   8.826  19.925  0.00  0.00    +0.000 A 
ATOM      6  C   UNL     1       1.852   7.504  20.077  0.00  0.00    +0.000 A 
ATOM      7  F   UNL     1       1.561   6.895  21.238  0.00  0.00    +0.000 F 
ENDROOT
BRANCH   1  12
ATOM      8  N   UNL     1       4.932   1.778  19.649  0.00  0.00    +0.000 N 
ATOM      9  C   UNL     1       4.348   3.040  19.577  0.00  0.00    +0.000 A 
ATOM     10  C   UNL     1       2.971   3.233  19.619  0.00  0.00    +0.000 A 
ATOM     11  N   UNL     1       2.375   4.455  19.504  0.00  0.00    +0.000 NA
ATOM     12  C   UNL     1       3.213   5.513  19.323  0.00  0.00    +0.000 A 
ATOM     13  C   UNL     1       4.594   5.295  19.281  0.00  0.00    +0.000 A 
ATOM     14  N   UNL     1       5.180   4.069  19.402  0.00  0.00    +0.000 NA
ATOM     15  H   UNL     1       4.649   1.273  20.478  0.00  0.00    +0.000 HD
ATOM     16  H   UNL     1       5.939   1.921  19.623  0.00  0.00    +0.000 HD
ENDBRANCH   1  12
BRANCH   4  17
ATOM     17  C   UNL     1       1.314  11.010  18.608  0.00  0.00    +0.000 A 
ATOM     18  C   UNL     1       2.382  11.879  18.261  0.00  0.00    +0.000 A 
ATOM     19  C   UNL     1       2.230  13.264  18.130  0.00  0.00    +0.000 A 
ATOM     20  C   UNL     1       0.997  13.846  18.357  0.00  0.00    +0.000 A 
ATOM     21  C   UNL     1      -0.076  13.040  18.714  0.00  0.00    +0.000 A 
ATOM     22  C   UNL     1       0.057  11.637  18.835  0.00  0.00    +0.000 A 
BRANCH  22  23
ATOM     23  S   UNL     1      -1.459  10.825  19.345  0.00  0.00    +0.000 S 
BRANCH  23  24
ATOM     24  C   UNL     1      -2.446  10.869  17.861  0.00  0.00    +0.000 A 
ATOM     25  C   UNL     1      -3.691  11.445  17.946  0.00  0.00    +0.000 A 
ATOM     26  C   UNL     1      -4.494  11.321  16.839  0.00  0.00    +0.000 A 
ATOM     27  N   UNL     1      -4.073  10.776  15.697  0.00  0.00    +0.000 NA
ATOM     28  C   UNL     1      -2.811  10.321  15.693  0.00  0.00    +0.000 A 
ATOM     29  N   UNL     1      -1.967  10.322  16.730  0.00  0.00    +0.000 NA
BRANCH  26  30
ATOM     30  N   UNL     1      -5.792  11.829  16.865  0.00  0.00    +0.000 N 
ATOM     31  H   UNL     1      -6.489  11.143  16.592  0.00  0.00    +0.000 HD
ATOM     32  H   UNL     1      -5.816  12.660  16.280  0.00  0.00    +0.000 HD
ENDBRANCH  26  30
ENDBRANCH  23  24
ENDBRANCH  22  23
ENDBRANCH   4  17
TORSDOF 5
ENDMDL
MODEL 7
REMARK VINA RESULT:      -9.1      3.541      8.449
REMARK  Name = 
REMARK  5 active torsions:
REMARK  status: ('A' for Active; 'I' for Inactive)
REMARK    1  A    between atoms: C_5  and  C_6
REMARK    2  A    between atoms: C_9  and  C_10
REMARK    3  A    between atoms: C_15  and  S_16
REMARK    4  A    between atoms: S_16  and  C_17
REMARK    5  A    between atoms: C_19  and  N_20
REMARK                            x       y       z     vdW  Elec       q    Type
REMARK                         _______ _______ _______ _____ _____    ______ ____
ROOT
ATOM      1  C   UNL     1       2.588   6.766  19.156  0.00  0.00    +0.000 A 
ATOM      2  C   UNL     1       2.726   7.444  17.936  0.00  0.00    +0.000 A 
ATOM      3  C   UNL     1       2.222   8.749  17.759  0.00  0.00    +0.000 A 
ATOM      4  C   UNL     1       1.582   9.464  18.796  0.00  0.00    +0.000 A 
ATOM      5  C   UNL     1       1.402   8.753  19.988  0.00  0.00    +0.000 A 
ATOM      6  C   UNL     1       1.864   7.439  20.147  0.00  0.00    +0.000 A 
ATOM      7  F   UNL     1       1.609   6.842  21.322  0.00  0.00    +0.000 F 
ENDROOT
BRANCH   1  12
ATOM      8  N   UNL     1       5.000   1.745  19.725  0.00  0.00    +0.000 N 
ATOM      9  C   UNL     1       4.403   3.001  19.648  0.00  0.00    +0.000 A 
ATOM     10  C   UNL     1       3.031   3.190  19.785  0.00  0.00    +0.000 A 
ATOM     11  N   UNL     1       2.420   4.404  19.668  0.00  0.00    +0.000 NA
ATOM     12  C   UNL     1       3.235   5.458  19.387  0.00  0.00    +0.000 A 
ATOM     13  C   UNL     1       4.611   5.244  19.252  0.00  0.00    +0.000 A 
ATOM     14  N   UNL     1       5.213   4.026  19.375  0.00  0.00    +0.000 NA
ATOM     15  H   UNL     1       4.781   1.270  20.590  0.00  0.00    +0.000 HD
ATOM     16  H   UNL     1       6.001   1.891  19.619  0.00  0.00    +0.000 HD
ENDBRANCH   1  12
BRANCH   4  17
ATOM     17  C   UNL     1       1.241  10.917  18.645  0.00  0.00    +0.000 A 
ATOM     18  C   UNL     1       2.278  11.790  18.222  0.00  0.00    +0.000 A 
ATOM     19  C   UNL     1       2.103  13.171  18.072  0.00  0.00    +0.000 A 
ATOM     20  C   UNL     1       0.878  13.745  18.355  0.00  0.00    +0.000 A 
ATOM     21  C   UNL     1      -0.165  12.934  18.787  0.00  0.00    +0.000 A 
ATOM     22  C   UNL     1      -0.008  11.536  18.929  0.00  0.00    +0.000 A 
BRANCH  22  23
ATOM     23  S   UNL     1      -1.485  10.719  19.539  0.00  0.00    +0.000 S 
BRANCH  23  24
ATOM     24  C   UNL     1      -2.611  10.867  18.166  0.00  0.00    +0.000 A 
ATOM     25  C   UNL     1      -2.237  10.290  16.976  0.00  0.00    +0.000 A 
ATOM     26  C   UNL     1      -3.039  10.555  15.893  0.00  0.00    +0.000 A 
ATOM     27  N   UNL     1      -4.181  11.239  15.989  0.00  0.00    +0.000 NA
ATOM     28  C   UNL     1      -4.498  11.685  17.213  0.00  0.00    +0.000 A 
ATOM     29  N   UNL     1      -3.759  11.550  18.320  0.00  0.00    +0.000 NA
BRANCH  26  30
ATOM     30  N   UNL     1      -2.697  10.054  14.638  0.00  0.00    +0.000 N 
ATOM     31  H   UNL     1      -2.133  10.700  14.096  0.00  0.00    +0.000 HD
ATOM     32  H   UNL     1      -3.556   9.792  14.160  0.00  0.00    +0.000 HD
ENDBRANCH  26  30
ENDBRANCH  23  24
ENDBRANCH  22  23
ENDBRANCH   4  17
TORSDOF 5
ENDMDL
MODEL 8
REMARK VINA RESULT:      -9.1      2.691      4.590
REMARK  Name = 
REMARK  5 active torsions:
REMARK  status: ('A' for Active; 'I' for Inactive)
REMARK    1  A    between atoms: C_5  and  C_6
REMARK    2  A    between atoms: C_9  and  C_10
REMARK    3  A    between atoms: C_15  and  S_16
REMARK    4  A    between atoms: S_16  and  C_17
REMARK    5  A    between atoms: C_19  and  N_20
REMARK                            x       y       z     vdW  Elec       q    Type
REMARK                         _______ _______ _______ _____ _____    ______ ____
ROOT
ATOM      1  C   UNL     1       1.455   9.297  19.069  0.00  0.00    +0.000 A 
ATOM      2  C   UNL     1       1.959   8.472  18.054  0.00  0.00    +0.000 A 
ATOM      3  C   UNL     1       2.388   7.156  18.321  0.00  0.00    +0.000 A 
ATOM      4  C   UNL     1       2.309   6.577  19.608  0.00  0.00    +0.000 A 
ATOM      5  C   UNL     1       1.857   7.431  20.620  0.00  0.00    +0.000 A 
ATOM      6  C   UNL     1       1.473   8.754  20.359  0.00  0.00    +0.000 A 
ATOM      7  F   UNL     1       1.086   9.493  21.411  0.00  0.00    +0.000 F 
ENDROOT
BRANCH   1  12
ATOM      8  N   UNL     1      -0.783  14.362  18.240  0.00  0.00    +0.000 N 
ATOM      9  C   UNL     1      -0.224  13.094  18.381  0.00  0.00    +0.000 A 
ATOM     10  C   UNL     1      -0.993  11.935  18.410  0.00  0.00    +0.000 A 
ATOM     11  N   UNL     1      -0.472  10.687  18.593  0.00  0.00    +0.000 NA
ATOM     12  C   UNL     1       0.877  10.623  18.768  0.00  0.00    +0.000 A 
ATOM     13  C   UNL     1       1.629  11.803  18.738  0.00  0.00    +0.000 A 
ATOM     14  N   UNL     1       1.099  13.045  18.550  0.00  0.00    +0.000 NA
ATOM     15  H   UNL     1      -1.355  14.438  17.410  0.00  0.00    +0.000 HD
ATOM     16  H   UNL     1      -0.009  15.022  18.224  0.00  0.00    +0.000 HD
ENDBRANCH   1  12
BRANCH   4  17
ATOM     17  C   UNL     1       2.578   5.116  19.822  0.00  0.00    +0.000 A 
ATOM     18  C   UNL     1       2.055   4.523  21.002  0.00  0.00    +0.000 A 
ATOM     19  C   UNL     1       2.261   3.180  21.338  0.00  0.00    +0.000 A 
ATOM     20  C   UNL     1       3.015   2.370  20.511  0.00  0.00    +0.000 A 
ATOM     21  C   UNL     1       3.559   2.908  19.351  0.00  0.00    +0.000 A 
ATOM     22  C   UNL     1       3.349   4.258  18.990  0.00  0.00    +0.000 A 
BRANCH  22  23
ATOM     23  S   UNL     1       4.189   4.722  17.473  0.00  0.00    +0.000 S 
BRANCH  23  24
ATOM     24  C   UNL     1       5.676   5.503  18.072  0.00  0.00    +0.000 A 
ATOM     25  C   UNL     1       6.103   6.635  17.420  0.00  0.00    +0.000 A 
ATOM     26  C   UNL     1       7.331   7.123  17.791  0.00  0.00    +0.000 A 
ATOM     27  N   UNL     1       8.039   6.610  18.799  0.00  0.00    +0.000 NA
ATOM     28  C   UNL     1       7.492   5.559  19.427  0.00  0.00    +0.000 A 
ATOM     29  N   UNL     1       6.341   4.957  19.105  0.00  0.00    +0.000 NA
BRANCH  26  30
ATOM     30  N   UNL     1       7.861   8.234  17.137  0.00  0.00    +0.000 N 
ATOM     31  H   UNL     1       7.264   9.052  17.205  0.00  0.00    +0.000 HD
ATOM     32  H   UNL     1       8.051   7.971  16.174  0.00  0.00    +0.000 HD
ENDBRANCH  26  30
ENDBRANCH  23  24
ENDBRANCH  22  23
ENDBRANCH   4  17
TORSDOF 5
ENDMDL
MODEL 9
REMARK VINA RESULT:      -9.1      1.344      2.146
REMARK  Name = 
REMARK  5 active torsions:
REMARK  status: ('A' for Active; 'I' for Inactive)
REMARK    1  A    between atoms: C_5  and  C_6
REMARK    2  A    between atoms: C_9  and  C_10
REMARK    3  A    between atoms: C_15  and  S_16
REMARK    4  A    between atoms: S_16  and  C_17
REMARK    5  A    between atoms: C_19  and  N_20
REMARK                            x       y       z     vdW  Elec       q    Type
REMARK                         _______ _______ _______ _____ _____    ______ ____
ROOT
ATOM      1  C   UNL     1       1.164   9.285  19.466  0.00  0.00    +0.000 A 
ATOM      2  C   UNL     1       1.681   9.463  18.175  0.00  0.00    +0.000 A 
ATOM      3  C   UNL     1       2.546   8.515  17.592  0.00  0.00    +0.000 A 
ATOM      4  C   UNL     1       2.919   7.320  18.249  0.00  0.00    +0.000 A 
ATOM      5  C   UNL     1       2.441   7.185  19.557  0.00  0.00    +0.000 A 
ATOM      6  C   UNL     1       1.617   8.151  20.151  0.00  0.00    +0.000 A 
ATOM      7  F   UNL     1       1.244   7.933  21.422  0.00  0.00    +0.000 F 
ENDROOT
BRANCH   1  12
ATOM      8  N   UNL     1      -2.499  13.012  21.476  0.00  0.00    +0.000 N 
ATOM      9  C   UNL     1      -1.622  12.037  21.006  0.00  0.00    +0.000 A 
ATOM     10  C   UNL     1      -0.542  11.577  21.751  0.00  0.00    +0.000 A 
ATOM     11  N   UNL     1       0.356  10.657  21.292  0.00  0.00    +0.000 NA
ATOM     12  C   UNL     1       0.151  10.204  20.024  0.00  0.00    +0.000 A 
ATOM     13  C   UNL     1      -0.941  10.683  19.293  0.00  0.00    +0.000 A 
ATOM     14  N   UNL     1      -1.835  11.599  19.763  0.00  0.00    +0.000 NA
ATOM     15  H   UNL     1      -2.915  12.756  22.362  0.00  0.00    +0.000 HD
ATOM     16  H   UNL     1      -3.204  13.143  20.755  0.00  0.00    +0.000 HD
ENDBRANCH   1  12
BRANCH   4  17
ATOM     17  C   UNL     1       3.669   6.238  17.530  0.00  0.00    +0.000 A 
ATOM     18  C   UNL     1       4.897   6.596  16.911  0.00  0.00    +0.000 A 
ATOM     19  C   UNL     1       5.678   5.692  16.183  0.00  0.00    +0.000 A 
ATOM     20  C   UNL     1       5.256   4.385  16.028  0.00  0.00    +0.000 A 
ATOM     21  C   UNL     1       4.054   3.990  16.602  0.00  0.00    +0.000 A 
ATOM     22  C   UNL     1       3.261   4.887  17.354  0.00  0.00    +0.000 A 
BRANCH  22  23
ATOM     23  S   UNL     1       1.739   4.149  17.955  0.00  0.00    +0.000 S 
BRANCH  23  24
ATOM     24  C   UNL     1       2.222   3.491  19.540  0.00  0.00    +0.000 A 
ATOM     25  C   UNL     1       3.483   2.955  19.645  0.00  0.00    +0.000 A 
ATOM     26  C   UNL     1       3.773   2.309  20.822  0.00  0.00    +0.000 A 
ATOM     27  N   UNL     1       2.935   2.286  21.860  0.00  0.00    +0.000 NA
ATOM     28  C   UNL     1       1.763   2.914  21.683  0.00  0.00    +0.000 A 
ATOM     29  N   UNL     1       1.347   3.510  20.560  0.00  0.00    +0.000 NA
BRANCH  26  30
ATOM     30  N   UNL     1       5.011   1.689  20.985  0.00  0.00    +0.000 N 
ATOM     31  H   UNL     1       4.962   0.861  21.570  0.00  0.00    +0.000 HD
ATOM     32  H   UNL     1       5.663   2.381  21.345  0.00  0.00    +0.000 HD
ENDBRANCH  26  30
ENDBRANCH  23  24
ENDBRANCH  22  23
ENDBRANCH   4  17
TORSDOF 5
ENDMDL
