MODEL 1
REMARK VINA RESULT:      -7.9      0.000      0.000
REMARK  Name = 
REMARK  10 active torsions:
REMARK  status: ('A' for Active; 'I' for Inactive)
REMARK    1  A    between atoms: C_1  and  O_2
REMARK    2  A    between atoms: O_2  and  C_3
REMARK    3  A    between atoms: C_5  and  C_6
REMARK    4  A    between atoms: C_7  and  C_8
REMARK    5  A    between atoms: C_13  and  C_14
REMARK    6  A    between atoms: C_15  and  C_16
REMARK    7  A    between atoms: C_19  and  O_20
REMARK    8  A    between atoms: C_21  and  O_22
REMARK    9  A    between atoms: O_22  and  C_23
REMARK   10  A    between atoms: C_28  and  O_29
REMARK                            x       y       z     vdW  Elec       q    Type
REMARK                         _______ _______ _______ _____ _____    ______ ____
ROOT
ATOM      1  C   UNL     1       2.251   6.590  19.923  0.00  0.00    +0.000 A 
ATOM      2  C   UNL     1       1.936   5.357  20.506  0.00  0.00    +0.000 A 
ATOM      3  C   UNL     1       2.406   4.177  19.934  0.00  0.00    +0.000 A 
ATOM      4 BR   UNL     1       1.977   2.514  20.727  0.00  0.00    +0.000 Br
ATOM      5  C   UNL     1       3.188   4.205  18.780  0.00  0.00    +0.000 A 
ATOM      6  C   UNL     1       3.517   5.427  18.181  0.00  0.00    +0.000 A 
ATOM      7  C   UNL     1       3.022   6.609  18.749  0.00  0.00    +0.000 A 
ENDROOT
BRANCH   1   9
ATOM      8  C   UNL     1       0.554   8.064  21.019  0.00  0.00    +0.000 C 
ATOM      9  C   UNL     1       1.755   7.871  20.450  0.00  0.00    +0.000 C 
BRANCH   8  12
ATOM     10  C   UNL     1       0.059  11.804  21.347  0.00  0.00    +0.000 A 
ATOM     11  C   UNL     1       0.447  10.539  20.873  0.00  0.00    +0.000 A 
ATOM     12  C   UNL     1       0.103   9.362  21.549  0.00  0.00    +0.000 A 
ATOM     13  C   UNL     1      -0.621   9.468  22.743  0.00  0.00    +0.000 A 
ATOM     14  C   UNL     1      -1.016  10.715  23.226  0.00  0.00    +0.000 A 
ATOM     15  C   UNL     1      -0.678  11.879  22.533  0.00  0.00    +0.000 A 
BRANCH  10  17
ATOM     16  C   UNL     1       1.879  13.026  20.388  0.00  0.00    +0.000 C 
ATOM     17  O   UNL     1       0.480  12.830  20.543  0.00  0.00    +0.000 OA
ENDBRANCH  10  17
BRANCH  15  18
ATOM     18  O   UNL     1      -1.085  13.076  23.053  0.00  0.00    +0.000 OA
ATOM     19  H   UNL     1      -0.390  13.739  22.912  0.00  0.00    +0.000 HD
ENDBRANCH  15  18
ENDBRANCH   8  12
ENDBRANCH   1   9
BRANCH   6  20
ATOM     20  C   UNL     1       4.330   5.408  16.955  0.00  0.00    +0.000 C 
ATOM     21  C   UNL     1       4.928   4.322  16.437  0.00  0.00    +0.000 C 
BRANCH  21  22
ATOM     22  C   UNL     1       5.674   4.335  15.166  0.00  0.00    +0.000 A 
ATOM     23  C   UNL     1       6.857   5.062  14.999  0.00  0.00    +0.000 A 
ATOM     24  C   UNL     1       7.513   5.078  13.768  0.00  0.00    +0.000 A 
ATOM     25  C   UNL     1       7.008   4.347  12.689  0.00  0.00    +0.000 A 
ATOM     26  C   UNL     1       5.852   3.576  12.841  0.00  0.00    +0.000 A 
ATOM     27  C   UNL     1       5.200   3.577  14.086  0.00  0.00    +0.000 A 
BRANCH  25  28
ATOM     28  O   UNL     1       7.677   4.414  11.499  0.00  0.00    +0.000 OA
ATOM     29  H   UNL     1       7.139   3.995  10.807  0.00  0.00    +0.000 HD
ENDBRANCH  25  28
BRANCH  26  30
ATOM     30  O   UNL     1       5.224   2.790  11.912  0.00  0.00    +0.000 OA
ATOM     31  C   UNL     1       4.038   3.286  11.307  0.00  0.00    +0.000 C 
ENDBRANCH  26  30
ENDBRANCH  21  22
ENDBRANCH   6  20
TORSDOF 8
ENDMDL
MODEL 2
REMARK VINA RESULT:      -7.8      0.381     10.761
REMARK  Name = 
REMARK  10 active torsions:
REMARK  status: ('A' for Active; 'I' for Inactive)
REMARK    1  A    between atoms: C_1  and  O_2
REMARK    2  A    between atoms: O_2  and  C_3
REMARK    3  A    between atoms: C_5  and  C_6
REMARK    4  A    between atoms: C_7  and  C_8
REMARK    5  A    between atoms: C_13  and  C_14
REMARK    6  A    between atoms: C_15  and  C_16
REMARK    7  A    between atoms: C_19  and  O_20
REMARK    8  A    between atoms: C_21  and  O_22
REMARK    9  A    between atoms: O_22  and  C_23
REMARK   10  A    between atoms: C_28  and  O_29
REMARK                            x       y       z     vdW  Elec       q    Type
REMARK                         _______ _______ _______ _____ _____    ______ ____
ROOT
ATOM      1  C   UNL     1       3.590   5.378  18.365  0.00  0.00    +0.000 A 
ATOM      2  C   UNL     1       3.413   4.269  19.199  0.00  0.00    +0.000 A 
ATOM      3  C   UNL     1       2.623   4.376  20.342  0.00  0.00    +0.000 A 
ATOM      4 BR   UNL     1       2.389   2.872  21.465  0.00  0.00    +0.000 Br
ATOM      5  C   UNL     1       2.004   5.581  20.670  0.00  0.00    +0.000 A 
ATOM      6  C   UNL     1       2.163   6.703  19.849  0.00  0.00    +0.000 A 
ATOM      7  C   UNL     1       2.979   6.594  18.714  0.00  0.00    +0.000 A 
ENDROOT
BRANCH   1   9
ATOM      8  C   UNL     1       4.508   4.334  16.286  0.00  0.00    +0.000 C 
ATOM      9  C   UNL     1       4.442   5.347  17.166  0.00  0.00    +0.000 C 
BRANCH   8  12
ATOM     10  C   UNL     1       5.801   3.537  12.817  0.00  0.00    +0.000 A 
ATOM     11  C   UNL     1       5.009   3.573  13.977  0.00  0.00    +0.000 A 
ATOM     12  C   UNL     1       5.364   4.350  15.088  0.00  0.00    +0.000 A 
ATOM     13  C   UNL     1       6.558   5.079  15.035  0.00  0.00    +0.000 A 
ATOM     14  C   UNL     1       7.354   5.056  13.891  0.00  0.00    +0.000 A 
ATOM     15  C   UNL     1       6.980   4.289  12.786  0.00  0.00    +0.000 A 
BRANCH  10  17
ATOM     16  C   UNL     1       4.072   3.134  11.213  0.00  0.00    +0.000 C 
ATOM     17  O   UNL     1       5.282   2.731  11.840  0.00  0.00    +0.000 OA
ENDBRANCH  10  17
BRANCH  15  18
ATOM     18  O   UNL     1       7.799   4.297  11.692  0.00  0.00    +0.000 OA
ATOM     19  H   UNL     1       8.456   3.588  11.779  0.00  0.00    +0.000 HD
ENDBRANCH  15  18
ENDBRANCH   8  12
ENDBRANCH   1   9
BRANCH   6  20
ATOM     20  C   UNL     1       1.505   7.958  20.244  0.00  0.00    +0.000 C 
ATOM     21  C   UNL     1       0.939   8.195  21.439  0.00  0.00    +0.000 C 
BRANCH  21  22
ATOM     22  C   UNL     1       0.354   9.493  21.817  0.00  0.00    +0.000 A 
ATOM     23  C   UNL     1      -0.587   9.622  22.844  0.00  0.00    +0.000 A 
ATOM     24  C   UNL     1      -1.144  10.864  23.146  0.00  0.00    +0.000 A 
ATOM     25  C   UNL     1      -0.753  12.004  22.438  0.00  0.00    +0.000 A 
ATOM     26  C   UNL     1       0.219  11.912  21.437  0.00  0.00    +0.000 A 
ATOM     27  C   UNL     1       0.764  10.651  21.141  0.00  0.00    +0.000 A 
BRANCH  25  28
ATOM     28  O   UNL     1      -1.346  13.193  22.759  0.00  0.00    +0.000 OA
ATOM     29  H   UNL     1      -2.023  13.401  22.095  0.00  0.00    +0.000 HD
ENDBRANCH  25  28
BRANCH  26  30
ATOM     30  O   UNL     1       0.735  12.913  20.656  0.00  0.00    +0.000 OA
ATOM     31  C   UNL     1       1.641  12.555  19.623  0.00  0.00    +0.000 C 
ENDBRANCH  26  30
ENDBRANCH  21  22
ENDBRANCH   6  20
TORSDOF 8
ENDMDL
MODEL 3
REMARK VINA RESULT:      -7.6      7.209     12.443
REMARK  Name = 
REMARK  10 active torsions:
REMARK  status: ('A' for Active; 'I' for Inactive)
REMARK    1  A    between atoms: C_1  and  O_2
REMARK    2  A    between atoms: O_2  and  C_3
REMARK    3  A    between atoms: C_5  and  C_6
REMARK    4  A    between atoms: C_7  and  C_8
REMARK    5  A    between atoms: C_13  and  C_14
REMARK    6  A    between atoms: C_15  and  C_16
REMARK    7  A    between atoms: C_19  and  O_20
REMARK    8  A    between atoms: C_21  and  O_22
REMARK    9  A    between atoms: O_22  and  C_23
REMARK   10  A    between atoms: C_28  and  O_29
REMARK                            x       y       z     vdW  Elec       q    Type
REMARK                         _______ _______ _______ _____ _____    ______ ____
ROOT
ATOM      1  C   UNL     1       9.112  10.221  18.478  0.00  0.00    +0.000 A 
ATOM      2  C   UNL     1       9.938  11.031  17.690  0.00  0.00    +0.000 A 
ATOM      3  C   UNL     1      10.571  12.137  18.254  0.00  0.00    +0.000 A 
ATOM      4 BR   UNL     1      11.686  13.227  17.184  0.00  0.00    +0.000 Br
ATOM      5  C   UNL     1      10.391  12.452  19.600  0.00  0.00    +0.000 A 
ATOM      6  C   UNL     1       9.572  11.655  20.408  0.00  0.00    +0.000 A 
ATOM      7  C   UNL     1       8.919  10.557  19.828  0.00  0.00    +0.000 A 
ENDROOT
BRANCH   1   9
ATOM      8  C   UNL     1       8.269   7.868  18.540  0.00  0.00    +0.000 C 
ATOM      9  C   UNL     1       8.382   9.063  17.939  0.00  0.00    +0.000 C 
BRANCH   8  12
ATOM     10  C   UNL     1       6.241   4.675  18.342  0.00  0.00    +0.000 A 
ATOM     11  C   UNL     1       6.953   5.783  18.832  0.00  0.00    +0.000 A 
ATOM     12  C   UNL     1       7.514   6.738  17.973  0.00  0.00    +0.000 A 
ATOM     13  C   UNL     1       7.376   6.552  16.593  0.00  0.00    +0.000 A 
ATOM     14  C   UNL     1       6.671   5.460  16.089  0.00  0.00    +0.000 A 
ATOM     15  C   UNL     1       6.105   4.524  16.958  0.00  0.00    +0.000 A 
BRANCH  10  17
ATOM     16  C   UNL     1       4.360   3.839  19.561  0.00  0.00    +0.000 C 
ATOM     17  O   UNL     1       5.762   3.864  19.336  0.00  0.00    +0.000 OA
ENDBRANCH  10  17
BRANCH  15  18
ATOM     18  O   UNL     1       5.428   3.469  16.412  0.00  0.00    +0.000 OA
ATOM     19  H   UNL     1       5.669   3.385  15.476  0.00  0.00    +0.000 HD
ENDBRANCH  15  18
ENDBRANCH   8  12
ENDBRANCH   1   9
BRANCH   6  20
ATOM     20  C   UNL     1       9.396  12.035  21.819  0.00  0.00    +0.000 C 
ATOM     21  C   UNL     1       8.220  12.306  22.409  0.00  0.00    +0.000 C 
BRANCH  21  22
ATOM     22  C   UNL     1       8.084  12.613  23.843  0.00  0.00    +0.000 A 
ATOM     23  C   UNL     1       7.529  11.709  24.754  0.00  0.00    +0.000 A 
ATOM     24  C   UNL     1       7.384  12.053  26.098  0.00  0.00    +0.000 A 
ATOM     25  C   UNL     1       7.813  13.301  26.558  0.00  0.00    +0.000 A 
ATOM     26  C   UNL     1       8.413  14.207  25.678  0.00  0.00    +0.000 A 
ATOM     27  C   UNL     1       8.544  13.846  24.326  0.00  0.00    +0.000 A 
BRANCH  25  28
ATOM     28  O   UNL     1       7.628  13.596  27.880  0.00  0.00    +0.000 OA
ATOM     29  H   UNL     1       7.731  14.553  28.010  0.00  0.00    +0.000 HD
ENDBRANCH  25  28
BRANCH  26  30
ATOM     30  O   UNL     1       8.906  15.457  25.947  0.00  0.00    +0.000 OA
ATOM     31  C   UNL     1       8.035  16.567  25.789  0.00  0.00    +0.000 C 
ENDBRANCH  26  30
ENDBRANCH  21  22
ENDBRANCH   6  20
TORSDOF 8
ENDMDL
MODEL 4
REMARK VINA RESULT:      -7.6      4.107      6.344
REMARK  Name = 
REMARK  10 active torsions:
REMARK  status: ('A' for Active; 'I' for Inactive)
REMARK    1  A    between atoms: C_1  and  O_2
REMARK    2  A    between atoms: O_2  and  C_3
REMARK    3  A    between atoms: C_5  and  C_6
REMARK    4  A    between atoms: C_7  and  C_8
REMARK    5  A    between atoms: C_13  and  C_14
REMARK    6  A    between atoms: C_15  and  C_16
REMARK    7  A    between atoms: C_19  and  O_20
REMARK    8  A    between atoms: C_21  and  O_22
REMARK    9  A    between atoms: O_22  and  C_23
REMARK   10  A    between atoms: C_28  and  O_29
REMARK                            x       y       z     vdW  Elec       q    Type
REMARK                         _______ _______ _______ _____ _____    ______ ____
ROOT
ATOM      1  C   UNL     1      -0.520  11.853  19.806  0.00  0.00    +0.000 A 
ATOM      2  C   UNL     1       0.305  12.896  19.369  0.00  0.00    +0.000 A 
ATOM      3  C   UNL     1       1.503  12.608  18.718  0.00  0.00    +0.000 A 
ATOM      4 BR   UNL     1       2.613  14.022  18.130  0.00  0.00    +0.000 Br
ATOM      5  C   UNL     1       1.896  11.290  18.496  0.00  0.00    +0.000 A 
ATOM      6  C   UNL     1       1.085  10.231  18.922  0.00  0.00    +0.000 A 
ATOM      7  C   UNL     1      -0.108  10.527  19.597  0.00  0.00    +0.000 A 
ENDROOT
BRANCH   1   9
ATOM      8  C   UNL     1      -1.893  12.194  21.869  0.00  0.00    +0.000 C 
ATOM      9  C   UNL     1      -1.778  12.083  20.535  0.00  0.00    +0.000 C 
BRANCH   8  12
ATOM     10  C   UNL     1      -5.526  13.105  22.426  0.00  0.00    +0.000 A 
ATOM     11  C   UNL     1      -4.289  12.837  21.815  0.00  0.00    +0.000 A 
ATOM     12  C   UNL     1      -3.170  12.441  22.559  0.00  0.00    +0.000 A 
ATOM     13  C   UNL     1      -3.297  12.343  23.949  0.00  0.00    +0.000 A 
ATOM     14  C   UNL     1      -4.517  12.602  24.572  0.00  0.00    +0.000 A 
ATOM     15  C   UNL     1      -5.628  12.983  23.816  0.00  0.00    +0.000 A 
BRANCH  10  17
ATOM     16  C   UNL     1      -6.711  14.852  21.300  0.00  0.00    +0.000 C 
ATOM     17  O   UNL     1      -6.498  13.466  21.532  0.00  0.00    +0.000 OA
ENDBRANCH  10  17
BRANCH  15  18
ATOM     18  O   UNL     1      -6.799  13.231  24.476  0.00  0.00    +0.000 OA
ATOM     19  H   UNL     1      -7.221  12.388  24.706  0.00  0.00    +0.000 HD
ENDBRANCH  15  18
ENDBRANCH   8  12
ENDBRANCH   1   9
BRANCH   6  20
ATOM     20  C   UNL     1       1.548   8.855  18.683  0.00  0.00    +0.000 C 
ATOM     21  C   UNL     1       2.624   8.514  17.954  0.00  0.00    +0.000 C 
BRANCH  21  22
ATOM     22  C   UNL     1       3.093   7.126  17.799  0.00  0.00    +0.000 A 
ATOM     23  C   UNL     1       4.368   6.814  17.317  0.00  0.00    +0.000 A 
ATOM     24  C   UNL     1       4.760   5.485  17.151  0.00  0.00    +0.000 A 
ATOM     25  C   UNL     1       3.889   4.446  17.486  0.00  0.00    +0.000 A 
ATOM     26  C   UNL     1       2.625   4.728  18.014  0.00  0.00    +0.000 A 
ATOM     27  C   UNL     1       2.244   6.072  18.167  0.00  0.00    +0.000 A 
BRANCH  25  28
ATOM     28  O   UNL     1       4.314   3.162  17.284  0.00  0.00    +0.000 OA
ATOM     29  H   UNL     1       5.277   3.124  17.401  0.00  0.00    +0.000 HD
ENDBRANCH  25  28
BRANCH  26  30
ATOM     30  O   UNL     1       1.652   3.849  18.411  0.00  0.00    +0.000 OA
ATOM     31  C   UNL     1       1.283   3.836  19.783  0.00  0.00    +0.000 C 
ENDBRANCH  26  30
ENDBRANCH  21  22
ENDBRANCH   6  20
TORSDOF 8
ENDMDL
MODEL 5
REMARK VINA RESULT:      -7.6      4.397      6.318
REMARK  Name = 
REMARK  10 active torsions:
REMARK  status: ('A' for Active; 'I' for Inactive)
REMARK    1  A    between atoms: C_1  and  O_2
REMARK    2  A    between atoms: O_2  and  C_3
REMARK    3  A    between atoms: C_5  and  C_6
REMARK    4  A    between atoms: C_7  and  C_8
REMARK    5  A    between atoms: C_13  and  C_14
REMARK    6  A    between atoms: C_15  and  C_16
REMARK    7  A    between atoms: C_19  and  O_20
REMARK    8  A    between atoms: C_21  and  O_22
REMARK    9  A    between atoms: O_22  and  C_23
REMARK   10  A    between atoms: C_28  and  O_29
REMARK                            x       y       z     vdW  Elec       q    Type
REMARK                         _______ _______ _______ _____ _____    ______ ____
ROOT
ATOM      1  C   UNL     1      -0.220  11.535  19.041  0.00  0.00    +0.000 A 
ATOM      2  C   UNL     1       0.561  12.688  18.902  0.00  0.00    +0.000 A 
ATOM      3  C   UNL     1       1.858  12.594  18.399  0.00  0.00    +0.000 A 
ATOM      4 BR   UNL     1       2.908  14.156  18.214  0.00  0.00    +0.000 Br
ATOM      5  C   UNL     1       2.392  11.360  18.032  0.00  0.00    +0.000 A 
ATOM      6  C   UNL     1       1.629  10.194  18.159  0.00  0.00    +0.000 A 
ATOM      7  C   UNL     1       0.334  10.293  18.688  0.00  0.00    +0.000 A 
ENDROOT
BRANCH   1   9
ATOM      8  C   UNL     1      -2.255  12.661  19.961  0.00  0.00    +0.000 C 
ATOM      9  C   UNL     1      -1.580  11.556  19.602  0.00  0.00    +0.000 C 
BRANCH   8  12
ATOM     10  C   UNL     1      -6.025  12.348  20.114  0.00  0.00    +0.000 A 
ATOM     11  C   UNL     1      -4.699  12.361  19.651  0.00  0.00    +0.000 A 
ATOM     12  C   UNL     1      -3.623  12.639  20.505  0.00  0.00    +0.000 A 
ATOM     13  C   UNL     1      -3.897  12.937  21.844  0.00  0.00    +0.000 A 
ATOM     14  C   UNL     1      -5.208  12.926  22.321  0.00  0.00    +0.000 A 
ATOM     15  C   UNL     1      -6.268  12.634  21.462  0.00  0.00    +0.000 A 
BRANCH  10  17
ATOM     16  C   UNL     1      -6.834  10.776  18.502  0.00  0.00    +0.000 C 
ATOM     17  O   UNL     1      -6.932  12.045  19.134  0.00  0.00    +0.000 OA
ENDBRANCH  10  17
BRANCH  15  18
ATOM     18  O   UNL     1      -7.534  12.641  21.979  0.00  0.00    +0.000 OA
ATOM     19  H   UNL     1      -7.929  11.762  21.870  0.00  0.00    +0.000 HD
ENDBRANCH  15  18
ENDBRANCH   8  12
ENDBRANCH   1   9
BRANCH   6  20
ATOM     20  C   UNL     1       2.240   8.911  17.776  0.00  0.00    +0.000 C 
ATOM     21  C   UNL     1       2.386   7.849  18.585  0.00  0.00    +0.000 C 
BRANCH  21  22
ATOM     22  C   UNL     1       2.939   6.559  18.139  0.00  0.00    +0.000 A 
ATOM     23  C   UNL     1       2.194   5.376  18.158  0.00  0.00    +0.000 A 
ATOM     24  C   UNL     1       2.767   4.168  17.762  0.00  0.00    +0.000 A 
ATOM     25  C   UNL     1       4.091   4.127  17.316  0.00  0.00    +0.000 A 
ATOM     26  C   UNL     1       4.845   5.302  17.243  0.00  0.00    +0.000 A 
ATOM     27  C   UNL     1       4.254   6.509  17.654  0.00  0.00    +0.000 A 
BRANCH  25  28
ATOM     28  O   UNL     1       4.611   2.914  16.959  0.00  0.00    +0.000 OA
ATOM     29  H   UNL     1       3.936   2.408  16.477  0.00  0.00    +0.000 HD
ENDBRANCH  25  28
BRANCH  26  30
ATOM     30  O   UNL     1       6.139   5.458  16.821  0.00  0.00    +0.000 OA
ATOM     31  C   UNL     1       7.181   5.037  17.690  0.00  0.00    +0.000 C 
ENDBRANCH  26  30
ENDBRANCH  21  22
ENDBRANCH   6  20
TORSDOF 8
ENDMDL
MODEL 6
REMARK VINA RESULT:      -7.6      3.844     11.812
REMARK  Name = 
REMARK  10 active torsions:
REMARK  status: ('A' for Active; 'I' for Inactive)
REMARK    1  A    between atoms: C_1  and  O_2
REMARK    2  A    between atoms: O_2  and  C_3
REMARK    3  A    between atoms: C_5  and  C_6
REMARK    4  A    between atoms: C_7  and  C_8
REMARK    5  A    between atoms: C_13  and  C_14
REMARK    6  A    between atoms: C_15  and  C_16
REMARK    7  A    between atoms: C_19  and  O_20
REMARK    8  A    between atoms: C_21  and  O_22
REMARK    9  A    between atoms: O_22  and  C_23
REMARK   10  A    between atoms: C_28  and  O_29
REMARK                            x       y       z     vdW  Elec       q    Type
REMARK                         _______ _______ _______ _____ _____    ______ ____
ROOT
ATOM      1  C   UNL     1       0.889   9.303  18.496  0.00  0.00    +0.000 A 
ATOM      2  C   UNL     1      -0.051   9.303  17.460  0.00  0.00    +0.000 A 
ATOM      3  C   UNL     1      -1.220  10.053  17.581  0.00  0.00    +0.000 A 
ATOM      4 BR   UNL     1      -2.487  10.049  16.177  0.00  0.00    +0.000 Br
ATOM      5  C   UNL     1      -1.469  10.805  18.728  0.00  0.00    +0.000 A 
ATOM      6  C   UNL     1      -0.541  10.822  19.776  0.00  0.00    +0.000 A 
ATOM      7  C   UNL     1       0.622  10.047  19.657  0.00  0.00    +0.000 A 
ENDROOT
BRANCH   1   9
ATOM      8  C   UNL     1       2.181   7.172  18.281  0.00  0.00    +0.000 C 
ATOM      9  C   UNL     1       2.124   8.503  18.452  0.00  0.00    +0.000 C 
BRANCH   8  12
ATOM     10  C   UNL     1       5.759   6.255  17.447  0.00  0.00    +0.000 A 
ATOM     11  C   UNL     1       4.541   6.949  17.546  0.00  0.00    +0.000 A 
ATOM     12  C   UNL     1       3.440   6.411  18.227  0.00  0.00    +0.000 A 
ATOM     13  C   UNL     1       3.566   5.137  18.792  0.00  0.00    +0.000 A 
ATOM     14  C   UNL     1       4.768   4.436  18.705  0.00  0.00    +0.000 A 
ATOM     15  C   UNL     1       5.861   4.990  18.036  0.00  0.00    +0.000 A 
BRANCH  10  17
ATOM     16  C   UNL     1       7.635   7.740  17.494  0.00  0.00    +0.000 C 
ATOM     17  O   UNL     1       6.715   6.949  16.754  0.00  0.00    +0.000 OA
ENDBRANCH  10  17
BRANCH  15  18
ATOM     18  O   UNL     1       7.015   4.259  17.975  0.00  0.00    +0.000 OA
ATOM     19  H   UNL     1       7.624   4.674  17.344  0.00  0.00    +0.000 HD
ENDBRANCH  15  18
ENDBRANCH   8  12
ENDBRANCH   1   9
BRANCH   6  20
ATOM     20  C   UNL     1      -0.853  11.617  20.974  0.00  0.00    +0.000 C 
ATOM     21  C   UNL     1      -2.027  12.221  21.220  0.00  0.00    +0.000 C 
BRANCH  21  22
ATOM     22  C   UNL     1      -2.320  12.947  22.468  0.00  0.00    +0.000 A 
ATOM     23  C   UNL     1      -3.544  12.830  23.135  0.00  0.00    +0.000 A 
ATOM     24  C   UNL     1      -3.796  13.563  24.294  0.00  0.00    +0.000 A 
ATOM     25  C   UNL     1      -2.816  14.411  24.819  0.00  0.00    +0.000 A 
ATOM     26  C   UNL     1      -1.568  14.513  24.199  0.00  0.00    +0.000 A 
ATOM     27  C   UNL     1      -1.335  13.772  23.028  0.00  0.00    +0.000 A 
BRANCH  25  28
ATOM     28  O   UNL     1      -3.121  15.123  25.945  0.00  0.00    +0.000 OA
ATOM     29  H   UNL     1      -4.085  15.235  26.001  0.00  0.00    +0.000 HD
ENDBRANCH  25  28
BRANCH  26  30
ATOM     30  O   UNL     1      -0.490  15.271  24.573  0.00  0.00    +0.000 OA
ATOM     31  C   UNL     1      -0.404  16.601  24.081  0.00  0.00    +0.000 C 
ENDBRANCH  26  30
ENDBRANCH  21  22
ENDBRANCH   6  20
TORSDOF 8
ENDMDL
MODEL 7
REMARK VINA RESULT:      -7.5      4.565      6.499
REMARK  Name = 
REMARK  10 active torsions:
REMARK  status: ('A' for Active; 'I' for Inactive)
REMARK    1  A    between atoms: C_1  and  O_2
REMARK    2  A    between atoms: O_2  and  C_3
REMARK    3  A    between atoms: C_5  and  C_6
REMARK    4  A    between atoms: C_7  and  C_8
REMARK    5  A    between atoms: C_13  and  C_14
REMARK    6  A    between atoms: C_15  and  C_16
REMARK    7  A    between atoms: C_19  and  O_20
REMARK    8  A    between atoms: C_21  and  O_22
REMARK    9  A    between atoms: O_22  and  C_23
REMARK   10  A    between atoms: C_28  and  O_29
REMARK                            x       y       z     vdW  Elec       q    Type
REMARK                         _______ _______ _______ _____ _____    ______ ____
ROOT
ATOM      1  C   UNL     1      -0.425  11.530  18.902  0.00  0.00    +0.000 A 
ATOM      2  C   UNL     1       0.414  12.646  18.803  0.00  0.00    +0.000 A 
ATOM      3  C   UNL     1       1.740  12.487  18.405  0.00  0.00    +0.000 A 
ATOM      4 BR   UNL     1       2.868  14.000  18.273  0.00  0.00    +0.000 Br
ATOM      5  C   UNL     1       2.248  11.224  18.105  0.00  0.00    +0.000 A 
ATOM      6  C   UNL     1       1.427  10.094  18.194  0.00  0.00    +0.000 A 
ATOM      7  C   UNL     1       0.100  10.258  18.618  0.00  0.00    +0.000 A 
ENDROOT
BRANCH   1   9
ATOM      8  C   UNL     1      -2.292  12.501  20.253  0.00  0.00    +0.000 C 
ATOM      9  C   UNL     1      -1.822  11.620  19.355  0.00  0.00    +0.000 C 
BRANCH   8  12
ATOM     10  C   UNL     1      -6.073  12.422  20.056  0.00  0.00    +0.000 A 
ATOM     11  C   UNL     1      -4.711  12.349  19.718  0.00  0.00    +0.000 A 
ATOM     12  C   UNL     1      -3.703  12.568  20.667  0.00  0.00    +0.000 A 
ATOM     13  C   UNL     1      -4.082  12.895  21.974  0.00  0.00    +0.000 A 
ATOM     14  C   UNL     1      -5.429  12.969  22.327  0.00  0.00    +0.000 A 
ATOM     15  C   UNL     1      -6.422  12.734  21.374  0.00  0.00    +0.000 A 
BRANCH  10  17
ATOM     16  C   UNL     1      -6.621  11.033  18.186  0.00  0.00    +0.000 C 
ATOM     17  O   UNL     1      -6.902  12.166  18.996  0.00  0.00    +0.000 OA
ENDBRANCH  10  17
BRANCH  15  18
ATOM     18  O   UNL     1      -7.727  12.824  21.771  0.00  0.00    +0.000 OA
ATOM     19  H   UNL     1      -8.009  11.972  22.138  0.00  0.00    +0.000 HD
ENDBRANCH  15  18
ENDBRANCH   8  12
ENDBRANCH   1   9
BRANCH   6  20
ATOM     20  C   UNL     1       2.010   8.779  17.885  0.00  0.00    +0.000 C 
ATOM     21  C   UNL     1       2.358   7.852  18.793  0.00  0.00    +0.000 C 
BRANCH  21  22
ATOM     22  C   UNL     1       2.873   6.518  18.434  0.00  0.00    +0.000 A 
ATOM     23  C   UNL     1       3.918   6.338  17.523  0.00  0.00    +0.000 A 
ATOM     24  C   UNL     1       4.351   5.057  17.182  0.00  0.00    +0.000 A 
ATOM     25  C   UNL     1       3.759   3.934  17.766  0.00  0.00    +0.000 A 
ATOM     26  C   UNL     1       2.743   4.086  18.714  0.00  0.00    +0.000 A 
ATOM     27  C   UNL     1       2.314   5.384  19.039  0.00  0.00    +0.000 A 
BRANCH  25  28
ATOM     28  O   UNL     1       4.206   2.700  17.381  0.00  0.00    +0.000 OA
ATOM     29  H   UNL     1       5.125   2.776  17.075  0.00  0.00    +0.000 HD
ENDBRANCH  25  28
BRANCH  26  30
ATOM     30  O   UNL     1       2.063   3.112  19.397  0.00  0.00    +0.000 OA
ATOM     31  C   UNL     1       0.899   2.563  18.797  0.00  0.00    +0.000 C 
ENDBRANCH  26  30
ENDBRANCH  21  22
ENDBRANCH   6  20
TORSDOF 8
ENDMDL
MODEL 8
REMARK VINA RESULT:      -7.5      4.374     11.807
REMARK  Name = 
REMARK  10 active torsions:
REMARK  status: ('A' for Active; 'I' for Inactive)
REMARK    1  A    between atoms: C_1  and  O_2
REMARK    2  A    between atoms: O_2  and  C_3
REMARK    3  A    between atoms: C_5  and  C_6
REMARK    4  A    between atoms: C_7  and  C_8
REMARK    5  A    between atoms: C_13  and  C_14
REMARK    6  A    between atoms: C_15  and  C_16
REMARK    7  A    between atoms: C_19  and  O_20
REMARK    8  A    between atoms: C_21  and  O_22
REMARK    9  A    between atoms: O_22  and  C_23
REMARK   10  A    between atoms: C_28  and  O_29
REMARK                            x       y       z     vdW  Elec       q    Type
REMARK                         _______ _______ _______ _____ _____    ______ ____
ROOT
ATOM      1  C   UNL     1       1.717  10.119  18.184  0.00  0.00    +0.000 A 
ATOM      2  C   UNL     1       2.392  11.340  18.077  0.00  0.00    +0.000 A 
ATOM      3  C   UNL     1       1.744  12.525  18.419  0.00  0.00    +0.000 A 
ATOM      4 BR   UNL     1       2.663  14.173  18.270  0.00  0.00    +0.000 Br
ATOM      5  C   UNL     1       0.425  12.513  18.868  0.00  0.00    +0.000 A 
ATOM      6  C   UNL     1      -0.269  11.304  18.987  0.00  0.00    +0.000 A 
ATOM      7  C   UNL     1       0.381  10.117  18.618  0.00  0.00    +0.000 A 
ENDROOT
BRANCH   1   9
ATOM      8  C   UNL     1       2.307   7.715  18.544  0.00  0.00    +0.000 C 
ATOM      9  C   UNL     1       2.325   8.835  17.802  0.00  0.00    +0.000 C 
BRANCH   8  12
ATOM     10  C   UNL     1       2.752   4.006  17.926  0.00  0.00    +0.000 A 
ATOM     11  C   UNL     1       2.209   5.248  18.297  0.00  0.00    +0.000 A 
ATOM     12  C   UNL     1       2.916   6.444  18.116  0.00  0.00    +0.000 A 
ATOM     13  C   UNL     1       4.205   6.380  17.577  0.00  0.00    +0.000 A 
ATOM     14  C   UNL     1       4.758   5.156  17.200  0.00  0.00    +0.000 A 
ATOM     15  C   UNL     1       4.037   3.973  17.374  0.00  0.00    +0.000 A 
BRANCH  10  17
ATOM     16  C   UNL     1       1.019   3.058  19.276  0.00  0.00    +0.000 C 
ATOM     17  O   UNL     1       1.907   2.957  18.171  0.00  0.00    +0.000 OA
ENDBRANCH  10  17
BRANCH  15  18
ATOM     18  O   UNL     1       4.627   2.800  16.993  0.00  0.00    +0.000 OA
ATOM     19  H   UNL     1       5.555   2.969  16.764  0.00  0.00    +0.000 HD
ENDBRANCH  15  18
ENDBRANCH   8  12
ENDBRANCH   1   9
BRANCH   6  20
ATOM     20  C   UNL     1      -1.666  11.340  19.448  0.00  0.00    +0.000 C 
ATOM     21  C   UNL     1      -2.404  12.452  19.599  0.00  0.00    +0.000 C 
BRANCH  21  22
ATOM     22  C   UNL     1      -3.823  12.436  19.995  0.00  0.00    +0.000 A 
ATOM     23  C   UNL     1      -4.846  12.091  19.107  0.00  0.00    +0.000 A 
ATOM     24  C   UNL     1      -6.181  12.125  19.511  0.00  0.00    +0.000 A 
ATOM     25  C   UNL     1      -6.512  12.483  20.821  0.00  0.00    +0.000 A 
ATOM     26  C   UNL     1      -5.507  12.788  21.743  0.00  0.00    +0.000 A 
ATOM     27  C   UNL     1      -4.169  12.756  21.316  0.00  0.00    +0.000 A 
BRANCH  25  28
ATOM     28  O   UNL     1      -7.836  12.520  21.160  0.00  0.00    +0.000 OA
ATOM     29  H   UNL     1      -8.257  13.275  20.717  0.00  0.00    +0.000 HD
ENDBRANCH  25  28
BRANCH  26  30
ATOM     30  O   UNL     1      -5.638  13.141  23.060  0.00  0.00    +0.000 OA
ATOM     31  C   UNL     1      -5.711  14.523  23.379  0.00  0.00    +0.000 C 
ENDBRANCH  26  30
ENDBRANCH  21  22
ENDBRANCH   6  20
TORSDOF 8
ENDMDL
MODEL 9
REMARK VINA RESULT:      -7.5      3.874      5.904
REMARK  Name = 
REMARK  10 active torsions:
REMARK  status: ('A' for Active; 'I' for Inactive)
REMARK    1  A    between atoms: C_1  and  O_2
REMARK    2  A    between atoms: O_2  and  C_3
REMARK    3  A    between atoms: C_5  and  C_6
REMARK    4  A    between atoms: C_7  and  C_8
REMARK    5  A    between atoms: C_13  and  C_14
REMARK    6  A    between atoms: C_15  and  C_16
REMARK    7  A    between atoms: C_19  and  O_20
REMARK    8  A    between atoms: C_21  and  O_22
REMARK    9  A    between atoms: O_22  and  C_23
REMARK   10  A    between atoms: C_28  and  O_29
REMARK                            x       y       z     vdW  Elec       q    Type
REMARK                         _______ _______ _______ _____ _____    ______ ____
ROOT
ATOM      1  C   UNL     1      -0.151  11.245  20.056  0.00  0.00    +0.000 A 
ATOM      2  C   UNL     1       0.571  12.324  19.534  0.00  0.00    +0.000 A 
ATOM      3  C   UNL     1       1.640  12.093  18.670  0.00  0.00    +0.000 A 
ATOM      4 BR   UNL     1       2.612  13.557  17.969  0.00  0.00    +0.000 Br
ATOM      5  C   UNL     1       2.004  10.795  18.317  0.00  0.00    +0.000 A 
ATOM      6  C   UNL     1       1.294   9.701  18.824  0.00  0.00    +0.000 A 
ATOM      7  C   UNL     1       0.235   9.939  19.711  0.00  0.00    +0.000 A 
ENDROOT
BRANCH   1   9
ATOM      8  C   UNL     1      -2.073  12.484  21.070  0.00  0.00    +0.000 C 
ATOM      9  C   UNL     1      -1.263  11.414  21.005  0.00  0.00    +0.000 C 
BRANCH   8  12
ATOM     10  C   UNL     1      -5.567  13.037  22.421  0.00  0.00    +0.000 A 
ATOM     11  C   UNL     1      -4.473  12.890  21.550  0.00  0.00    +0.000 A 
ATOM     12  C   UNL     1      -3.186  12.606  22.025  0.00  0.00    +0.000 A 
ATOM     13  C   UNL     1      -2.997  12.498  23.408  0.00  0.00    +0.000 A 
ATOM     14  C   UNL     1      -4.071  12.638  24.285  0.00  0.00    +0.000 A 
ATOM     15  C   UNL     1      -5.351  12.907  23.796  0.00  0.00    +0.000 A 
BRANCH  10  17
ATOM     16  C   UNL     1      -7.436  12.212  21.176  0.00  0.00    +0.000 C 
ATOM     17  O   UNL     1      -6.740  13.301  21.766  0.00  0.00    +0.000 OA
ENDBRANCH  10  17
BRANCH  15  18
ATOM     18  O   UNL     1      -6.368  13.041  24.700  0.00  0.00    +0.000 OA
ATOM     19  H   UNL     1      -6.772  13.918  24.599  0.00  0.00    +0.000 HD
ENDBRANCH  15  18
ENDBRANCH   8  12
ENDBRANCH   1   9
BRANCH   6  20
ATOM     20  C   UNL     1       1.725   8.347  18.438  0.00  0.00    +0.000 C 
ATOM     21  C   UNL     1       2.992   7.979  18.185  0.00  0.00    +0.000 C 
BRANCH  21  22
ATOM     22  C   UNL     1       3.387   6.594  17.871  0.00  0.00    +0.000 A 
ATOM     23  C   UNL     1       2.508   5.515  18.006  0.00  0.00    +0.000 A 
ATOM     24  C   UNL     1       2.933   4.215  17.734  0.00  0.00    +0.000 A 
ATOM     25  C   UNL     1       4.239   3.975  17.301  0.00  0.00    +0.000 A 
ATOM     26  C   UNL     1       5.125   5.040  17.113  0.00  0.00    +0.000 A 
ATOM     27  C   UNL     1       4.683   6.343  17.399  0.00  0.00    +0.000 A 
BRANCH  25  28
ATOM     28  O   UNL     1       4.611   2.680  17.068  0.00  0.00    +0.000 OA
ATOM     29  H   UNL     1       4.115   2.095  17.664  0.00  0.00    +0.000 HD
ENDBRANCH  25  28
BRANCH  26  30
ATOM     30  O   UNL     1       6.425   5.001  16.683  0.00  0.00    +0.000 OA
ATOM     31  C   UNL     1       6.666   4.962  15.284  0.00  0.00    +0.000 C 
ENDBRANCH  26  30
ENDBRANCH  21  22
ENDBRANCH   6  20
TORSDOF 8
ENDMDL
