MODEL 1
REMARK VINA RESULT:      -7.0      0.000      0.000
REMARK  Name = 
REMARK  3 active torsions:
REMARK  status: ('A' for Active; 'I' for Inactive)
REMARK    1  A    between atoms: O_1  and  C_2
REMARK    2  A    between atoms: C_7  and  C_8
REMARK    3  A    between atoms: N_9  and  N_10
REMARK                            x       y       z     vdW  Elec       q    Type
REMARK                         _______ _______ _______ _____ _____    ______ ____
ROOT
ATOM      1  C   UNL     1       3.599   5.392  17.787  0.00  0.00    +0.000 C 
ATOM      2  N   UNL     1       4.715   4.851  17.415  0.00  0.00    +0.000 NA
ENDROOT
BRANCH   2   3
ATOM      3  N   UNL     1       5.544   5.647  16.682  0.00  0.00    +0.000 N 
ATOM      4  C   UNL     1       5.933   5.144  15.425  0.00  0.00    +0.000 A 
ATOM      5  N   UNL     1       5.096   4.347  14.723  0.00  0.00    +0.000 NA
ATOM      6  C   UNL     1       5.536   3.867  13.544  0.00  0.00    +0.000 A 
ATOM      7  C   UNL     1       6.773   4.156  13.035  0.00  0.00    +0.000 A 
ATOM      8  F   UNL     1       7.193   3.662  11.866  0.00  0.00    +0.000 F 
ATOM      9  C   UNL     1       7.555   4.981  13.803  0.00  0.00    +0.000 A 
ATOM     10  N   UNL     1       7.162   5.491  14.993  0.00  0.00    +0.000 NA
ATOM     11  H   UNL     1       6.381   6.017  17.126  0.00  0.00    +0.000 HD
ENDBRANCH   2   3
BRANCH   1  17
ATOM     12  C   UNL     1       2.000   3.491  18.094  0.00  0.00    +0.000 A 
ATOM     13  C   UNL     1       1.089   2.784  18.884  0.00  0.00    +0.000 A 
ATOM     14  C   UNL     1       0.814   3.213  20.186  0.00  0.00    +0.000 A 
ATOM     15  C   UNL     1       1.450   4.340  20.702  0.00  0.00    +0.000 A 
ATOM     16  C   UNL     1       2.364   5.041  19.917  0.00  0.00    +0.000 A 
ATOM     17  C   UNL     1       2.640   4.620  18.609  0.00  0.00    +0.000 A 
BRANCH  12  18
ATOM     18  O   UNL     1       2.256   3.075  16.817  0.00  0.00    +0.000 OA
ATOM     19  H   UNL     1       3.130   2.651  16.792  0.00  0.00    +0.000 HD
ENDBRANCH  12  18
ENDBRANCH   1  17
TORSDOF 3
ENDMDL
MODEL 2
REMARK VINA RESULT:      -6.9      3.138      3.738
REMARK  Name = 
REMARK  3 active torsions:
REMARK  status: ('A' for Active; 'I' for Inactive)
REMARK    1  A    between atoms: O_1  and  C_2
REMARK    2  A    between atoms: C_7  and  C_8
REMARK    3  A    between atoms: N_9  and  N_10
REMARK                            x       y       z     vdW  Elec       q    Type
REMARK                         _______ _______ _______ _____ _____    ______ ____
ROOT
ATOM      1  C   UNL     1       3.945   4.654  18.361  0.00  0.00    +0.000 C 
ATOM      2  N   UNL     1       4.692   3.953  17.568  0.00  0.00    +0.000 NA
ENDROOT
BRANCH   2   3
ATOM      3  N   UNL     1       5.462   4.663  16.697  0.00  0.00    +0.000 N 
ATOM      4  C   UNL     1       6.385   5.557  17.275  0.00  0.00    +0.000 A 
ATOM      5  N   UNL     1       6.943   5.278  18.474  0.00  0.00    +0.000 NA
ATOM      6  C   UNL     1       7.790   6.187  18.993  0.00  0.00    +0.000 A 
ATOM      7  C   UNL     1       8.109   7.358  18.360  0.00  0.00    +0.000 A 
ATOM      8  F   UNL     1       8.947   8.250  18.897  0.00  0.00    +0.000 F 
ATOM      9  C   UNL     1       7.511   7.558  17.143  0.00  0.00    +0.000 A 
ATOM     10  N   UNL     1       6.652   6.679  16.576  0.00  0.00    +0.000 NA
ATOM     11  H   UNL     1       5.006   5.158  15.936  0.00  0.00    +0.000 HD
ENDBRANCH   2   3
BRANCH   1  17
ATOM     12  C   UNL     1       3.584   2.927  20.136  0.00  0.00    +0.000 A 
ATOM     13  C   UNL     1       2.754   2.295  21.067  0.00  0.00    +0.000 A 
ATOM     14  C   UNL     1       1.428   2.710  21.216  0.00  0.00    +0.000 A 
ATOM     15  C   UNL     1       0.932   3.759  20.443  0.00  0.00    +0.000 A 
ATOM     16  C   UNL     1       1.761   4.394  19.520  0.00  0.00    +0.000 A 
ATOM     17  C   UNL     1       3.090   3.978  19.362  0.00  0.00    +0.000 A 
BRANCH  12  18
ATOM     18  O   UNL     1       4.876   2.507  19.985  0.00  0.00    +0.000 OA
ATOM     19  H   UNL     1       5.215   2.212  20.847  0.00  0.00    +0.000 HD
ENDBRANCH  12  18
ENDBRANCH   1  17
TORSDOF 3
ENDMDL
MODEL 3
REMARK VINA RESULT:      -6.9      3.149      6.732
REMARK  Name = 
REMARK  3 active torsions:
REMARK  status: ('A' for Active; 'I' for Inactive)
REMARK    1  A    between atoms: O_1  and  C_2
REMARK    2  A    between atoms: C_7  and  C_8
REMARK    3  A    between atoms: N_9  and  N_10
REMARK                            x       y       z     vdW  Elec       q    Type
REMARK                         _______ _______ _______ _____ _____    ______ ____
ROOT
ATOM      1  C   UNL     1       5.227   4.727  15.725  0.00  0.00    +0.000 C 
ATOM      2  N   UNL     1       5.739   4.238  16.810  0.00  0.00    +0.000 NA
ENDROOT
BRANCH   2   3
ATOM      3  N   UNL     1       5.081   4.539  17.965  0.00  0.00    +0.000 N 
ATOM      4  C   UNL     1       3.848   3.887  18.162  0.00  0.00    +0.000 A 
ATOM      5  N   UNL     1       3.648   2.645  17.667  0.00  0.00    +0.000 NA
ATOM      6  C   UNL     1       2.437   2.087  17.855  0.00  0.00    +0.000 A 
ATOM      7  C   UNL     1       1.420   2.715  18.523  0.00  0.00    +0.000 A 
ATOM      8  F   UNL     1       0.223   2.146  18.691  0.00  0.00    +0.000 F 
ATOM      9  C   UNL     1       1.709   3.967  19.003  0.00  0.00    +0.000 A 
ATOM     10  N   UNL     1       2.908   4.574  18.843  0.00  0.00    +0.000 NA
ATOM     11  H   UNL     1       4.942   5.517  18.206  0.00  0.00    +0.000 HD
ENDBRANCH   2   3
BRANCH   1  17
ATOM     12  C   UNL     1       7.107   4.956  14.090  0.00  0.00    +0.000 A 
ATOM     13  C   UNL     1       7.673   4.679  12.841  0.00  0.00    +0.000 A 
ATOM     14  C   UNL     1       6.979   3.892  11.919  0.00  0.00    +0.000 A 
ATOM     15  C   UNL     1       5.725   3.374  12.242  0.00  0.00    +0.000 A 
ATOM     16  C   UNL     1       5.164   3.644  13.488  0.00  0.00    +0.000 A 
ATOM     17  C   UNL     1       5.852   4.438  14.416  0.00  0.00    +0.000 A 
BRANCH  12  18
ATOM     18  O   UNL     1       7.784   5.738  14.983  0.00  0.00    +0.000 OA
ATOM     19  H   UNL     1       7.772   6.658  14.669  0.00  0.00    +0.000 HD
ENDBRANCH  12  18
ENDBRANCH   1  17
TORSDOF 3
ENDMDL
MODEL 4
REMARK VINA RESULT:      -6.9      2.949      3.691
REMARK  Name = 
REMARK  3 active torsions:
REMARK  status: ('A' for Active; 'I' for Inactive)
REMARK    1  A    between atoms: O_1  and  C_2
REMARK    2  A    between atoms: C_7  and  C_8
REMARK    3  A    between atoms: N_9  and  N_10
REMARK                            x       y       z     vdW  Elec       q    Type
REMARK                         _______ _______ _______ _____ _____    ______ ____
ROOT
ATOM      1  C   UNL     1       3.611   4.841  17.616  0.00  0.00    +0.000 C 
ATOM      2  N   UNL     1       4.453   4.109  16.956  0.00  0.00    +0.000 NA
ENDROOT
BRANCH   2   3
ATOM      3  N   UNL     1       5.380   4.786  16.222  0.00  0.00    +0.000 N 
ATOM      4  C   UNL     1       6.297   5.567  16.952  0.00  0.00    +0.000 A 
ATOM      5  N   UNL     1       6.680   5.185  18.191  0.00  0.00    +0.000 NA
ATOM      6  C   UNL     1       7.532   5.990  18.855  0.00  0.00    +0.000 A 
ATOM      7  C   UNL     1       8.021   7.155  18.330  0.00  0.00    +0.000 A 
ATOM      8  F   UNL     1       8.859   7.944  19.010  0.00  0.00    +0.000 F 
ATOM      9  C   UNL     1       7.593   7.463  17.064  0.00  0.00    +0.000 A 
ATOM     10  N   UNL     1       6.740   6.691  16.353  0.00  0.00    +0.000 NA
ATOM     11  H   UNL     1       5.062   5.354  15.441  0.00  0.00    +0.000 HD
ENDBRANCH   2   3
BRANCH   1  17
ATOM     12  C   UNL     1       2.312   4.679  19.748  0.00  0.00    +0.000 A 
ATOM     13  C   UNL     1       1.342   4.051  20.537  0.00  0.00    +0.000 A 
ATOM     14  C   UNL     1       0.650   2.943  20.042  0.00  0.00    +0.000 A 
ATOM     15  C   UNL     1       0.918   2.464  18.761  0.00  0.00    +0.000 A 
ATOM     16  C   UNL     1       1.879   3.093  17.972  0.00  0.00    +0.000 A 
ATOM     17  C   UNL     1       2.581   4.202  18.464  0.00  0.00    +0.000 A 
BRANCH  12  18
ATOM     18  O   UNL     1       2.996   5.754  20.243  0.00  0.00    +0.000 OA
ATOM     19  H   UNL     1       3.599   6.087  19.557  0.00  0.00    +0.000 HD
ENDBRANCH  12  18
ENDBRANCH   1  17
TORSDOF 3
ENDMDL
MODEL 5
REMARK VINA RESULT:      -6.9      2.960      3.540
REMARK  Name = 
REMARK  3 active torsions:
REMARK  status: ('A' for Active; 'I' for Inactive)
REMARK    1  A    between atoms: O_1  and  C_2
REMARK    2  A    between atoms: C_7  and  C_8
REMARK    3  A    between atoms: N_9  and  N_10
REMARK                            x       y       z     vdW  Elec       q    Type
REMARK                         _______ _______ _______ _____ _____    ______ ____
ROOT
ATOM      1  C   UNL     1       3.688   4.765  18.049  0.00  0.00    +0.000 C 
ATOM      2  N   UNL     1       4.731   4.158  17.578  0.00  0.00    +0.000 NA
ENDROOT
BRANCH   2   3
ATOM      3  N   UNL     1       5.500   4.882  16.716  0.00  0.00    +0.000 N 
ATOM      4  C   UNL     1       6.433   5.757  17.305  0.00  0.00    +0.000 A 
ATOM      5  N   UNL     1       6.998   5.449  18.494  0.00  0.00    +0.000 NA
ATOM      6  C   UNL     1       7.856   6.341  19.026  0.00  0.00    +0.000 A 
ATOM      7  C   UNL     1       8.178   7.523  18.416  0.00  0.00    +0.000 A 
ATOM      8  F   UNL     1       9.025   8.398  18.965  0.00  0.00    +0.000 F 
ATOM      9  C   UNL     1       7.571   7.753  17.207  0.00  0.00    +0.000 A 
ATOM     10  N   UNL     1       6.703   6.892  16.628  0.00  0.00    +0.000 NA
ATOM     11  H   UNL     1       5.041   5.396  15.969  0.00  0.00    +0.000 HD
ENDBRANCH   2   3
BRANCH   1  17
ATOM     12  C   UNL     1       2.033   2.978  18.620  0.00  0.00    +0.000 A 
ATOM     13  C   UNL     1       1.193   2.348  19.545  0.00  0.00    +0.000 A 
ATOM     14  C   UNL     1       1.120   2.823  20.857  0.00  0.00    +0.000 A 
ATOM     15  C   UNL     1       1.887   3.918  21.251  0.00  0.00    +0.000 A 
ATOM     16  C   UNL     1       2.729   4.542  20.332  0.00  0.00    +0.000 A 
ATOM     17  C   UNL     1       2.803   4.075  19.012  0.00  0.00    +0.000 A 
BRANCH  12  18
ATOM     18  O   UNL     1       2.091   2.518  17.334  0.00  0.00    +0.000 OA
ATOM     19  H   UNL     1       3.014   2.541  17.032  0.00  0.00    +0.000 HD
ENDBRANCH  12  18
ENDBRANCH   1  17
TORSDOF 3
ENDMDL
MODEL 6
REMARK VINA RESULT:      -6.9      1.339      1.420
REMARK  Name = 
REMARK  3 active torsions:
REMARK  status: ('A' for Active; 'I' for Inactive)
REMARK    1  A    between atoms: O_1  and  C_2
REMARK    2  A    between atoms: C_7  and  C_8
REMARK    3  A    between atoms: N_9  and  N_10
REMARK                            x       y       z     vdW  Elec       q    Type
REMARK                         _______ _______ _______ _____ _____    ______ ____
ROOT
ATOM      1  C   UNL     1       4.206   5.356  18.546  0.00  0.00    +0.000 C 
ATOM      2  N   UNL     1       4.953   4.769  17.665  0.00  0.00    +0.000 NA
ENDROOT
BRANCH   2   3
ATOM      3  N   UNL     1       5.733   5.590  16.907  0.00  0.00    +0.000 N 
ATOM      4  C   UNL     1       6.043   5.128  15.613  0.00  0.00    +0.000 A 
ATOM      5  N   UNL     1       5.166   4.350  14.941  0.00  0.00    +0.000 NA
ATOM      6  C   UNL     1       5.533   3.909  13.722  0.00  0.00    +0.000 A 
ATOM      7  C   UNL     1       6.735   4.218  13.146  0.00  0.00    +0.000 A 
ATOM      8  F   UNL     1       7.082   3.762  11.939  0.00  0.00    +0.000 F 
ATOM      9  C   UNL     1       7.561   5.022  13.889  0.00  0.00    +0.000 A 
ATOM     10  N   UNL     1       7.243   5.493  15.117  0.00  0.00    +0.000 NA
ATOM     11  H   UNL     1       6.594   5.950  17.309  0.00  0.00    +0.000 HD
ENDBRANCH   2   3
BRANCH   1  17
ATOM     12  C   UNL     1       3.789   3.342  19.971  0.00  0.00    +0.000 A 
ATOM     13  C   UNL     1       2.950   2.592  20.801  0.00  0.00    +0.000 A 
ATOM     14  C   UNL     1       1.661   3.050  21.088  0.00  0.00    +0.000 A 
ATOM     15  C   UNL     1       1.211   4.256  20.554  0.00  0.00    +0.000 A 
ATOM     16  C   UNL     1       2.049   5.008  19.733  0.00  0.00    +0.000 A 
ATOM     17  C   UNL     1       3.341   4.551  19.437  0.00  0.00    +0.000 A 
BRANCH  12  18
ATOM     18  O   UNL     1       5.044   2.883  19.684  0.00  0.00    +0.000 OA
ATOM     19  H   UNL     1       5.337   3.273  18.842  0.00  0.00    +0.000 HD
ENDBRANCH  12  18
ENDBRANCH   1  17
TORSDOF 3
ENDMDL
MODEL 7
REMARK VINA RESULT:      -6.8      1.156      1.645
REMARK  Name = 
REMARK  3 active torsions:
REMARK  status: ('A' for Active; 'I' for Inactive)
REMARK    1  A    between atoms: O_1  and  C_2
REMARK    2  A    between atoms: C_7  and  C_8
REMARK    3  A    between atoms: N_9  and  N_10
REMARK                            x       y       z     vdW  Elec       q    Type
REMARK                         _______ _______ _______ _____ _____    ______ ____
ROOT
ATOM      1  C   UNL     1       3.564   5.370  17.632  0.00  0.00    +0.000 C 
ATOM      2  N   UNL     1       4.824   5.073  17.663  0.00  0.00    +0.000 NA
ENDROOT
BRANCH   2   3
ATOM      3  N   UNL     1       5.631   5.825  16.863  0.00  0.00    +0.000 N 
ATOM      4  C   UNL     1       5.965   5.262  15.616  0.00  0.00    +0.000 A 
ATOM      5  N   UNL     1       5.094   4.444  14.984  0.00  0.00    +0.000 NA
ATOM      6  C   UNL     1       5.482   3.907  13.812  0.00  0.00    +0.000 A 
ATOM      7  C   UNL     1       6.701   4.159  13.242  0.00  0.00    +0.000 A 
ATOM      8  F   UNL     1       7.069   3.608  12.081  0.00  0.00    +0.000 F 
ATOM      9  C   UNL     1       7.519   5.009  13.940  0.00  0.00    +0.000 A 
ATOM     10  N   UNL     1       7.179   5.576  15.121  0.00  0.00    +0.000 NA
ATOM     11  H   UNL     1       6.487   6.206  17.256  0.00  0.00    +0.000 HD
ENDBRANCH   2   3
BRANCH   1  17
ATOM     12  C   UNL     1       2.448   4.951  19.832  0.00  0.00    +0.000 A 
ATOM     13  C   UNL     1       1.547   4.229  20.622  0.00  0.00    +0.000 A 
ATOM     14  C   UNL     1       0.814   3.180  20.061  0.00  0.00    +0.000 A 
ATOM     15  C   UNL     1       0.972   2.855  18.715  0.00  0.00    +0.000 A 
ATOM     16  C   UNL     1       1.865   3.579  17.926  0.00  0.00    +0.000 A 
ATOM     17  C   UNL     1       2.608   4.628  18.484  0.00  0.00    +0.000 A 
BRANCH  12  18
ATOM     18  O   UNL     1       3.173   5.968  20.389  0.00  0.00    +0.000 OA
ATOM     19  H   UNL     1       2.631   6.407  21.067  0.00  0.00    +0.000 HD
ENDBRANCH  12  18
ENDBRANCH   1  17
TORSDOF 3
ENDMDL
MODEL 8
REMARK VINA RESULT:      -6.6      4.134      6.915
REMARK  Name = 
REMARK  3 active torsions:
REMARK  status: ('A' for Active; 'I' for Inactive)
REMARK    1  A    between atoms: O_1  and  C_2
REMARK    2  A    between atoms: C_7  and  C_8
REMARK    3  A    between atoms: N_9  and  N_10
REMARK                            x       y       z     vdW  Elec       q    Type
REMARK                         _______ _______ _______ _____ _____    ______ ____
ROOT
ATOM      1  C   UNL     1       4.616   4.953  17.901  0.00  0.00    +0.000 C 
ATOM      2  N   UNL     1       3.476   5.540  17.716  0.00  0.00    +0.000 NA
ENDROOT
BRANCH   2   3
ATOM      3  N   UNL     1       2.390   4.720  17.645  0.00  0.00    +0.000 N 
ATOM      4  C   UNL     1       1.990   4.117  18.853  0.00  0.00    +0.000 A 
ATOM      5  N   UNL     1       2.176   4.759  20.028  0.00  0.00    +0.000 NA
ATOM      6  C   UNL     1       1.806   4.119  21.153  0.00  0.00    +0.000 A 
ATOM      7  C   UNL     1       1.252   2.867  21.153  0.00  0.00    +0.000 A 
ATOM      8  F   UNL     1       0.900   2.246  22.282  0.00  0.00    +0.000 F 
ATOM      9  C   UNL     1       1.085   2.291  19.919  0.00  0.00    +0.000 A 
ATOM     10  N   UNL     1       1.439   2.890  18.758  0.00  0.00    +0.000 NA
ATOM     11  H   UNL     1       2.374   3.996  16.932  0.00  0.00    +0.000 HD
ENDBRANCH   2   3
BRANCH   1  17
ATOM     12  C   UNL     1       6.151   6.754  17.088  0.00  0.00    +0.000 A 
ATOM     13  C   UNL     1       7.332   7.493  17.212  0.00  0.00    +0.000 A 
ATOM     14  C   UNL     1       8.215   7.227  18.261  0.00  0.00    +0.000 A 
ATOM     15  C   UNL     1       7.920   6.231  19.191  0.00  0.00    +0.000 A 
ATOM     16  C   UNL     1       6.740   5.499  19.072  0.00  0.00    +0.000 A 
ATOM     17  C   UNL     1       5.852   5.756  18.018  0.00  0.00    +0.000 A 
BRANCH  12  18
ATOM     18  O   UNL     1       5.297   7.009  16.052  0.00  0.00    +0.000 OA
ATOM     19  H   UNL     1       5.755   6.827  15.214  0.00  0.00    +0.000 HD
ENDBRANCH  12  18
ENDBRANCH   1  17
TORSDOF 3
ENDMDL
MODEL 9
REMARK VINA RESULT:      -6.5      4.104      6.537
REMARK  Name = 
REMARK  3 active torsions:
REMARK  status: ('A' for Active; 'I' for Inactive)
REMARK    1  A    between atoms: O_1  and  C_2
REMARK    2  A    between atoms: C_7  and  C_8
REMARK    3  A    between atoms: N_9  and  N_10
REMARK                            x       y       z     vdW  Elec       q    Type
REMARK                         _______ _______ _______ _____ _____    ______ ____
ROOT
ATOM      1  C   UNL     1       6.278   4.590  17.998  0.00  0.00    +0.000 C 
ATOM      2  N   UNL     1       5.528   4.253  16.997  0.00  0.00    +0.000 NA
ENDROOT
BRANCH   2   3
ATOM      3  N   UNL     1       4.951   3.021  17.077  0.00  0.00    +0.000 N 
ATOM      4  C   UNL     1       3.668   2.975  17.655  0.00  0.00    +0.000 A 
ATOM      5  N   UNL     1       2.823   4.022  17.521  0.00  0.00    +0.000 NA
ATOM      6  C   UNL     1       1.623   3.935  18.127  0.00  0.00    +0.000 A 
ATOM      7  C   UNL     1       1.230   2.844  18.854  0.00  0.00    +0.000 A 
ATOM      8  F   UNL     1       0.038   2.783  19.454  0.00  0.00    +0.000 F 
ATOM      9  C   UNL     1       2.141   1.821  18.930  0.00  0.00    +0.000 A 
ATOM     10  N   UNL     1       3.359   1.856  18.342  0.00  0.00    +0.000 NA
ATOM     11  H   UNL     1       5.487   2.258  17.481  0.00  0.00    +0.000 HD
ENDBRANCH   2   3
BRANCH   1  17
ATOM     12  C   UNL     1       7.919   6.217  18.959  0.00  0.00    +0.000 A 
ATOM     13  C   UNL     1       8.513   7.483  18.969  0.00  0.00    +0.000 A 
ATOM     14  C   UNL     1       8.110   8.450  18.044  0.00  0.00    +0.000 A 
ATOM     15  C   UNL     1       7.122   8.155  17.106  0.00  0.00    +0.000 A 
ATOM     16  C   UNL     1       6.535   6.891  17.091  0.00  0.00    +0.000 A 
ATOM     17  C   UNL     1       6.930   5.918  18.020  0.00  0.00    +0.000 A 
BRANCH  12  18
ATOM     18  O   UNL     1       8.307   5.279  19.874  0.00  0.00    +0.000 OA
ATOM     19  H   UNL     1       9.027   4.747  19.495  0.00  0.00    +0.000 HD
ENDBRANCH  12  18
ENDBRANCH   1  17
TORSDOF 3
ENDMDL
