MODEL 1
REMARK VINA RESULT:      -6.8      0.000      0.000
REMARK  Name = 
REMARK  13 active torsions:
REMARK  status: ('A' for Active; 'I' for Inactive)
REMARK    1  A    between atoms: C_1  and  S_2
REMARK    2  A    between atoms: S_2  and  C_3
REMARK    3  A    between atoms: C_3  and  C_4
REMARK    4  A    between atoms: C_4  and  C_5
REMARK    5  A    between atoms: C_5  and  N_6
REMARK    6  A    between atoms: C_5  and  C_17
REMARK    7  A    between atoms: C_7  and  C_9
REMARK    8  A    between atoms: C_9  and  O_10
REMARK    9  A    between atoms: O_10  and  C_11
REMARK   10  A    between atoms: N_19  and  C_20
REMARK   11  A    between atoms: N_19  and  C_21
REMARK   12  A    between atoms: C_21  and  C_22
REMARK   13  A    between atoms: N_24  and  C_25
REMARK                            x       y       z     vdW  Elec       q    Type
REMARK                         _______ _______ _______ _____ _____    ______ ____
ROOT
ATOM      1  C   UNL     1      -0.286  10.853  18.991  0.00  0.00    +0.000 C 
ENDROOT
BRANCH   1   2
ATOM      2  N   UNL     1       0.575  10.139  18.029  0.00  0.00    +0.000 N 
ATOM      3  C   UNL     1       1.539   9.182  18.169  0.00  0.00    +0.000 C 
ATOM      4  O   UNL     1       2.217   8.925  17.172  0.00  0.00    +0.000 OA
ATOM      5  H   UNL     1       0.658  10.573  17.114  0.00  0.00    +0.000 HD
BRANCH   3   6
ATOM      6  C   UNL     1       1.702   8.360  19.441  0.00  0.00    +0.000 C 
BRANCH   6   7
ATOM      7  O   UNL     1       2.703   7.379  19.242  0.00  0.00    +0.000 OA
BRANCH   7   8
ATOM      8  C   UNL     1       2.239   6.091  19.241  0.00  0.00    +0.000 A 
ATOM      9  C   UNL     1       1.787   5.616  20.470  0.00  0.00    +0.000 A 
ATOM     10  C   UNL     1       1.292   4.318  20.583  0.00  0.00    +0.000 A 
ATOM     11  C   UNL     1       1.220   3.498  19.459  0.00  0.00    +0.000 A 
ATOM     12  C   UNL     1       1.639   3.978  18.220  0.00  0.00    +0.000 A 
ATOM     13  C   UNL     1       2.148   5.279  18.115  0.00  0.00    +0.000 A 
ENDBRANCH   7   8
ENDBRANCH   6   7
ENDBRANCH   3   6
ENDBRANCH   1   2
BRANCH   1  14
ATOM     14  C   UNL     1       0.155  12.292  19.352  0.00  0.00    +0.000 C 
ATOM     15  O   UNL     1       0.304  13.147  18.478  0.00  0.00    +0.000 OA
ATOM     16  N   UNL     1       0.384  12.589  20.690  0.00  0.00    +0.000 N 
ATOM     17  C   UNL     1       0.964  13.881  21.034  0.00  0.00    +0.000 C 
BRANCH  16  18
ATOM     18  C   UNL     1       0.235  11.631  21.786  0.00  0.00    +0.000 C 
BRANCH  18  19
ATOM     19  C   UNL     1      -1.159  11.550  22.403  0.00  0.00    +0.000 C 
ATOM     20  O   UNL     1      -1.413  10.612  23.157  0.00  0.00    +0.000 OA
ATOM     21  N   UNL     1      -2.038  12.544  22.002  0.00  0.00    +0.000 N 
ATOM     22  H   UNL     1      -1.719  13.180  21.278  0.00  0.00    +0.000 HD
BRANCH  21  23
ATOM     23  C   UNL     1      -3.344  12.733  22.494  0.00  0.00    +0.000 A 
ATOM     24  C   UNL     1      -4.471  12.635  21.675  0.00  0.00    +0.000 A 
ATOM     25  C   UNL     1      -5.753  12.779  22.199  0.00  0.00    +0.000 A 
ATOM     26  C   UNL     1      -5.920  13.044  23.555  0.00  0.00    +0.000 A 
ATOM     27 CL   UNL     1      -7.501  13.187  24.203  0.00  0.00    +0.000 Cl
ATOM     28  C   UNL     1      -4.806  13.155  24.384  0.00  0.00    +0.000 A 
ATOM     29  C   UNL     1      -3.517  12.996  23.855  0.00  0.00    +0.000 A 
ENDBRANCH  21  23
ENDBRANCH  18  19
ENDBRANCH  16  18
ENDBRANCH   1  14
BRANCH   1  30
ATOM     30  C   UNL     1      -1.768  10.782  18.590  0.00  0.00    +0.000 C 
BRANCH  30  31
ATOM     31  C   UNL     1      -1.979  11.096  17.100  0.00  0.00    +0.000 C 
BRANCH  31  33
ATOM     32  C   UNL     1      -4.621  11.706  17.630  0.00  0.00    +0.000 C 
ATOM     33  S   UNL     1      -3.645  10.656  16.519  0.00  0.00    +0.000 S 
ENDBRANCH  31  33
ENDBRANCH  30  31
ENDBRANCH   1  30
TORSDOF 11
ENDMDL
MODEL 2
REMARK VINA RESULT:      -6.6      6.155     11.297
REMARK  Name = 
REMARK  13 active torsions:
REMARK  status: ('A' for Active; 'I' for Inactive)
REMARK    1  A    between atoms: C_1  and  S_2
REMARK    2  A    between atoms: S_2  and  C_3
REMARK    3  A    between atoms: C_3  and  C_4
REMARK    4  A    between atoms: C_4  and  C_5
REMARK    5  A    between atoms: C_5  and  N_6
REMARK    6  A    between atoms: C_5  and  C_17
REMARK    7  A    between atoms: C_7  and  C_9
REMARK    8  A    between atoms: C_9  and  O_10
REMARK    9  A    between atoms: O_10  and  C_11
REMARK   10  A    between atoms: N_19  and  C_20
REMARK   11  A    between atoms: N_19  and  C_21
REMARK   12  A    between atoms: C_21  and  C_22
REMARK   13  A    between atoms: N_24  and  C_25
REMARK                            x       y       z     vdW  Elec       q    Type
REMARK                         _______ _______ _______ _____ _____    ______ ____
ROOT
ATOM      1  C   UNL     1       3.854   5.734  18.570  0.00  0.00    +0.000 C 
ENDROOT
BRANCH   1   2
ATOM      2  N   UNL     1       2.936   6.224  19.615  0.00  0.00    +0.000 N 
ATOM      3  C   UNL     1       2.214   7.374  19.761  0.00  0.00    +0.000 C 
ATOM      4  O   UNL     1       1.683   7.563  20.858  0.00  0.00    +0.000 OA
ATOM      5  H   UNL     1       3.006   5.751  20.511  0.00  0.00    +0.000 HD
BRANCH   3   6
ATOM      6  C   UNL     1       1.947   8.328  18.605  0.00  0.00    +0.000 C 
BRANCH   6   7
ATOM      7  O   UNL     1       1.713   9.629  19.112  0.00  0.00    +0.000 OA
BRANCH   7   8
ATOM      8  C   UNL     1       0.449  10.104  18.889  0.00  0.00    +0.000 A 
ATOM      9  C   UNL     1      -0.193   9.592  17.764  0.00  0.00    +0.000 A 
ATOM     10  C   UNL     1      -1.485  10.005  17.443  0.00  0.00    +0.000 A 
ATOM     11  C   UNL     1      -2.152  10.912  18.264  0.00  0.00    +0.000 A 
ATOM     12  C   UNL     1      -1.529  11.401  19.409  0.00  0.00    +0.000 A 
ATOM     13  C   UNL     1      -0.225  10.993  19.720  0.00  0.00    +0.000 A 
ENDBRANCH   7   8
ENDBRANCH   6   7
ENDBRANCH   3   6
ENDBRANCH   1   2
BRANCH   1  14
ATOM     14  C   UNL     1       5.308   5.459  19.024  0.00  0.00    +0.000 C 
ATOM     15  O   UNL     1       5.549   4.660  19.929  0.00  0.00    +0.000 OA
ATOM     16  N   UNL     1       6.334   6.146  18.384  0.00  0.00    +0.000 N 
ATOM     17  C   UNL     1       7.689   6.034  18.909  0.00  0.00    +0.000 C 
BRANCH  16  18
ATOM     18  C   UNL     1       6.132   7.114  17.305  0.00  0.00    +0.000 C 
BRANCH  18  19
ATOM     19  C   UNL     1       5.873   6.515  15.925  0.00  0.00    +0.000 C 
ATOM     20  O   UNL     1       5.000   7.020  15.221  0.00  0.00    +0.000 OA
ATOM     21  N   UNL     1       6.636   5.400  15.616  0.00  0.00    +0.000 N 
ATOM     22  H   UNL     1       7.230   5.026  16.350  0.00  0.00    +0.000 HD
BRANCH  21  23
ATOM     23  C   UNL     1       6.641   4.726  14.379  0.00  0.00    +0.000 A 
ATOM     24  C   UNL     1       7.574   5.009  13.379  0.00  0.00    +0.000 A 
ATOM     25  C   UNL     1       7.584   4.293  12.184  0.00  0.00    +0.000 A 
ATOM     26  C   UNL     1       6.642   3.292  11.970  0.00  0.00    +0.000 A 
ATOM     27 CL   UNL     1       6.680   2.389  10.513  0.00  0.00    +0.000 Cl
ATOM     28  C   UNL     1       5.699   3.003  12.953  0.00  0.00    +0.000 A 
ATOM     29  C   UNL     1       5.699   3.717  14.160  0.00  0.00    +0.000 A 
ENDBRANCH  21  23
ENDBRANCH  18  19
ENDBRANCH  16  18
ENDBRANCH   1  14
BRANCH   1  30
ATOM     30  C   UNL     1       3.254   4.552  17.794  0.00  0.00    +0.000 C 
BRANCH  30  31
ATOM     31  C   UNL     1       1.857   4.171  18.309  0.00  0.00    +0.000 C 
BRANCH  31  33
ATOM     32  C   UNL     1       3.366   1.860  18.196  0.00  0.00    +0.000 C 
ATOM     33  S   UNL     1       1.680   2.386  18.605  0.00  0.00    +0.000 S 
ENDBRANCH  31  33
ENDBRANCH  30  31
ENDBRANCH   1  30
TORSDOF 11
ENDMDL
MODEL 3
REMARK VINA RESULT:      -6.6      4.709      7.642
REMARK  Name = 
REMARK  13 active torsions:
REMARK  status: ('A' for Active; 'I' for Inactive)
REMARK    1  A    between atoms: C_1  and  S_2
REMARK    2  A    between atoms: S_2  and  C_3
REMARK    3  A    between atoms: C_3  and  C_4
REMARK    4  A    between atoms: C_4  and  C_5
REMARK    5  A    between atoms: C_5  and  N_6
REMARK    6  A    between atoms: C_5  and  C_17
REMARK    7  A    between atoms: C_7  and  C_9
REMARK    8  A    between atoms: C_9  and  O_10
REMARK    9  A    between atoms: O_10  and  C_11
REMARK   10  A    between atoms: N_19  and  C_20
REMARK   11  A    between atoms: N_19  and  C_21
REMARK   12  A    between atoms: C_21  and  C_22
REMARK   13  A    between atoms: N_24  and  C_25
REMARK                            x       y       z     vdW  Elec       q    Type
REMARK                         _______ _______ _______ _____ _____    ______ ____
ROOT
ATOM      1  C   UNL     1       4.424   3.783  19.071  0.00  0.00    +0.000 C 
ENDROOT
BRANCH   1   2
ATOM      2  N   UNL     1       5.877   3.969  18.897  0.00  0.00    +0.000 N 
ATOM      3  C   UNL     1       6.637   4.507  17.898  0.00  0.00    +0.000 C 
ATOM      4  O   UNL     1       7.857   4.338  17.975  0.00  0.00    +0.000 OA
ATOM      5  H   UNL     1       6.463   3.402  19.502  0.00  0.00    +0.000 HD
BRANCH   3   6
ATOM      6  C   UNL     1       6.052   5.391  16.806  0.00  0.00    +0.000 C 
BRANCH   6   7
ATOM      7  O   UNL     1       7.043   5.650  15.828  0.00  0.00    +0.000 OA
BRANCH   7   8
ATOM      8  C   UNL     1       6.832   5.022  14.630  0.00  0.00    +0.000 A 
ATOM      9  C   UNL     1       5.646   4.297  14.535  0.00  0.00    +0.000 A 
ATOM     10  C   UNL     1       5.329   3.619  13.360  0.00  0.00    +0.000 A 
ATOM     11  C   UNL     1       6.185   3.686  12.262  0.00  0.00    +0.000 A 
ATOM     12  C   UNL     1       7.356   4.437  12.339  0.00  0.00    +0.000 A 
ATOM     13  C   UNL     1       7.676   5.106  13.528  0.00  0.00    +0.000 A 
ENDBRANCH   7   8
ENDBRANCH   6   7
ENDBRANCH   3   6
ENDBRANCH   1   2
BRANCH   1  14
ATOM     14  C   UNL     1       3.522   4.560  18.083  0.00  0.00    +0.000 C 
ATOM     15  O   UNL     1       3.317   4.137  16.944  0.00  0.00    +0.000 OA
ATOM     16  N   UNL     1       2.952   5.752  18.516  0.00  0.00    +0.000 N 
ATOM     17  C   UNL     1       2.244   6.585  17.551  0.00  0.00    +0.000 C 
BRANCH  16  18
ATOM     18  C   UNL     1       3.149   6.325  19.848  0.00  0.00    +0.000 C 
BRANCH  18  19
ATOM     19  C   UNL     1       1.912   6.960  20.479  0.00  0.00    +0.000 C 
ATOM     20  O   UNL     1       0.996   6.224  20.843  0.00  0.00    +0.000 OA
ATOM     21  N   UNL     1       1.927   8.345  20.536  0.00  0.00    +0.000 N 
ATOM     22  H   UNL     1       2.702   8.819  20.083  0.00  0.00    +0.000 HD
BRANCH  21  23
ATOM     23  C   UNL     1       0.947   9.152  21.146  0.00  0.00    +0.000 A 
ATOM     24  C   UNL     1       0.698   9.113  22.520  0.00  0.00    +0.000 A 
ATOM     25  C   UNL     1      -0.244   9.957  23.102  0.00  0.00    +0.000 A 
ATOM     26  C   UNL     1      -0.965  10.842  22.306  0.00  0.00    +0.000 A 
ATOM     27 CL   UNL     1      -2.099  11.904  23.031  0.00  0.00    +0.000 Cl
ATOM     28  C   UNL     1      -0.736  10.887  20.933  0.00  0.00    +0.000 A 
ATOM     29  C   UNL     1       0.223  10.045  20.351  0.00  0.00    +0.000 A 
ENDBRANCH  21  23
ENDBRANCH  18  19
ENDBRANCH  16  18
ENDBRANCH   1  14
BRANCH   1  30
ATOM     30  C   UNL     1       4.046   2.296  19.157  0.00  0.00    +0.000 C 
BRANCH  30  31
ATOM     31  C   UNL     1       2.550   2.063  18.897  0.00  0.00    +0.000 C 
BRANCH  31  33
ATOM     32  C   UNL     1       2.553   2.436  21.634  0.00  0.00    +0.000 C 
ATOM     33  S   UNL     1       1.493   2.764  20.200  0.00  0.00    +0.000 S 
ENDBRANCH  31  33
ENDBRANCH  30  31
ENDBRANCH   1  30
TORSDOF 11
ENDMDL
MODEL 4
REMARK VINA RESULT:      -6.4      4.039      6.073
REMARK  Name = 
REMARK  13 active torsions:
REMARK  status: ('A' for Active; 'I' for Inactive)
REMARK    1  A    between atoms: C_1  and  S_2
REMARK    2  A    between atoms: S_2  and  C_3
REMARK    3  A    between atoms: C_3  and  C_4
REMARK    4  A    between atoms: C_4  and  C_5
REMARK    5  A    between atoms: C_5  and  N_6
REMARK    6  A    between atoms: C_5  and  C_17
REMARK    7  A    between atoms: C_7  and  C_9
REMARK    8  A    between atoms: C_9  and  O_10
REMARK    9  A    between atoms: O_10  and  C_11
REMARK   10  A    between atoms: N_19  and  C_20
REMARK   11  A    between atoms: N_19  and  C_21
REMARK   12  A    between atoms: C_21  and  C_22
REMARK   13  A    between atoms: N_24  and  C_25
REMARK                            x       y       z     vdW  Elec       q    Type
REMARK                         _______ _______ _______ _____ _____    ______ ____
ROOT
ATOM      1  C   UNL     1       2.638   6.096  19.305  0.00  0.00    +0.000 C 
ENDROOT
BRANCH   1   2
ATOM      2  N   UNL     1       4.007   5.785  19.758  0.00  0.00    +0.000 N 
ATOM      3  C   UNL     1       5.139   5.387  19.106  0.00  0.00    +0.000 C 
ATOM      4  O   UNL     1       6.086   5.023  19.808  0.00  0.00    +0.000 OA
ATOM      5  H   UNL     1       4.105   5.601  20.752  0.00  0.00    +0.000 HD
BRANCH   3   6
ATOM      6  C   UNL     1       5.304   5.506  17.597  0.00  0.00    +0.000 C 
BRANCH   6   7
ATOM      7  O   UNL     1       5.791   4.281  17.079  0.00  0.00    +0.000 OA
BRANCH   7   8
ATOM      8  C   UNL     1       6.039   4.297  15.733  0.00  0.00    +0.000 A 
ATOM      9  C   UNL     1       7.159   5.025  15.339  0.00  0.00    +0.000 A 
ATOM     10  C   UNL     1       7.506   5.107  13.992  0.00  0.00    +0.000 A 
ATOM     11  C   UNL     1       6.749   4.435  13.034  0.00  0.00    +0.000 A 
ATOM     12  C   UNL     1       5.648   3.677  13.425  0.00  0.00    +0.000 A 
ATOM     13  C   UNL     1       5.296   3.609  14.779  0.00  0.00    +0.000 A 
ENDBRANCH   7   8
ENDBRANCH   6   7
ENDBRANCH   3   6
ENDBRANCH   1   2
BRANCH   1  14
ATOM     14  C   UNL     1       2.447   7.475  18.629  0.00  0.00    +0.000 C 
ATOM     15  O   UNL     1       2.934   7.711  17.522  0.00  0.00    +0.000 OA
ATOM     16  N   UNL     1       1.716   8.442  19.310  0.00  0.00    +0.000 N 
ATOM     17  C   UNL     1       1.671   9.796  18.773  0.00  0.00    +0.000 C 
BRANCH  16  18
ATOM     18  C   UNL     1       1.111   8.243  20.627  0.00  0.00    +0.000 C 
BRANCH  18  19
ATOM     19  C   UNL     1       0.816   9.518  21.413  0.00  0.00    +0.000 C 
ATOM     20  O   UNL     1       1.634   9.893  22.251  0.00  0.00    +0.000 OA
ATOM     21  N   UNL     1      -0.403  10.115  21.129  0.00  0.00    +0.000 N 
ATOM     22  H   UNL     1      -1.026   9.619  20.499  0.00  0.00    +0.000 HD
BRANCH  21  23
ATOM     23  C   UNL     1      -0.861  11.337  21.656  0.00  0.00    +0.000 A 
ATOM     24  C   UNL     1      -1.471  11.428  22.910  0.00  0.00    +0.000 A 
ATOM     25  C   UNL     1      -1.871  12.658  23.426  0.00  0.00    +0.000 A 
ATOM     26  C   UNL     1      -1.680  13.816  22.679  0.00  0.00    +0.000 A 
ATOM     27 CL   UNL     1      -2.143  15.332  23.332  0.00  0.00    +0.000 Cl
ATOM     28  C   UNL     1      -1.083  13.742  21.422  0.00  0.00    +0.000 A 
ATOM     29  C   UNL     1      -0.670  12.504  20.911  0.00  0.00    +0.000 A 
ENDBRANCH  21  23
ENDBRANCH  18  19
ENDBRANCH  16  18
ENDBRANCH   1  14
BRANCH   1  30
ATOM     30  C   UNL     1       2.041   4.952  18.470  0.00  0.00    +0.000 C 
BRANCH  30  31
ATOM     31  C   UNL     1       1.377   3.880  19.349  0.00  0.00    +0.000 C 
BRANCH  31  33
ATOM     32  C   UNL     1       2.990   2.259  17.799  0.00  0.00    +0.000 C 
ATOM     33  S   UNL     1       2.386   2.375  19.504  0.00  0.00    +0.000 S 
ENDBRANCH  31  33
ENDBRANCH  30  31
ENDBRANCH   1  30
TORSDOF 11
ENDMDL
MODEL 5
REMARK VINA RESULT:      -6.4      1.367      1.772
REMARK  Name = 
REMARK  13 active torsions:
REMARK  status: ('A' for Active; 'I' for Inactive)
REMARK    1  A    between atoms: C_1  and  S_2
REMARK    2  A    between atoms: S_2  and  C_3
REMARK    3  A    between atoms: C_3  and  C_4
REMARK    4  A    between atoms: C_4  and  C_5
REMARK    5  A    between atoms: C_5  and  N_6
REMARK    6  A    between atoms: C_5  and  C_17
REMARK    7  A    between atoms: C_7  and  C_9
REMARK    8  A    between atoms: C_9  and  O_10
REMARK    9  A    between atoms: O_10  and  C_11
REMARK   10  A    between atoms: N_19  and  C_20
REMARK   11  A    between atoms: N_19  and  C_21
REMARK   12  A    between atoms: C_21  and  C_22
REMARK   13  A    between atoms: N_24  and  C_25
REMARK                            x       y       z     vdW  Elec       q    Type
REMARK                         _______ _______ _______ _____ _____    ______ ____
ROOT
ATOM      1  C   UNL     1       0.866  10.586  19.080  0.00  0.00    +0.000 C 
ENDROOT
BRANCH   1   2
ATOM      2  N   UNL     1       1.549   9.724  18.097  0.00  0.00    +0.000 N 
ATOM      3  C   UNL     1       2.239   8.550  18.204  0.00  0.00    +0.000 C 
ATOM      4  O   UNL     1       2.860   8.177  17.205  0.00  0.00    +0.000 OA
ATOM      5  H   UNL     1       1.764  10.164  17.207  0.00  0.00    +0.000 HD
BRANCH   3   6
ATOM      6  C   UNL     1       2.155   7.656  19.434  0.00  0.00    +0.000 C 
BRANCH   6   7
ATOM      7  O   UNL     1       2.926   6.488  19.221  0.00  0.00    +0.000 OA
BRANCH   7   8
ATOM      8  C   UNL     1       2.242   5.318  19.407  0.00  0.00    +0.000 A 
ATOM      9  C   UNL     1       2.028   4.560  18.258  0.00  0.00    +0.000 A 
ATOM     10  C   UNL     1       1.342   3.348  18.332  0.00  0.00    +0.000 A 
ATOM     11  C   UNL     1       0.893   2.875  19.563  0.00  0.00    +0.000 A 
ATOM     12  C   UNL     1       1.134   3.611  20.720  0.00  0.00    +0.000 A 
ATOM     13  C   UNL     1       1.811   4.835  20.639  0.00  0.00    +0.000 A 
ENDBRANCH   7   8
ENDBRANCH   6   7
ENDBRANCH   3   6
ENDBRANCH   1   2
BRANCH   1  14
ATOM     14  C   UNL     1       1.273  12.079  19.064  0.00  0.00    +0.000 C 
ATOM     15  O   UNL     1       1.921  12.549  18.129  0.00  0.00    +0.000 OA
ATOM     16  N   UNL     1       0.890  12.873  20.139  0.00  0.00    +0.000 N 
ATOM     17  C   UNL     1       1.407  14.233  20.229  0.00  0.00    +0.000 C 
BRANCH  16  18
ATOM     18  C   UNL     1       0.125  12.391  21.290  0.00  0.00    +0.000 C 
BRANCH  18  19
ATOM     19  C   UNL     1      -1.298  12.932  21.406  0.00  0.00    +0.000 C 
ATOM     20  O   UNL     1      -1.927  13.154  20.373  0.00  0.00    +0.000 OA
ATOM     21  N   UNL     1      -1.733  13.171  22.700  0.00  0.00    +0.000 N 
ATOM     22  H   UNL     1      -1.054  13.053  23.447  0.00  0.00    +0.000 HD
BRANCH  21  23
ATOM     23  C   UNL     1      -3.027  13.586  23.069  0.00  0.00    +0.000 A 
ATOM     24  C   UNL     1      -3.361  14.932  23.230  0.00  0.00    +0.000 A 
ATOM     25  C   UNL     1      -4.662  15.315  23.548  0.00  0.00    +0.000 A 
ATOM     26  C   UNL     1      -5.644  14.346  23.728  0.00  0.00    +0.000 A 
ATOM     27 CL   UNL     1      -7.251  14.823  24.086  0.00  0.00    +0.000 Cl
ATOM     28  C   UNL     1      -5.325  12.998  23.581  0.00  0.00    +0.000 A 
ATOM     29  C   UNL     1      -4.017  12.616  23.248  0.00  0.00    +0.000 A 
ENDBRANCH  21  23
ENDBRANCH  18  19
ENDBRANCH  16  18
ENDBRANCH   1  14
BRANCH   1  30
ATOM     30  C   UNL     1      -0.658  10.398  19.041  0.00  0.00    +0.000 C 
BRANCH  30  31
ATOM     31  C   UNL     1      -1.178  10.184  17.610  0.00  0.00    +0.000 C 
BRANCH  31  33
ATOM     32  C   UNL     1      -2.847  10.764  15.487  0.00  0.00    +0.000 C 
ATOM     33  S   UNL     1      -2.641  11.197  17.235  0.00  0.00    +0.000 S 
ENDBRANCH  31  33
ENDBRANCH  30  31
ENDBRANCH   1  30
TORSDOF 11
ENDMDL
MODEL 6
REMARK VINA RESULT:      -6.3      6.144     11.215
REMARK  Name = 
REMARK  13 active torsions:
REMARK  status: ('A' for Active; 'I' for Inactive)
REMARK    1  A    between atoms: C_1  and  S_2
REMARK    2  A    between atoms: S_2  and  C_3
REMARK    3  A    between atoms: C_3  and  C_4
REMARK    4  A    between atoms: C_4  and  C_5
REMARK    5  A    between atoms: C_5  and  N_6
REMARK    6  A    between atoms: C_5  and  C_17
REMARK    7  A    between atoms: C_7  and  C_9
REMARK    8  A    between atoms: C_9  and  O_10
REMARK    9  A    between atoms: O_10  and  C_11
REMARK   10  A    between atoms: N_19  and  C_20
REMARK   11  A    between atoms: N_19  and  C_21
REMARK   12  A    between atoms: C_21  and  C_22
REMARK   13  A    between atoms: N_24  and  C_25
REMARK                            x       y       z     vdW  Elec       q    Type
REMARK                         _______ _______ _______ _____ _____    ______ ____
ROOT
ATOM      1  C   UNL     1       4.634   5.353  18.704  0.00  0.00    +0.000 C 
ENDROOT
BRANCH   1   2
ATOM      2  N   UNL     1       3.675   6.037  19.593  0.00  0.00    +0.000 N 
ATOM      3  C   UNL     1       2.791   7.059  19.402  0.00  0.00    +0.000 C 
ATOM      4  O   UNL     1       2.261   7.532  20.410  0.00  0.00    +0.000 OA
ATOM      5  H   UNL     1       3.836   5.908  20.587  0.00  0.00    +0.000 HD
BRANCH   3   6
ATOM      6  C   UNL     1       2.356   7.522  18.018  0.00  0.00    +0.000 C 
BRANCH   6   7
ATOM      7  O   UNL     1       2.633   8.903  17.874  0.00  0.00    +0.000 OA
BRANCH   7   8
ATOM      8  C   UNL     1       1.565   9.723  18.121  0.00  0.00    +0.000 A 
ATOM      9  C   UNL     1       0.335   9.256  17.665  0.00  0.00    +0.000 A 
ATOM     10  C   UNL     1      -0.821  10.010  17.864  0.00  0.00    +0.000 A 
ATOM     11  C   UNL     1      -0.753  11.222  18.548  0.00  0.00    +0.000 A 
ATOM     12  C   UNL     1       0.468  11.677  19.037  0.00  0.00    +0.000 A 
ATOM     13  C   UNL     1       1.628  10.922  18.822  0.00  0.00    +0.000 A 
ENDBRANCH   7   8
ENDBRANCH   6   7
ENDBRANCH   3   6
ENDBRANCH   1   2
BRANCH   1  14
ATOM     14  C   UNL     1       6.131   5.604  19.007  0.00  0.00    +0.000 C 
ATOM     15  O   UNL     1       6.719   4.959  19.876  0.00  0.00    +0.000 OA
ATOM     16  N   UNL     1       6.792   6.583  18.273  0.00  0.00    +0.000 N 
ATOM     17  C   UNL     1       8.147   6.955  18.657  0.00  0.00    +0.000 C 
BRANCH  16  18
ATOM     18  C   UNL     1       6.165   7.395  17.229  0.00  0.00    +0.000 C 
BRANCH  18  19
ATOM     19  C   UNL     1       5.844   6.660  15.929  0.00  0.00    +0.000 C 
ATOM     20  O   UNL     1       4.843   6.995  15.298  0.00  0.00    +0.000 OA
ATOM     21  N   UNL     1       6.712   5.628  15.608  0.00  0.00    +0.000 N 
ATOM     22  H   UNL     1       7.424   5.390  16.293  0.00  0.00    +0.000 HD
BRANCH  21  23
ATOM     23  C   UNL     1       6.676   4.863  14.426  0.00  0.00    +0.000 A 
ATOM     24  C   UNL     1       7.528   5.116  13.348  0.00  0.00    +0.000 A 
ATOM     25  C   UNL     1       7.503   4.313  12.210  0.00  0.00    +0.000 A 
ATOM     26  C   UNL     1       6.605   3.253  12.132  0.00  0.00    +0.000 A 
ATOM     27 CL   UNL     1       6.601   2.247  10.744  0.00  0.00    +0.000 Cl
ATOM     28  C   UNL     1       5.742   2.994  13.194  0.00  0.00    +0.000 A 
ATOM     29  C   UNL     1       5.778   3.796  14.343  0.00  0.00    +0.000 A 
ENDBRANCH  21  23
ENDBRANCH  18  19
ENDBRANCH  16  18
ENDBRANCH   1  14
BRANCH   1  30
ATOM     30  C   UNL     1       4.312   3.857  18.563  0.00  0.00    +0.000 C 
BRANCH  30  31
ATOM     31  C   UNL     1       3.010   3.475  19.285  0.00  0.00    +0.000 C 
BRANCH  31  33
ATOM     32  C   UNL     1       0.580   2.209  18.936  0.00  0.00    +0.000 C 
ATOM     33  S   UNL     1       1.556   3.545  18.195  0.00  0.00    +0.000 S 
ENDBRANCH  31  33
ENDBRANCH  30  31
ENDBRANCH   1  30
TORSDOF 11
ENDMDL
MODEL 7
REMARK VINA RESULT:      -6.3      4.994      8.039
REMARK  Name = 
REMARK  13 active torsions:
REMARK  status: ('A' for Active; 'I' for Inactive)
REMARK    1  A    between atoms: C_1  and  S_2
REMARK    2  A    between atoms: S_2  and  C_3
REMARK    3  A    between atoms: C_3  and  C_4
REMARK    4  A    between atoms: C_4  and  C_5
REMARK    5  A    between atoms: C_5  and  N_6
REMARK    6  A    between atoms: C_5  and  C_17
REMARK    7  A    between atoms: C_7  and  C_9
REMARK    8  A    between atoms: C_9  and  O_10
REMARK    9  A    between atoms: O_10  and  C_11
REMARK   10  A    between atoms: N_19  and  C_20
REMARK   11  A    between atoms: N_19  and  C_21
REMARK   12  A    between atoms: C_21  and  C_22
REMARK   13  A    between atoms: N_24  and  C_25
REMARK                            x       y       z     vdW  Elec       q    Type
REMARK                         _______ _______ _______ _____ _____    ______ ____
ROOT
ATOM      1  C   UNL     1       5.109   4.433  19.129  0.00  0.00    +0.000 C 
ENDROOT
BRANCH   1   2
ATOM      2  N   UNL     1       6.442   4.209  18.539  0.00  0.00    +0.000 N 
ATOM      3  C   UNL     1       7.018   4.589  17.360  0.00  0.00    +0.000 C 
ATOM      4  O   UNL     1       8.102   4.072  17.078  0.00  0.00    +0.000 OA
ATOM      5  H   UNL     1       6.977   3.448  18.948  0.00  0.00    +0.000 HD
BRANCH   3   6
ATOM      6  C   UNL     1       6.444   5.694  16.484  0.00  0.00    +0.000 C 
BRANCH   6   7
ATOM      7  O   UNL     1       7.272   5.875  15.350  0.00  0.00    +0.000 OA
BRANCH   7   8
ATOM      8  C   UNL     1       6.936   5.096  14.276  0.00  0.00    +0.000 A 
ATOM      9  C   UNL     1       5.719   4.427  14.379  0.00  0.00    +0.000 A 
ATOM     10  C   UNL     1       5.277   3.607  13.341  0.00  0.00    +0.000 A 
ATOM     11  C   UNL     1       6.040   3.476  12.183  0.00  0.00    +0.000 A 
ATOM     12  C   UNL     1       7.241   4.170  12.059  0.00  0.00    +0.000 A 
ATOM     13  C   UNL     1       7.687   4.982  13.110  0.00  0.00    +0.000 A 
ENDBRANCH   7   8
ENDBRANCH   6   7
ENDBRANCH   3   6
ENDBRANCH   1   2
BRANCH   1  14
ATOM     14  C   UNL     1       3.916   4.367  18.146  0.00  0.00    +0.000 C 
ATOM     15  O   UNL     1       3.943   3.621  17.167  0.00  0.00    +0.000 OA
ATOM     16  N   UNL     1       2.816   5.179  18.396  0.00  0.00    +0.000 N 
ATOM     17  C   UNL     1       1.760   5.263  17.395  0.00  0.00    +0.000 C 
BRANCH  16  18
ATOM     18  C   UNL     1       2.709   6.096  19.532  0.00  0.00    +0.000 C 
BRANCH  18  19
ATOM     19  C   UNL     1       2.347   7.537  19.182  0.00  0.00    +0.000 C 
ATOM     20  O   UNL     1       2.895   8.060  18.212  0.00  0.00    +0.000 OA
ATOM     21  N   UNL     1       1.449   8.145  20.045  0.00  0.00    +0.000 N 
ATOM     22  H   UNL     1       1.177   7.623  20.873  0.00  0.00    +0.000 HD
BRANCH  21  23
ATOM     23  C   UNL     1       0.899   9.431  19.886  0.00  0.00    +0.000 A 
ATOM     24  C   UNL     1       0.931  10.388  20.903  0.00  0.00    +0.000 A 
ATOM     25  C   UNL     1       0.422  11.668  20.700  0.00  0.00    +0.000 A 
ATOM     26  C   UNL     1      -0.146  12.000  19.474  0.00  0.00    +0.000 A 
ATOM     27 CL   UNL     1      -0.742  13.587  19.216  0.00  0.00    +0.000 Cl
ATOM     28  C   UNL     1      -0.196  11.054  18.452  0.00  0.00    +0.000 A 
ATOM     29  C   UNL     1       0.329   9.770  18.655  0.00  0.00    +0.000 A 
ENDBRANCH  21  23
ENDBRANCH  18  19
ENDBRANCH  16  18
ENDBRANCH   1  14
BRANCH   1  30
ATOM     30  C   UNL     1       4.885   3.561  20.375  0.00  0.00    +0.000 C 
BRANCH  30  31
ATOM     31  C   UNL     1       3.744   2.551  20.176  0.00  0.00    +0.000 C 
BRANCH  31  33
ATOM     32  C   UNL     1       1.000   2.867  20.249  0.00  0.00    +0.000 C 
ATOM     33  S   UNL     1       2.405   2.756  21.390  0.00  0.00    +0.000 S 
ENDBRANCH  31  33
ENDBRANCH  30  31
ENDBRANCH   1  30
TORSDOF 11
ENDMDL
MODEL 8
REMARK VINA RESULT:      -6.2      1.953      2.303
REMARK  Name = 
REMARK  13 active torsions:
REMARK  status: ('A' for Active; 'I' for Inactive)
REMARK    1  A    between atoms: C_1  and  S_2
REMARK    2  A    between atoms: S_2  and  C_3
REMARK    3  A    between atoms: C_3  and  C_4
REMARK    4  A    between atoms: C_4  and  C_5
REMARK    5  A    between atoms: C_5  and  N_6
REMARK    6  A    between atoms: C_5  and  C_17
REMARK    7  A    between atoms: C_7  and  C_9
REMARK    8  A    between atoms: C_9  and  O_10
REMARK    9  A    between atoms: O_10  and  C_11
REMARK   10  A    between atoms: N_19  and  C_20
REMARK   11  A    between atoms: N_19  and  C_21
REMARK   12  A    between atoms: C_21  and  C_22
REMARK   13  A    between atoms: N_24  and  C_25
REMARK                            x       y       z     vdW  Elec       q    Type
REMARK                         _______ _______ _______ _____ _____    ______ ____
ROOT
ATOM      1  C   UNL     1       0.995  10.963  18.718  0.00  0.00    +0.000 C 
ENDROOT
BRANCH   1   2
ATOM      2  N   UNL     1       1.636   9.985  17.819  0.00  0.00    +0.000 N 
ATOM      3  C   UNL     1       2.206   8.761  18.023  0.00  0.00    +0.000 C 
ATOM      4  O   UNL     1       2.832   8.274  17.078  0.00  0.00    +0.000 OA
ATOM      5  H   UNL     1       1.931  10.350  16.918  0.00  0.00    +0.000 HD
BRANCH   3   6
ATOM      6  C   UNL     1       1.982   7.952  19.294  0.00  0.00    +0.000 C 
BRANCH   6   7
ATOM      7  O   UNL     1       2.880   6.858  19.320  0.00  0.00    +0.000 OA
BRANCH   7   8
ATOM      8  C   UNL     1       2.275   5.631  19.302  0.00  0.00    +0.000 A 
ATOM      9  C   UNL     1       1.847   5.156  20.539  0.00  0.00    +0.000 A 
ATOM     10  C   UNL     1       1.217   3.916  20.637  0.00  0.00    +0.000 A 
ATOM     11  C   UNL     1       0.985   3.159  19.491  0.00  0.00    +0.000 A 
ATOM     12  C   UNL     1       1.379   3.644  18.246  0.00  0.00    +0.000 A 
ATOM     13  C   UNL     1       2.024   4.884  18.155  0.00  0.00    +0.000 A 
ENDBRANCH   7   8
ENDBRANCH   6   7
ENDBRANCH   3   6
ENDBRANCH   1   2
BRANCH   1  14
ATOM     14  C   UNL     1       1.774  12.281  18.945  0.00  0.00    +0.000 C 
ATOM     15  O   UNL     1       2.565  12.703  18.101  0.00  0.00    +0.000 OA
ATOM     16  N   UNL     1       1.559  12.972  20.132  0.00  0.00    +0.000 N 
ATOM     17  C   UNL     1       2.405  14.118  20.442  0.00  0.00    +0.000 C 
BRANCH  16  18
ATOM     18  C   UNL     1       0.641  12.536  21.186  0.00  0.00    +0.000 C 
BRANCH  18  19
ATOM     19  C   UNL     1      -0.507  13.494  21.495  0.00  0.00    +0.000 C 
ATOM     20  O   UNL     1      -1.193  13.907  20.561  0.00  0.00    +0.000 OA
ATOM     21  N   UNL     1      -0.633  13.849  22.829  0.00  0.00    +0.000 N 
ATOM     22  H   UNL     1       0.086  13.522  23.466  0.00  0.00    +0.000 HD
BRANCH  21  23
ATOM     23  C   UNL     1      -1.660  14.645  23.372  0.00  0.00    +0.000 A 
ATOM     24  C   UNL     1      -2.927  14.134  23.662  0.00  0.00    +0.000 A 
ATOM     25  C   UNL     1      -3.907  14.934  24.244  0.00  0.00    +0.000 A 
ATOM     26  C   UNL     1      -3.633  16.268  24.526  0.00  0.00    +0.000 A 
ATOM     27 CL   UNL     1      -4.831  17.241  25.274  0.00  0.00    +0.000 Cl
ATOM     28  C   UNL     1      -2.378  16.797  24.234  0.00  0.00    +0.000 A 
ATOM     29  C   UNL     1      -1.389  15.986  23.660  0.00  0.00    +0.000 A 
ENDBRANCH  21  23
ENDBRANCH  18  19
ENDBRANCH  16  18
ENDBRANCH   1  14
BRANCH   1  30
ATOM     30  C   UNL     1      -0.472  11.212  18.336  0.00  0.00    +0.000 C 
BRANCH  30  31
ATOM     31  C   UNL     1      -1.384  10.049  18.754  0.00  0.00    +0.000 C 
BRANCH  31  33
ATOM     32  C   UNL     1      -2.423  11.094  16.418  0.00  0.00    +0.000 C 
ATOM     33  S   UNL     1      -2.875   9.918  17.721  0.00  0.00    +0.000 S 
ENDBRANCH  31  33
ENDBRANCH  30  31
ENDBRANCH   1  30
TORSDOF 11
ENDMDL
MODEL 9
REMARK VINA RESULT:      -6.2      6.080     11.255
REMARK  Name = 
REMARK  13 active torsions:
REMARK  status: ('A' for Active; 'I' for Inactive)
REMARK    1  A    between atoms: C_1  and  S_2
REMARK    2  A    between atoms: S_2  and  C_3
REMARK    3  A    between atoms: C_3  and  C_4
REMARK    4  A    between atoms: C_4  and  C_5
REMARK    5  A    between atoms: C_5  and  N_6
REMARK    6  A    between atoms: C_5  and  C_17
REMARK    7  A    between atoms: C_7  and  C_9
REMARK    8  A    between atoms: C_9  and  O_10
REMARK    9  A    between atoms: O_10  and  C_11
REMARK   10  A    between atoms: N_19  and  C_20
REMARK   11  A    between atoms: N_19  and  C_21
REMARK   12  A    between atoms: C_21  and  C_22
REMARK   13  A    between atoms: N_24  and  C_25
REMARK                            x       y       z     vdW  Elec       q    Type
REMARK                         _______ _______ _______ _____ _____    ______ ____
ROOT
ATOM      1  C   UNL     1       3.051   6.272  18.896  0.00  0.00    +0.000 C 
ENDROOT
BRANCH   1   2
ATOM      2  N   UNL     1       2.284   6.983  19.937  0.00  0.00    +0.000 N 
ATOM      3  C   UNL     1       1.718   8.224  19.997  0.00  0.00    +0.000 C 
ATOM      4  O   UNL     1       1.302   8.593  21.098  0.00  0.00    +0.000 OA
ATOM      5  H   UNL     1       2.368   6.602  20.875  0.00  0.00    +0.000 HD
BRANCH   3   6
ATOM      6  C   UNL     1       1.474   9.077  18.759  0.00  0.00    +0.000 C 
BRANCH   6   7
ATOM      7  O   UNL     1       1.074  10.376  19.154  0.00  0.00    +0.000 OA
BRANCH   7   8
ATOM      8  C   UNL     1      -0.226  10.682  18.855  0.00  0.00    +0.000 A 
ATOM      9  C   UNL     1      -0.775   9.980  17.784  0.00  0.00    +0.000 A 
ATOM     10  C   UNL     1      -2.093  10.211  17.393  0.00  0.00    +0.000 A 
ATOM     11  C   UNL     1      -2.878  11.127  18.092  0.00  0.00    +0.000 A 
ATOM     12  C   UNL     1      -2.346  11.806  19.185  0.00  0.00    +0.000 A 
ATOM     13  C   UNL     1      -1.016  11.580  19.565  0.00  0.00    +0.000 A 
ENDBRANCH   7   8
ENDBRANCH   6   7
ENDBRANCH   3   6
ENDBRANCH   1   2
BRANCH   1  14
ATOM     14  C   UNL     1       4.341   5.565  19.375  0.00  0.00    +0.000 C 
ATOM     15  O   UNL     1       4.328   4.814  20.351  0.00  0.00    +0.000 OA
ATOM     16  N   UNL     1       5.518   5.805  18.674  0.00  0.00    +0.000 N 
ATOM     17  C   UNL     1       6.772   5.289  19.208  0.00  0.00    +0.000 C 
BRANCH  16  18
ATOM     18  C   UNL     1       5.619   6.685  17.509  0.00  0.00    +0.000 C 
BRANCH  18  19
ATOM     19  C   UNL     1       6.339   6.093  16.299  0.00  0.00    +0.000 C 
ATOM     20  O   UNL     1       7.556   6.245  16.209  0.00  0.00    +0.000 OA
ATOM     21  N   UNL     1       5.517   5.468  15.374  0.00  0.00    +0.000 N 
ATOM     22  H   UNL     1       4.515   5.530  15.528  0.00  0.00    +0.000 HD
BRANCH  21  23
ATOM     23  C   UNL     1       5.950   4.776  14.227  0.00  0.00    +0.000 A 
ATOM     24  C   UNL     1       7.177   5.040  13.615  0.00  0.00    +0.000 A 
ATOM     25  C   UNL     1       7.600   4.305  12.510  0.00  0.00    +0.000 A 
ATOM     26  C   UNL     1       6.784   3.305  11.991  0.00  0.00    +0.000 A 
ATOM     27 CL   UNL     1       7.322   2.380  10.652  0.00  0.00    +0.000 Cl
ATOM     28  C   UNL     1       5.552   3.036  12.583  0.00  0.00    +0.000 A 
ATOM     29  C   UNL     1       5.135   3.768  13.704  0.00  0.00    +0.000 A 
ENDBRANCH  21  23
ENDBRANCH  18  19
ENDBRANCH  16  18
ENDBRANCH   1  14
BRANCH   1  30
ATOM     30  C   UNL     1       2.154   5.345  18.061  0.00  0.00    +0.000 C 
BRANCH  30  31
ATOM     31  C   UNL     1       1.495   4.253  18.918  0.00  0.00    +0.000 C 
BRANCH  31  33
ATOM     32  C   UNL     1       3.321   2.943  17.312  0.00  0.00    +0.000 C 
ATOM     33  S   UNL     1       1.861   2.575  18.321  0.00  0.00    +0.000 S 
ENDBRANCH  31  33
ENDBRANCH  30  31
ENDBRANCH   1  30
TORSDOF 11
ENDMDL
