MODEL 1
REMARK VINA RESULT:      -7.6      0.000      0.000
REMARK  Name = 
REMARK  2 active torsions:
REMARK  status: ('A' for Active; 'I' for Inactive)
REMARK    1  A    between atoms: N_2  and  C_3
REMARK    2  A    between atoms: C_3  and  C_4
REMARK                            x       y       z     vdW  Elec       q    Type
REMARK                         _______ _______ _______ _____ _____    ______ ____
ROOT
ATOM      1  O   UNL     1       4.498   3.733  16.403  0.00  0.00    +0.000 OA
ATOM      2  N   UNL     1       4.349   4.915  16.870  0.00  0.00    +0.000 N 
ATOM      3  C   UNL     1       3.506   5.140  17.854  0.00  0.00    +0.000 C 
ATOM      4  C   UNL     1       3.337   6.509  18.455  0.00  0.00    +0.000 C 
ATOM      5  C   UNL     1       2.289   6.321  19.565  0.00  0.00    +0.000 C 
ATOM      6  C   UNL     1       1.944   4.867  19.504  0.00  0.00    +0.000 A 
ATOM      7  C   UNL     1       1.034   4.201  20.316  0.00  0.00    +0.000 A 
ATOM      8  C   UNL     1       0.833   2.833  20.116  0.00  0.00    +0.000 A 
ATOM      9  C   UNL     1       1.538   2.148  19.116  0.00  0.00    +0.000 A 
ATOM     10  C   UNL     1       2.453   2.822  18.305  0.00  0.00    +0.000 A 
ATOM     11  C   UNL     1       2.642   4.176  18.516  0.00  0.00    +0.000 A 
ENDROOT
BRANCH   2  12
ATOM     12  C   UNL     1       5.208   5.970  16.255  0.00  0.00    +0.000 C 
BRANCH  12  13
ATOM     13  C   UNL     1       6.349   6.410  17.139  0.00  0.00    +0.000 A 
ATOM     14  C   UNL     1       6.875   7.705  17.039  0.00  0.00    +0.000 A 
ATOM     15  C   UNL     1       7.906   8.118  17.885  0.00  0.00    +0.000 A 
ATOM     16  C   UNL     1       8.417   7.245  18.844  0.00  0.00    +0.000 A 
ATOM     17  C   UNL     1       7.902   5.956  18.955  0.00  0.00    +0.000 A 
ATOM     18  C   UNL     1       6.873   5.540  18.108  0.00  0.00    +0.000 A 
ENDBRANCH  12  13
ENDBRANCH   2  12
TORSDOF 2
ENDMDL
MODEL 2
REMARK VINA RESULT:      -7.5      0.287      1.169
REMARK  Name = 
REMARK  2 active torsions:
REMARK  status: ('A' for Active; 'I' for Inactive)
REMARK    1  A    between atoms: N_2  and  C_3
REMARK    2  A    between atoms: C_3  and  C_4
REMARK                            x       y       z     vdW  Elec       q    Type
REMARK                         _______ _______ _______ _____ _____    ______ ____
ROOT
ATOM      1  O   UNL     1       4.579   3.335  16.697  0.00  0.00    +0.000 OA
ATOM      2  N   UNL     1       4.441   4.570  17.005  0.00  0.00    +0.000 N 
ATOM      3  C   UNL     1       3.584   4.932  17.934  0.00  0.00    +0.000 C 
ATOM      4  C   UNL     1       3.427   6.369  18.350  0.00  0.00    +0.000 C 
ATOM      5  C   UNL     1       2.355   6.342  19.453  0.00  0.00    +0.000 C 
ATOM      6  C   UNL     1       1.986   4.897  19.573  0.00  0.00    +0.000 A 
ATOM      7  C   UNL     1       1.050   4.355  20.444  0.00  0.00    +0.000 A 
ATOM      8  C   UNL     1       0.830   2.975  20.418  0.00  0.00    +0.000 A 
ATOM      9  C   UNL     1       1.542   2.157  19.530  0.00  0.00    +0.000 A 
ATOM     10  C   UNL     1       2.483   2.707  18.658  0.00  0.00    +0.000 A 
ATOM     11  C   UNL     1       2.691   4.074  18.697  0.00  0.00    +0.000 A 
ENDROOT
BRANCH   2  12
ATOM     12  C   UNL     1       5.329   5.524  16.278  0.00  0.00    +0.000 C 
BRANCH  12  13
ATOM     13  C   UNL     1       6.376   6.164  17.157  0.00  0.00    +0.000 A 
ATOM     14  C   UNL     1       7.004   5.431  18.173  0.00  0.00    +0.000 A 
ATOM     15  C   UNL     1       7.998   6.018  18.958  0.00  0.00    +0.000 A 
ATOM     16  C   UNL     1       8.380   7.338  18.733  0.00  0.00    +0.000 A 
ATOM     17  C   UNL     1       7.765   8.077  17.725  0.00  0.00    +0.000 A 
ATOM     18  C   UNL     1       6.769   7.493  16.941  0.00  0.00    +0.000 A 
ENDBRANCH  12  13
ENDBRANCH   2  12
TORSDOF 2
ENDMDL
MODEL 3
REMARK VINA RESULT:      -7.4      2.821      4.139
REMARK  Name = 
REMARK  2 active torsions:
REMARK  status: ('A' for Active; 'I' for Inactive)
REMARK    1  A    between atoms: N_2  and  C_3
REMARK    2  A    between atoms: C_3  and  C_4
REMARK                            x       y       z     vdW  Elec       q    Type
REMARK                         _______ _______ _______ _____ _____    ______ ____
ROOT
ATOM      1  O   UNL     1       2.649   5.746  20.186  0.00  0.00    +0.000 OA
ATOM      2  N   UNL     1       2.785   6.381  19.083  0.00  0.00    +0.000 N 
ATOM      3  C   UNL     1       2.266   7.580  18.938  0.00  0.00    +0.000 C 
ATOM      4  C   UNL     1       2.444   8.371  17.670  0.00  0.00    +0.000 C 
ATOM      5  C   UNL     1       1.708   9.696  17.931  0.00  0.00    +0.000 C 
ATOM      6  C   UNL     1       1.169   9.553  19.320  0.00  0.00    +0.000 A 
ATOM      7  C   UNL     1       0.424  10.495  20.016  0.00  0.00    +0.000 A 
ATOM      8  C   UNL     1      -0.001  10.189  21.312  0.00  0.00    +0.000 A 
ATOM      9  C   UNL     1       0.321   8.955  21.895  0.00  0.00    +0.000 A 
ATOM     10  C   UNL     1       1.072   8.012  21.190  0.00  0.00    +0.000 A 
ATOM     11  C   UNL     1       1.486   8.331  19.909  0.00  0.00    +0.000 A 
ENDROOT
BRANCH   2  12
ATOM     12  C   UNL     1       3.585   5.689  18.030  0.00  0.00    +0.000 C 
BRANCH  12  13
ATOM     13  C   UNL     1       5.068   5.944  18.133  0.00  0.00    +0.000 A 
ATOM     14  C   UNL     1       5.702   6.847  17.267  0.00  0.00    +0.000 A 
ATOM     15  C   UNL     1       7.067   7.107  17.392  0.00  0.00    +0.000 A 
ATOM     16  C   UNL     1       7.813   6.477  18.386  0.00  0.00    +0.000 A 
ATOM     17  C   UNL     1       7.195   5.579  19.254  0.00  0.00    +0.000 A 
ATOM     18  C   UNL     1       5.830   5.315  19.129  0.00  0.00    +0.000 A 
ENDBRANCH  12  13
ENDBRANCH   2  12
TORSDOF 2
ENDMDL
MODEL 4
REMARK VINA RESULT:      -7.4      2.829      4.280
REMARK  Name = 
REMARK  2 active torsions:
REMARK  status: ('A' for Active; 'I' for Inactive)
REMARK    1  A    between atoms: N_2  and  C_3
REMARK    2  A    between atoms: C_3  and  C_4
REMARK                            x       y       z     vdW  Elec       q    Type
REMARK                         _______ _______ _______ _____ _____    ______ ____
ROOT
ATOM      1  O   UNL     1       2.636   5.747  20.209  0.00  0.00    +0.000 OA
ATOM      2  N   UNL     1       2.788   6.388  19.112  0.00  0.00    +0.000 N 
ATOM      3  C   UNL     1       2.267   7.586  18.964  0.00  0.00    +0.000 C 
ATOM      4  C   UNL     1       2.462   8.384  17.703  0.00  0.00    +0.000 C 
ATOM      5  C   UNL     1       1.716   9.705  17.958  0.00  0.00    +0.000 C 
ATOM      6  C   UNL     1       1.155   9.552  19.337  0.00  0.00    +0.000 A 
ATOM      7  C   UNL     1       0.394  10.488  20.025  0.00  0.00    +0.000 A 
ATOM      8  C   UNL     1      -0.052  10.174  21.312  0.00  0.00    +0.000 A 
ATOM      9  C   UNL     1       0.266   8.938  21.894  0.00  0.00    +0.000 A 
ATOM     10  C   UNL     1       1.032   8.002  21.198  0.00  0.00    +0.000 A 
ATOM     11  C   UNL     1       1.467   8.328  19.925  0.00  0.00    +0.000 A 
ENDROOT
BRANCH   2  12
ATOM     12  C   UNL     1       3.608   5.704  18.069  0.00  0.00    +0.000 C 
BRANCH  12  13
ATOM     13  C   UNL     1       5.087   5.979  18.188  0.00  0.00    +0.000 A 
ATOM     14  C   UNL     1       5.856   5.344  19.173  0.00  0.00    +0.000 A 
ATOM     15  C   UNL     1       7.231   5.574  19.255  0.00  0.00    +0.000 A 
ATOM     16  C   UNL     1       7.853   6.432  18.351  0.00  0.00    +0.000 A 
ATOM     17  C   UNL     1       7.100   7.068  17.365  0.00  0.00    +0.000 A 
ATOM     18  C   UNL     1       5.725   6.842  17.284  0.00  0.00    +0.000 A 
ENDBRANCH  12  13
ENDBRANCH   2  12
TORSDOF 2
ENDMDL
MODEL 5
REMARK VINA RESULT:      -7.3      2.790      4.441
REMARK  Name = 
REMARK  2 active torsions:
REMARK  status: ('A' for Active; 'I' for Inactive)
REMARK    1  A    between atoms: N_2  and  C_3
REMARK    2  A    between atoms: C_3  and  C_4
REMARK                            x       y       z     vdW  Elec       q    Type
REMARK                         _______ _______ _______ _____ _____    ______ ____
ROOT
ATOM      1  O   UNL     1       5.533   6.982  15.657  0.00  0.00    +0.000 OA
ATOM      2  N   UNL     1       5.881   5.946  16.322  0.00  0.00    +0.000 N 
ATOM      3  C   UNL     1       5.229   5.606  17.412  0.00  0.00    +0.000 C 
ATOM      4  C   UNL     1       5.585   4.371  18.194  0.00  0.00    +0.000 C 
ATOM      5  C   UNL     1       4.579   4.343  19.358  0.00  0.00    +0.000 C 
ATOM      6  C   UNL     1       3.737   5.562  19.147  0.00  0.00    +0.000 A 
ATOM      7  C   UNL     1       2.678   5.979  19.944  0.00  0.00    +0.000 A 
ATOM      8  C   UNL     1       2.000   7.152  19.596  0.00  0.00    +0.000 A 
ATOM      9  C   UNL     1       2.383   7.888  18.467  0.00  0.00    +0.000 A 
ATOM     10  C   UNL     1       3.447   7.462  17.669  0.00  0.00    +0.000 A 
ATOM     11  C   UNL     1       4.107   6.299  18.025  0.00  0.00    +0.000 A 
ENDROOT
BRANCH   2  12
ATOM     12  C   UNL     1       7.021   5.164  15.758  0.00  0.00    +0.000 C 
BRANCH  12  13
ATOM     13  C   UNL     1       6.779   4.674  14.352  0.00  0.00    +0.000 A 
ATOM     14  C   UNL     1       7.648   5.027  13.311  0.00  0.00    +0.000 A 
ATOM     15  C   UNL     1       7.440   4.541  12.019  0.00  0.00    +0.000 A 
ATOM     16  C   UNL     1       6.368   3.692  11.754  0.00  0.00    +0.000 A 
ATOM     17  C   UNL     1       5.497   3.331  12.780  0.00  0.00    +0.000 A 
ATOM     18  C   UNL     1       5.702   3.820  14.072  0.00  0.00    +0.000 A 
ENDBRANCH  12  13
ENDBRANCH   2  12
TORSDOF 2
ENDMDL
MODEL 6
REMARK VINA RESULT:      -7.3      2.776      4.506
REMARK  Name = 
REMARK  2 active torsions:
REMARK  status: ('A' for Active; 'I' for Inactive)
REMARK    1  A    between atoms: N_2  and  C_3
REMARK    2  A    between atoms: C_3  and  C_4
REMARK                            x       y       z     vdW  Elec       q    Type
REMARK                         _______ _______ _______ _____ _____    ______ ____
ROOT
ATOM      1  O   UNL     1       5.574   6.911  15.663  0.00  0.00    +0.000 OA
ATOM      2  N   UNL     1       5.881   5.891  16.373  0.00  0.00    +0.000 N 
ATOM      3  C   UNL     1       5.196   5.605  17.458  0.00  0.00    +0.000 C 
ATOM      4  C   UNL     1       5.504   4.391  18.292  0.00  0.00    +0.000 C 
ATOM      5  C   UNL     1       4.471   4.429  19.431  0.00  0.00    +0.000 C 
ATOM      6  C   UNL     1       3.663   5.658  19.157  0.00  0.00    +0.000 A 
ATOM      7  C   UNL     1       2.597   6.129  19.913  0.00  0.00    +0.000 A 
ATOM      8  C   UNL     1       1.956   7.303  19.508  0.00  0.00    +0.000 A 
ATOM      9  C   UNL     1       2.382   7.989  18.362  0.00  0.00    +0.000 A 
ATOM     10  C   UNL     1       3.454   7.510  17.606  0.00  0.00    +0.000 A 
ATOM     11  C   UNL     1       4.077   6.346  18.018  0.00  0.00    +0.000 A 
ENDROOT
BRANCH   2  12
ATOM     12  C   UNL     1       7.015   5.063  15.864  0.00  0.00    +0.000 C 
BRANCH  12  13
ATOM     13  C   UNL     1       6.839   4.614  14.434  0.00  0.00    +0.000 A 
ATOM     14  C   UNL     1       5.799   3.745  14.078  0.00  0.00    +0.000 A 
ATOM     15  C   UNL     1       5.620   3.363  12.748  0.00  0.00    +0.000 A 
ATOM     16  C   UNL     1       6.471   3.850  11.758  0.00  0.00    +0.000 A 
ATOM     17  C   UNL     1       7.507   4.717  12.098  0.00  0.00    +0.000 A 
ATOM     18  C   UNL     1       7.690   5.097  13.428  0.00  0.00    +0.000 A 
ENDBRANCH  12  13
ENDBRANCH   2  12
TORSDOF 2
ENDMDL
MODEL 7
REMARK VINA RESULT:      -7.3      3.793      6.559
REMARK  Name = 
REMARK  2 active torsions:
REMARK  status: ('A' for Active; 'I' for Inactive)
REMARK    1  A    between atoms: N_2  and  C_3
REMARK    2  A    between atoms: C_3  and  C_4
REMARK                            x       y       z     vdW  Elec       q    Type
REMARK                         _______ _______ _______ _____ _____    ______ ____
ROOT
ATOM      1  O   UNL     1       1.925   8.103  17.817  0.00  0.00    +0.000 OA
ATOM      2  N   UNL     1       2.037   7.873  19.071  0.00  0.00    +0.000 N 
ATOM      3  C   UNL     1       1.368   8.596  19.942  0.00  0.00    +0.000 C 
ATOM      4  C   UNL     1       1.443   8.324  21.420  0.00  0.00    +0.000 C 
ATOM      5  C   UNL     1       0.511   9.370  22.056  0.00  0.00    +0.000 C 
ATOM      6  C   UNL     1      -0.015  10.152  20.894  0.00  0.00    +0.000 A 
ATOM      7  C   UNL     1      -0.904  11.217  20.953  0.00  0.00    +0.000 A 
ATOM      8  C   UNL     1      -1.288  11.835  19.759  0.00  0.00    +0.000 A 
ATOM      9  C   UNL     1      -0.785  11.387  18.530  0.00  0.00    +0.000 A 
ATOM     10  C   UNL     1       0.108  10.315  18.478  0.00  0.00    +0.000 A 
ATOM     11  C   UNL     1       0.477   9.712  19.667  0.00  0.00    +0.000 A 
ENDROOT
BRANCH   2  12
ATOM     12  C   UNL     1       2.925   6.733  19.446  0.00  0.00    +0.000 C 
BRANCH  12  13
ATOM     13  C   UNL     1       2.232   5.393  19.417  0.00  0.00    +0.000 A 
ATOM     14  C   UNL     1       1.739   4.816  20.596  0.00  0.00    +0.000 A 
ATOM     15  C   UNL     1       1.066   3.594  20.558  0.00  0.00    +0.000 A 
ATOM     16  C   UNL     1       0.870   2.939  19.344  0.00  0.00    +0.000 A 
ATOM     17  C   UNL     1       1.353   3.503  18.165  0.00  0.00    +0.000 A 
ATOM     18  C   UNL     1       2.030   4.723  18.201  0.00  0.00    +0.000 A 
ENDBRANCH  12  13
ENDBRANCH   2  12
TORSDOF 2
ENDMDL
MODEL 8
REMARK VINA RESULT:      -7.2      3.882      6.577
REMARK  Name = 
REMARK  2 active torsions:
REMARK  status: ('A' for Active; 'I' for Inactive)
REMARK    1  A    between atoms: N_2  and  C_3
REMARK    2  A    between atoms: C_3  and  C_4
REMARK                            x       y       z     vdW  Elec       q    Type
REMARK                         _______ _______ _______ _____ _____    ______ ____
ROOT
ATOM      1  O   UNL     1       1.823   8.240  17.837  0.00  0.00    +0.000 OA
ATOM      2  N   UNL     1       1.953   7.978  19.082  0.00  0.00    +0.000 N 
ATOM      3  C   UNL     1       1.302   8.681  19.982  0.00  0.00    +0.000 C 
ATOM      4  C   UNL     1       1.400   8.373  21.451  0.00  0.00    +0.000 C 
ATOM      5  C   UNL     1       0.482   9.405  22.128  0.00  0.00    +0.000 C 
ATOM      6  C   UNL     1      -0.059  10.218  20.995  0.00  0.00    +0.000 A 
ATOM      7  C   UNL     1      -0.943  11.285  21.094  0.00  0.00    +0.000 A 
ATOM      8  C   UNL     1      -1.344  11.935  19.923  0.00  0.00    +0.000 A 
ATOM      9  C   UNL     1      -0.862  11.515  18.675  0.00  0.00    +0.000 A 
ATOM     10  C   UNL     1       0.025  10.441  18.582  0.00  0.00    +0.000 A 
ATOM     11  C   UNL     1       0.411   9.807  19.749  0.00  0.00    +0.000 A 
ENDROOT
BRANCH   2  12
ATOM     12  C   UNL     1       2.843   6.826  19.414  0.00  0.00    +0.000 C 
BRANCH  12  13
ATOM     13  C   UNL     1       2.149   5.488  19.344  0.00  0.00    +0.000 A 
ATOM     14  C   UNL     1       2.033   4.804  18.126  0.00  0.00    +0.000 A 
ATOM     15  C   UNL     1       1.422   3.550  18.073  0.00  0.00    +0.000 A 
ATOM     16  C   UNL     1       0.929   2.962  19.236  0.00  0.00    +0.000 A 
ATOM     17  C   UNL     1       1.041   3.630  20.454  0.00  0.00    +0.000 A 
ATOM     18  C   UNL     1       1.647   4.886  20.507  0.00  0.00    +0.000 A 
ENDBRANCH  12  13
ENDBRANCH   2  12
TORSDOF 2
ENDMDL
MODEL 9
REMARK VINA RESULT:      -7.2      1.185      2.044
REMARK  Name = 
REMARK  2 active torsions:
REMARK  status: ('A' for Active; 'I' for Inactive)
REMARK    1  A    between atoms: N_2  and  C_3
REMARK    2  A    between atoms: C_3  and  C_4
REMARK                            x       y       z     vdW  Elec       q    Type
REMARK                         _______ _______ _______ _____ _____    ______ ____
ROOT
ATOM      1  O   UNL     1       3.266   6.873  18.191  0.00  0.00    +0.000 OA
ATOM      2  N   UNL     1       3.903   5.928  17.608  0.00  0.00    +0.000 N 
ATOM      3  C   UNL     1       3.591   4.673  17.842  0.00  0.00    +0.000 C 
ATOM      4  C   UNL     1       4.291   3.540  17.142  0.00  0.00    +0.000 C 
ATOM      5  C   UNL     1       3.616   2.269  17.685  0.00  0.00    +0.000 C 
ATOM      6  C   UNL     1       2.593   2.778  18.651  0.00  0.00    +0.000 A 
ATOM      7  C   UNL     1       1.717   2.009  19.406  0.00  0.00    +0.000 A 
ATOM      8  C   UNL     1       0.824   2.658  20.264  0.00  0.00    +0.000 A 
ATOM      9  C   UNL     1       0.814   4.056  20.357  0.00  0.00    +0.000 A 
ATOM     10  C   UNL     1       1.696   4.825  19.594  0.00  0.00    +0.000 A 
ATOM     11  C   UNL     1       2.572   4.168  18.748  0.00  0.00    +0.000 A 
ENDROOT
BRANCH   2  12
ATOM     12  C   UNL     1       4.962   6.356  16.647  0.00  0.00    +0.000 C 
BRANCH  12  13
ATOM     13  C   UNL     1       6.229   6.828  17.317  0.00  0.00    +0.000 A 
ATOM     14  C   UNL     1       6.719   8.122  17.093  0.00  0.00    +0.000 A 
ATOM     15  C   UNL     1       7.871   8.566  17.744  0.00  0.00    +0.000 A 
ATOM     16  C   UNL     1       8.541   7.726  18.631  0.00  0.00    +0.000 A 
ATOM     17  C   UNL     1       8.064   6.438  18.865  0.00  0.00    +0.000 A 
ATOM     18  C   UNL     1       6.914   5.992  18.211  0.00  0.00    +0.000 A 
ENDBRANCH  12  13
ENDBRANCH   2  12
TORSDOF 2
ENDMDL
