MODEL 1
REMARK VINA RESULT:      -6.6      0.000      0.000
REMARK  Name = 
REMARK  9 active torsions:
REMARK  status: ('A' for Active; 'I' for Inactive)
REMARK    1  A    between atoms: C_1  and  O_2
REMARK    2  A    between atoms: O_2  and  C_3
REMARK    3  A    between atoms: C_3  and  C_5
REMARK    4  A    between atoms: C_5  and  N_6
REMARK    5  A    between atoms: N_6  and  C_7
REMARK    6  A    between atoms: N_6  and  C_11
REMARK    7  A    between atoms: C_7  and  C_8
REMARK    8  A    between atoms: C_11  and  C_12
REMARK    9  A    between atoms: C_11  and  C_13
REMARK                            x       y       z     vdW  Elec       q    Type
REMARK                         _______ _______ _______ _____ _____    ______ ____
ROOT
ATOM      1  N   UNL     1       4.254   5.940  17.625  0.00  0.00    +0.000 NA
ENDROOT
BRANCH   1   2
ATOM      2  C   UNL     1       2.841   6.296  17.804  0.00  0.00    +0.000 C 
ATOM      3  C   UNL     1       2.575   7.704  18.368  0.00  0.00    +0.000 C 
BRANCH   2   4
ATOM      4  C   UNL     1       2.135   5.169  18.559  0.00  0.00    +0.000 A 
ATOM      5  C   UNL     1       1.831   3.981  17.865  0.00  0.00    +0.000 A 
ATOM      6  C   UNL     1       1.273   2.886  18.527  0.00  0.00    +0.000 A 
ATOM      7  C   UNL     1       1.014   2.956  19.892  0.00  0.00    +0.000 A 
ATOM      8  C   UNL     1       1.301   4.125  20.594  0.00  0.00    +0.000 A 
ATOM      9  C   UNL     1       1.851   5.225  19.933  0.00  0.00    +0.000 A 
ENDBRANCH   2   4
ENDBRANCH   1   2
BRANCH   1  10
ATOM     10  C   UNL     1       5.081   5.775  18.837  0.00  0.00    +0.000 C 
BRANCH  10  11
ATOM     11  C   UNL     1       5.736   4.413  19.074  0.00  0.00    +0.000 C 
ATOM     12  O   UNL     1       5.189   3.386  19.446  0.00  0.00    +0.000 OA
BRANCH  11  14
ATOM     13  C   UNL     1       7.747   5.706  19.236  0.00  0.00    +0.000 C 
ATOM     14  O   UNL     1       7.066   4.533  18.776  0.00  0.00    +0.000 OA
ENDBRANCH  11  14
ENDBRANCH  10  11
ENDBRANCH   1  10
BRANCH   1  15
ATOM     15  C   UNL     1       4.916   6.550  16.464  0.00  0.00    +0.000 C 
BRANCH  15  16
ATOM     16  C   UNL     1       5.745   5.502  15.707  0.00  0.00    +0.000 C 
ATOM     17  N   UNL     1       7.102   5.703  15.740  0.00  0.00    +0.000 N 
ATOM     18  O   UNL     1       5.265   4.512  15.167  0.00  0.00    +0.000 OA
ATOM     19  H   UNL     1       7.446   6.618  16.006  0.00  0.00    +0.000 HD
ATOM     20  H   UNL     1       7.684   5.087  15.191  0.00  0.00    +0.000 HD
ENDBRANCH  15  16
ENDBRANCH   1  15
TORSDOF 7
ENDMDL
MODEL 2
REMARK VINA RESULT:      -6.5      0.873      1.432
REMARK  Name = 
REMARK  9 active torsions:
REMARK  status: ('A' for Active; 'I' for Inactive)
REMARK    1  A    between atoms: C_1  and  O_2
REMARK    2  A    between atoms: O_2  and  C_3
REMARK    3  A    between atoms: C_3  and  C_5
REMARK    4  A    between atoms: C_5  and  N_6
REMARK    5  A    between atoms: N_6  and  C_7
REMARK    6  A    between atoms: N_6  and  C_11
REMARK    7  A    between atoms: C_7  and  C_8
REMARK    8  A    between atoms: C_11  and  C_12
REMARK    9  A    between atoms: C_11  and  C_13
REMARK                            x       y       z     vdW  Elec       q    Type
REMARK                         _______ _______ _______ _____ _____    ______ ____
ROOT
ATOM      1  N   UNL     1       4.436   5.910  17.466  0.00  0.00    +0.000 NA
ENDROOT
BRANCH   1   2
ATOM      2  C   UNL     1       3.012   6.228  17.631  0.00  0.00    +0.000 C 
ATOM      3  C   UNL     1       2.702   7.637  18.169  0.00  0.00    +0.000 C 
BRANCH   2   4
ATOM      4  C   UNL     1       2.334   5.094  18.401  0.00  0.00    +0.000 A 
ATOM      5  C   UNL     1       2.017   5.298  19.759  0.00  0.00    +0.000 A 
ATOM      6  C   UNL     1       1.314   4.335  20.484  0.00  0.00    +0.000 A 
ATOM      7  C   UNL     1       0.911   3.156  19.866  0.00  0.00    +0.000 A 
ATOM      8  C   UNL     1       1.222   2.933  18.526  0.00  0.00    +0.000 A 
ATOM      9  C   UNL     1       1.933   3.891  17.800  0.00  0.00    +0.000 A 
ENDBRANCH   2   4
ENDBRANCH   1   2
BRANCH   1  10
ATOM     10  C   UNL     1       5.324   6.104  18.630  0.00  0.00    +0.000 C 
BRANCH  10  11
ATOM     11  C   UNL     1       5.882   4.857  19.316  0.00  0.00    +0.000 C 
ATOM     12  O   UNL     1       5.375   3.746  19.355  0.00  0.00    +0.000 OA
BRANCH  11  14
ATOM     13  C   UNL     1       7.983   5.989  19.100  0.00  0.00    +0.000 C 
ATOM     14  O   UNL     1       7.083   5.193  19.880  0.00  0.00    +0.000 OA
ENDBRANCH  11  14
ENDBRANCH  10  11
ENDBRANCH   1  10
BRANCH   1  15
ATOM     15  C   UNL     1       5.007   6.235  16.151  0.00  0.00    +0.000 C 
BRANCH  15  16
ATOM     16  C   UNL     1       6.172   5.290  15.824  0.00  0.00    +0.000 C 
ATOM     17  N   UNL     1       5.833   3.963  15.735  0.00  0.00    +0.000 N 
ATOM     18  O   UNL     1       7.313   5.669  15.585  0.00  0.00    +0.000 OA
ATOM     19  H   UNL     1       4.952   3.664  16.134  0.00  0.00    +0.000 HD
ATOM     20  H   UNL     1       6.578   3.294  15.602  0.00  0.00    +0.000 HD
ENDBRANCH  15  16
ENDBRANCH   1  15
TORSDOF 7
ENDMDL
MODEL 3
REMARK VINA RESULT:      -6.3      1.378      3.354
REMARK  Name = 
REMARK  9 active torsions:
REMARK  status: ('A' for Active; 'I' for Inactive)
REMARK    1  A    between atoms: C_1  and  O_2
REMARK    2  A    between atoms: O_2  and  C_3
REMARK    3  A    between atoms: C_3  and  C_5
REMARK    4  A    between atoms: C_5  and  N_6
REMARK    5  A    between atoms: N_6  and  C_7
REMARK    6  A    between atoms: N_6  and  C_11
REMARK    7  A    between atoms: C_7  and  C_8
REMARK    8  A    between atoms: C_11  and  C_12
REMARK    9  A    between atoms: C_11  and  C_13
REMARK                            x       y       z     vdW  Elec       q    Type
REMARK                         _______ _______ _______ _____ _____    ______ ____
ROOT
ATOM      1  N   UNL     1       4.896   5.000  17.548  0.00  0.00    +0.000 NA
ENDROOT
BRANCH   1   2
ATOM      2  C   UNL     1       3.567   5.620  17.590  0.00  0.00    +0.000 C 
ATOM      3  C   UNL     1       3.541   7.118  17.946  0.00  0.00    +0.000 C 
BRANCH   2   4
ATOM      4  C   UNL     1       2.638   4.752  18.440  0.00  0.00    +0.000 A 
ATOM      5  C   UNL     1       2.307   5.191  19.737  0.00  0.00    +0.000 A 
ATOM      6  C   UNL     1       1.391   4.489  20.521  0.00  0.00    +0.000 A 
ATOM      7  C   UNL     1       0.786   3.339  20.022  0.00  0.00    +0.000 A 
ATOM      8  C   UNL     1       1.107   2.885  18.744  0.00  0.00    +0.000 A 
ATOM      9  C   UNL     1       2.029   3.582  17.961  0.00  0.00    +0.000 A 
ENDBRANCH   2   4
ENDBRANCH   1   2
BRANCH   1  10
ATOM     10  C   UNL     1       5.179   4.049  16.454  0.00  0.00    +0.000 C 
BRANCH  10  11
ATOM     11  C   UNL     1       5.863   4.592  15.198  0.00  0.00    +0.000 C 
ATOM     12  O   UNL     1       6.111   5.760  14.938  0.00  0.00    +0.000 OA
BRANCH  11  14
ATOM     13  C   UNL     1       6.211   3.742  12.985  0.00  0.00    +0.000 C 
ATOM     14  O   UNL     1       6.177   3.525  14.400  0.00  0.00    +0.000 OA
ENDBRANCH  11  14
ENDBRANCH  10  11
ENDBRANCH   1  10
BRANCH   1  15
ATOM     15  C   UNL     1       5.484   4.677  18.857  0.00  0.00    +0.000 C 
BRANCH  15  16
ATOM     16  C   UNL     1       6.767   5.489  19.083  0.00  0.00    +0.000 C 
ATOM     17  N   UNL     1       7.091   6.354  18.068  0.00  0.00    +0.000 N 
ATOM     18  O   UNL     1       7.432   5.443  20.112  0.00  0.00    +0.000 OA
ATOM     19  H   UNL     1       6.653   6.221  17.165  0.00  0.00    +0.000 HD
ATOM     20  H   UNL     1       7.968   6.851  18.134  0.00  0.00    +0.000 HD
ENDBRANCH  15  16
ENDBRANCH   1  15
TORSDOF 7
ENDMDL
MODEL 4
REMARK VINA RESULT:      -6.3      1.118      1.714
REMARK  Name = 
REMARK  9 active torsions:
REMARK  status: ('A' for Active; 'I' for Inactive)
REMARK    1  A    between atoms: C_1  and  O_2
REMARK    2  A    between atoms: O_2  and  C_3
REMARK    3  A    between atoms: C_3  and  C_5
REMARK    4  A    between atoms: C_5  and  N_6
REMARK    5  A    between atoms: N_6  and  C_7
REMARK    6  A    between atoms: N_6  and  C_11
REMARK    7  A    between atoms: C_7  and  C_8
REMARK    8  A    between atoms: C_11  and  C_12
REMARK    9  A    between atoms: C_11  and  C_13
REMARK                            x       y       z     vdW  Elec       q    Type
REMARK                         _______ _______ _______ _____ _____    ______ ____
ROOT
ATOM      1  N   UNL     1       4.687   5.441  17.651  0.00  0.00    +0.000 NA
ENDROOT
BRANCH   1   2
ATOM      2  C   UNL     1       3.274   5.838  17.685  0.00  0.00    +0.000 C 
ATOM      3  C   UNL     1       3.005   7.318  18.014  0.00  0.00    +0.000 C 
BRANCH   2   4
ATOM      4  C   UNL     1       2.498   4.846  18.553  0.00  0.00    +0.000 A 
ATOM      5  C   UNL     1       2.361   5.119  19.928  0.00  0.00    +0.000 A 
ATOM      6  C   UNL     1       1.585   4.299  20.749  0.00  0.00    +0.000 A 
ATOM      7  C   UNL     1       0.929   3.197  20.210  0.00  0.00    +0.000 A 
ATOM      8  C   UNL     1       1.058   2.907  18.854  0.00  0.00    +0.000 A 
ATOM      9  C   UNL     1       1.841   3.721  18.032  0.00  0.00    +0.000 A 
ENDBRANCH   2   4
ENDBRANCH   1   2
BRANCH   1  10
ATOM     10  C   UNL     1       5.680   6.383  18.205  0.00  0.00    +0.000 C 
BRANCH  10  11
ATOM     11  C   UNL     1       6.835   5.802  19.021  0.00  0.00    +0.000 C 
ATOM     12  O   UNL     1       6.784   4.879  19.821  0.00  0.00    +0.000 OA
BRANCH  11  14
ATOM     13  C   UNL     1       7.825   7.640  17.845  0.00  0.00    +0.000 C 
ATOM     14  O   UNL     1       7.969   6.492  18.688  0.00  0.00    +0.000 OA
ENDBRANCH  11  14
ENDBRANCH  10  11
ENDBRANCH   1  10
BRANCH   1  15
ATOM     15  C   UNL     1       5.102   4.685  16.461  0.00  0.00    +0.000 C 
BRANCH  15  16
ATOM     16  C   UNL     1       5.836   5.602  15.472  0.00  0.00    +0.000 C 
ATOM     17  N   UNL     1       7.127   5.233  15.191  0.00  0.00    +0.000 N 
ATOM     18  O   UNL     1       5.312   6.554  14.906  0.00  0.00    +0.000 OA
ATOM     19  H   UNL     1       7.589   4.584  15.816  0.00  0.00    +0.000 HD
ATOM     20  H   UNL     1       7.677   5.849  14.609  0.00  0.00    +0.000 HD
ENDBRANCH  15  16
ENDBRANCH   1  15
TORSDOF 7
ENDMDL
MODEL 5
REMARK VINA RESULT:      -6.3      1.363      2.856
REMARK  Name = 
REMARK  9 active torsions:
REMARK  status: ('A' for Active; 'I' for Inactive)
REMARK    1  A    between atoms: C_1  and  O_2
REMARK    2  A    between atoms: O_2  and  C_3
REMARK    3  A    between atoms: C_3  and  C_5
REMARK    4  A    between atoms: C_5  and  N_6
REMARK    5  A    between atoms: N_6  and  C_7
REMARK    6  A    between atoms: N_6  and  C_11
REMARK    7  A    between atoms: C_7  and  C_8
REMARK    8  A    between atoms: C_11  and  C_12
REMARK    9  A    between atoms: C_11  and  C_13
REMARK                            x       y       z     vdW  Elec       q    Type
REMARK                         _______ _______ _______ _____ _____    ______ ____
ROOT
ATOM      1  N   UNL     1       4.263   5.855  17.803  0.00  0.00    +0.000 NA
ENDROOT
BRANCH   1   2
ATOM      2  C   UNL     1       2.817   6.106  17.825  0.00  0.00    +0.000 C 
ATOM      3  C   UNL     1       2.396   7.563  18.093  0.00  0.00    +0.000 C 
BRANCH   2   4
ATOM      4  C   UNL     1       2.147   5.077  18.738  0.00  0.00    +0.000 A 
ATOM      5  C   UNL     1       1.542   3.949  18.150  0.00  0.00    +0.000 A 
ATOM      6  C   UNL     1       1.000   2.932  18.938  0.00  0.00    +0.000 A 
ATOM      7  C   UNL     1       1.058   3.022  20.325  0.00  0.00    +0.000 A 
ATOM      8  C   UNL     1       1.645   4.134  20.925  0.00  0.00    +0.000 A 
ATOM      9  C   UNL     1       2.181   5.156  20.139  0.00  0.00    +0.000 A 
ENDBRANCH   2   4
ENDBRANCH   1   2
BRANCH   1  10
ATOM     10  C   UNL     1       5.118   6.823  17.086  0.00  0.00    +0.000 C 
BRANCH  10  11
ATOM     11  C   UNL     1       6.279   6.271  16.257  0.00  0.00    +0.000 C 
ATOM     12  O   UNL     1       7.454   6.204  16.585  0.00  0.00    +0.000 OA
BRANCH  11  14
ATOM     13  C   UNL     1       6.403   4.716  14.439  0.00  0.00    +0.000 C 
ATOM     14  O   UNL     1       5.769   5.837  15.064  0.00  0.00    +0.000 OA
ENDBRANCH  11  14
ENDBRANCH  10  11
ENDBRANCH   1  10
BRANCH   1  15
ATOM     15  C   UNL     1       4.658   4.442  17.706  0.00  0.00    +0.000 C 
BRANCH  15  16
ATOM     16  C   UNL     1       5.414   4.009  18.970  0.00  0.00    +0.000 C 
ATOM     17  N   UNL     1       4.997   2.821  19.515  0.00  0.00    +0.000 N 
ATOM     18  O   UNL     1       6.369   4.619  19.438  0.00  0.00    +0.000 OA
ATOM     19  H   UNL     1       4.094   2.456  19.238  0.00  0.00    +0.000 HD
ATOM     20  H   UNL     1       5.408   2.534  20.391  0.00  0.00    +0.000 HD
ENDBRANCH  15  16
ENDBRANCH   1  15
TORSDOF 7
ENDMDL
MODEL 6
REMARK VINA RESULT:      -6.3      1.449      3.195
REMARK  Name = 
REMARK  9 active torsions:
REMARK  status: ('A' for Active; 'I' for Inactive)
REMARK    1  A    between atoms: C_1  and  O_2
REMARK    2  A    between atoms: O_2  and  C_3
REMARK    3  A    between atoms: C_3  and  C_5
REMARK    4  A    between atoms: C_5  and  N_6
REMARK    5  A    between atoms: N_6  and  C_7
REMARK    6  A    between atoms: N_6  and  C_11
REMARK    7  A    between atoms: C_7  and  C_8
REMARK    8  A    between atoms: C_11  and  C_12
REMARK    9  A    between atoms: C_11  and  C_13
REMARK                            x       y       z     vdW  Elec       q    Type
REMARK                         _______ _______ _______ _____ _____    ______ ____
ROOT
ATOM      1  N   UNL     1       5.138   5.232  17.523  0.00  0.00    +0.000 NA
ENDROOT
BRANCH   1   2
ATOM      2  C   UNL     1       3.826   5.879  17.401  0.00  0.00    +0.000 C 
ATOM      3  C   UNL     1       3.820   7.410  17.559  0.00  0.00    +0.000 C 
BRANCH   2   4
ATOM      4  C   UNL     1       2.825   5.148  18.298  0.00  0.00    +0.000 A 
ATOM      5  C   UNL     1       2.235   3.961  17.820  0.00  0.00    +0.000 A 
ATOM      6  C   UNL     1       1.388   3.204  18.631  0.00  0.00    +0.000 A 
ATOM      7  C   UNL     1       1.121   3.614  19.933  0.00  0.00    +0.000 A 
ATOM      8  C   UNL     1       1.690   4.789  20.421  0.00  0.00    +0.000 A 
ATOM      9  C   UNL     1       2.531   5.553  19.609  0.00  0.00    +0.000 A 
ENDBRANCH   2   4
ENDBRANCH   1   2
BRANCH   1  10
ATOM     10  C   UNL     1       5.512   4.235  16.500  0.00  0.00    +0.000 C 
BRANCH  10  11
ATOM     11  C   UNL     1       6.285   4.726  15.276  0.00  0.00    +0.000 C 
ATOM     12  O   UNL     1       7.349   5.327  15.266  0.00  0.00    +0.000 OA
BRANCH  11  14
ATOM     13  C   UNL     1       6.295   3.687  13.116  0.00  0.00    +0.000 C 
ATOM     14  O   UNL     1       5.581   4.356  14.162  0.00  0.00    +0.000 OA
ENDBRANCH  11  14
ENDBRANCH  10  11
ENDBRANCH   1  10
BRANCH   1  15
ATOM     15  C   UNL     1       5.578   4.949  18.897  0.00  0.00    +0.000 C 
BRANCH  15  16
ATOM     16  C   UNL     1       6.954   5.576  19.159  0.00  0.00    +0.000 C 
ATOM     17  N   UNL     1       7.375   6.467  18.204  0.00  0.00    +0.000 N 
ATOM     18  O   UNL     1       7.618   5.371  20.169  0.00  0.00    +0.000 OA
ATOM     19  H   UNL     1       6.916   6.458  17.302  0.00  0.00    +0.000 HD
ATOM     20  H   UNL     1       8.308   6.845  18.290  0.00  0.00    +0.000 HD
ENDBRANCH  15  16
ENDBRANCH   1  15
TORSDOF 7
ENDMDL
MODEL 7
REMARK VINA RESULT:      -6.3      1.760      2.481
REMARK  Name = 
REMARK  9 active torsions:
REMARK  status: ('A' for Active; 'I' for Inactive)
REMARK    1  A    between atoms: C_1  and  O_2
REMARK    2  A    between atoms: O_2  and  C_3
REMARK    3  A    between atoms: C_3  and  C_5
REMARK    4  A    between atoms: C_5  and  N_6
REMARK    5  A    between atoms: N_6  and  C_7
REMARK    6  A    between atoms: N_6  and  C_11
REMARK    7  A    between atoms: C_7  and  C_8
REMARK    8  A    between atoms: C_11  and  C_12
REMARK    9  A    between atoms: C_11  and  C_13
REMARK                            x       y       z     vdW  Elec       q    Type
REMARK                         _______ _______ _______ _____ _____    ______ ____
ROOT
ATOM      1  N   UNL     1       4.427   4.802  17.638  0.00  0.00    +0.000 NA
ENDROOT
BRANCH   1   2
ATOM      2  C   UNL     1       3.140   5.479  17.838  0.00  0.00    +0.000 C 
ATOM      3  C   UNL     1       3.206   7.013  17.963  0.00  0.00    +0.000 C 
BRANCH   2   4
ATOM      4  C   UNL     1       2.382   4.785  18.971  0.00  0.00    +0.000 A 
ATOM      5  C   UNL     1       1.343   3.895  18.638  0.00  0.00    +0.000 A 
ATOM      6  C   UNL     1       0.681   3.163  19.626  0.00  0.00    +0.000 A 
ATOM      7  C   UNL     1       1.050   3.304  20.960  0.00  0.00    +0.000 A 
ATOM      8  C   UNL     1       2.071   4.185  21.309  0.00  0.00    +0.000 A 
ATOM      9  C   UNL     1       2.729   4.924  20.324  0.00  0.00    +0.000 A 
ENDBRANCH   2   4
ENDBRANCH   1   2
BRANCH   1  10
ATOM     10  C   UNL     1       5.582   5.625  17.224  0.00  0.00    +0.000 C 
BRANCH  10  11
ATOM     11  C   UNL     1       6.955   4.955  17.181  0.00  0.00    +0.000 C 
ATOM     12  O   UNL     1       7.633   4.723  16.191  0.00  0.00    +0.000 OA
BRANCH  11  14
ATOM     13  C   UNL     1       7.810   5.738  19.278  0.00  0.00    +0.000 C 
ATOM     14  O   UNL     1       7.318   4.664  18.468  0.00  0.00    +0.000 OA
ENDBRANCH  11  14
ENDBRANCH  10  11
ENDBRANCH   1  10
BRANCH   1  15
ATOM     15  C   UNL     1       4.348   3.454  17.057  0.00  0.00    +0.000 C 
BRANCH  15  16
ATOM     16  C   UNL     1       4.339   2.392  18.164  0.00  0.00    +0.000 C 
ATOM     17  N   UNL     1       5.105   2.694  19.262  0.00  0.00    +0.000 N 
ATOM     18  O   UNL     1       3.654   1.376  18.132  0.00  0.00    +0.000 OA
ATOM     19  H   UNL     1       5.806   3.420  19.174  0.00  0.00    +0.000 HD
ATOM     20  H   UNL     1       5.196   1.992  19.982  0.00  0.00    +0.000 HD
ENDBRANCH  15  16
ENDBRANCH   1  15
TORSDOF 7
ENDMDL
MODEL 8
REMARK VINA RESULT:      -6.2      1.238      2.912
REMARK  Name = 
REMARK  9 active torsions:
REMARK  status: ('A' for Active; 'I' for Inactive)
REMARK    1  A    between atoms: C_1  and  O_2
REMARK    2  A    between atoms: O_2  and  C_3
REMARK    3  A    between atoms: C_3  and  C_5
REMARK    4  A    between atoms: C_5  and  N_6
REMARK    5  A    between atoms: N_6  and  C_7
REMARK    6  A    between atoms: N_6  and  C_11
REMARK    7  A    between atoms: C_7  and  C_8
REMARK    8  A    between atoms: C_11  and  C_12
REMARK    9  A    between atoms: C_11  and  C_13
REMARK                            x       y       z     vdW  Elec       q    Type
REMARK                         _______ _______ _______ _____ _____    ______ ____
ROOT
ATOM      1  N   UNL     1       4.212   5.841  17.878  0.00  0.00    +0.000 NA
ENDROOT
BRANCH   1   2
ATOM      2  C   UNL     1       2.785   6.166  17.985  0.00  0.00    +0.000 C 
ATOM      3  C   UNL     1       2.459   7.568  18.532  0.00  0.00    +0.000 C 
BRANCH   2   4
ATOM      4  C   UNL     1       2.067   5.024  18.706  0.00  0.00    +0.000 A 
ATOM      5  C   UNL     1       1.708   3.881  17.966  0.00  0.00    +0.000 A 
ATOM      6  C   UNL     1       1.136   2.771  18.591  0.00  0.00    +0.000 A 
ATOM      7  C   UNL     1       0.919   2.783  19.966  0.00  0.00    +0.000 A 
ATOM      8  C   UNL     1       1.261   3.908  20.713  0.00  0.00    +0.000 A 
ATOM      9  C   UNL     1       1.825   5.022  20.089  0.00  0.00    +0.000 A 
ENDBRANCH   2   4
ENDBRANCH   1   2
BRANCH   1  10
ATOM     10  C   UNL     1       4.651   5.042  16.716  0.00  0.00    +0.000 C 
BRANCH  10  11
ATOM     11  C   UNL     1       5.462   5.750  15.630  0.00  0.00    +0.000 C 
ATOM     12  O   UNL     1       5.260   6.861  15.164  0.00  0.00    +0.000 OA
BRANCH  11  14
ATOM     13  C   UNL     1       6.392   4.259  14.001  0.00  0.00    +0.000 C 
ATOM     14  O   UNL     1       6.488   4.920  15.268  0.00  0.00    +0.000 OA
ENDBRANCH  11  14
ENDBRANCH  10  11
ENDBRANCH   1  10
BRANCH   1  15
ATOM     15  C   UNL     1       4.894   5.567  19.151  0.00  0.00    +0.000 C 
BRANCH  15  16
ATOM     16  C   UNL     1       5.777   4.317  19.027  0.00  0.00    +0.000 C 
ATOM     17  N   UNL     1       5.146   3.132  19.313  0.00  0.00    +0.000 N 
ATOM     18  O   UNL     1       6.938   4.336  18.636  0.00  0.00    +0.000 OA
ATOM     19  H   UNL     1       4.272   3.164  19.822  0.00  0.00    +0.000 HD
ATOM     20  H   UNL     1       5.705   2.291  19.323  0.00  0.00    +0.000 HD
ENDBRANCH  15  16
ENDBRANCH   1  15
TORSDOF 7
ENDMDL
MODEL 9
REMARK VINA RESULT:      -6.2      1.185      1.329
REMARK  Name = 
REMARK  9 active torsions:
REMARK  status: ('A' for Active; 'I' for Inactive)
REMARK    1  A    between atoms: C_1  and  O_2
REMARK    2  A    between atoms: O_2  and  C_3
REMARK    3  A    between atoms: C_3  and  C_5
REMARK    4  A    between atoms: C_5  and  N_6
REMARK    5  A    between atoms: N_6  and  C_7
REMARK    6  A    between atoms: N_6  and  C_11
REMARK    7  A    between atoms: C_7  and  C_8
REMARK    8  A    between atoms: C_11  and  C_12
REMARK    9  A    between atoms: C_11  and  C_13
REMARK                            x       y       z     vdW  Elec       q    Type
REMARK                         _______ _______ _______ _____ _____    ______ ____
ROOT
ATOM      1  N   UNL     1       4.436   5.280  17.715  0.00  0.00    +0.000 NA
ENDROOT
BRANCH   1   2
ATOM      2  C   UNL     1       3.037   5.700  17.859  0.00  0.00    +0.000 C 
ATOM      3  C   UNL     1       2.812   7.208  18.069  0.00  0.00    +0.000 C 
BRANCH   2   4
ATOM      4  C   UNL     1       2.354   4.808  18.897  0.00  0.00    +0.000 A 
ATOM      5  C   UNL     1       1.502   3.780  18.446  0.00  0.00    +0.000 A 
ATOM      6  C   UNL     1       0.928   2.879  19.343  0.00  0.00    +0.000 A 
ATOM      7  C   UNL     1       1.197   2.984  20.704  0.00  0.00    +0.000 A 
ATOM      8  C   UNL     1       2.031   3.999  21.170  0.00  0.00    +0.000 A 
ATOM      9  C   UNL     1       2.600   4.907  20.275  0.00  0.00    +0.000 A 
ENDBRANCH   2   4
ENDBRANCH   1   2
BRANCH   1  10
ATOM     10  C   UNL     1       5.487   6.239  18.112  0.00  0.00    +0.000 C 
BRANCH  10  11
ATOM     11  C   UNL     1       6.670   5.705  18.920  0.00  0.00    +0.000 C 
ATOM     12  O   UNL     1       6.634   4.903  19.841  0.00  0.00    +0.000 OA
BRANCH  11  14
ATOM     13  C   UNL     1       7.667   7.473  17.646  0.00  0.00    +0.000 C 
ATOM     14  O   UNL     1       7.809   6.275  18.418  0.00  0.00    +0.000 OA
ENDBRANCH  11  14
ENDBRANCH  10  11
ENDBRANCH   1  10
BRANCH   1  15
ATOM     15  C   UNL     1       4.728   4.446  16.540  0.00  0.00    +0.000 C 
BRANCH  15  16
ATOM     16  C   UNL     1       5.626   5.205  15.554  0.00  0.00    +0.000 C 
ATOM     17  N   UNL     1       6.814   4.585  15.257  0.00  0.00    +0.000 N 
ATOM     18  O   UNL     1       5.304   6.250  15.001  0.00  0.00    +0.000 OA
ATOM     19  H   UNL     1       7.138   3.848  15.872  0.00  0.00    +0.000 HD
ATOM     20  H   UNL     1       7.474   5.082  14.677  0.00  0.00    +0.000 HD
ENDBRANCH  15  16
ENDBRANCH   1  15
TORSDOF 7
ENDMDL
