MODEL 1
REMARK VINA RESULT:      -8.2      0.000      0.000
REMARK  Name = 
REMARK  9 active torsions:
REMARK  status: ('A' for Active; 'I' for Inactive)
REMARK    1  A    between atoms: C_1  and  C_2
REMARK    2  A    between atoms: C_2  and  C_3
REMARK    3  A    between atoms: C_2  and  C_4
REMARK    4  A    between atoms: C_4  and  C_5
REMARK    5  A    between atoms: C_5  and  N_6
REMARK    6  A    between atoms: N_6  and  S_7
REMARK    7  A    between atoms: S_7  and  C_10
REMARK    8  A    between atoms: C_12  and  C_13
REMARK    9  A    between atoms: C_15  and  C_16
REMARK                            x       y       z     vdW  Elec       q    Type
REMARK                         _______ _______ _______ _____ _____    ______ ____
ROOT
ATOM      1  C   UNL     1       5.210   5.338  17.378  0.00  0.00    +0.000 A 
ATOM      2  C   UNL     1       4.642   6.566  17.665  0.00  0.00    +0.000 A 
ATOM      3  C   UNL     1       3.313   6.462  18.150  0.00  0.00    +0.000 A 
ATOM      4  C   UNL     1       2.909   5.151  18.259  0.00  0.00    +0.000 A 
ATOM      5  S   UNL     1       4.128   4.063  17.730  0.00  0.00    +0.000 S 
ENDROOT
BRANCH   3   6
ATOM      6  C   UNL     1       2.468   7.632  18.511  0.00  0.00    +0.000 A 
ATOM      7  N   UNL     1       1.948   7.804  19.713  0.00  0.00    +0.000 NA
ATOM      8  C   UNL     1       1.283   9.002  19.591  0.00  0.00    +0.000 A 
ATOM      9  N   UNL     1       1.357   9.541  18.363  0.00  0.00    +0.000 NA
ATOM     10  O   UNL     1       2.153   8.647  17.656  0.00  0.00    +0.000 OA
BRANCH   8  11
ATOM     11  C   UNL     1       0.599   9.633  20.714  0.00  0.00    +0.000 A 
ATOM     12  C   UNL     1       0.423   8.941  21.925  0.00  0.00    +0.000 A 
ATOM     13  C   UNL     1      -0.268   9.523  22.991  0.00  0.00    +0.000 A 
ATOM     14  C   UNL     1      -0.792  10.806  22.855  0.00  0.00    +0.000 A 
ATOM     15  C   UNL     1      -0.613  11.497  21.663  0.00  0.00    +0.000 A 
ATOM     16  F   UNL     1      -1.123  12.730  21.535  0.00  0.00    +0.000 F 
ATOM     17  C   UNL     1       0.077  10.928  20.596  0.00  0.00    +0.000 A 
ENDBRANCH   8  11
ENDBRANCH   3   6
BRANCH   1  18
ATOM     18  S   UNL     1       6.830   4.929  16.755  0.00  0.00    +0.000 S 
ATOM     19  O   UNL     1       7.612   4.381  17.836  0.00  0.00    +0.000 OA
ATOM     20  O   UNL     1       7.246   6.115  16.035  0.00  0.00    +0.000 OA
BRANCH  18  21
ATOM     21  N   UNL     1       6.653   3.702  15.594  0.00  0.00    +0.000 NA
ATOM     22  H   UNL     1       7.575   3.292  15.437  0.00  0.00    +0.000 HD
BRANCH  21  23
ATOM     23  C   UNL     1       5.965   4.071  14.344  0.00  0.00    +0.000 C 
BRANCH  23  24
ATOM     24  C   UNL     1       6.924   4.034  13.161  0.00  0.00    +0.000 C 
BRANCH  24  26
ATOM     25  C   UNL     1       6.918   2.115  11.463  0.00  0.00    +0.000 C 
ATOM     26  C   UNL     1       6.303   3.457  11.873  0.00  0.00    +0.000 C 
ATOM     27  C   UNL     1       4.794   3.297  12.055  0.00  0.00    +0.000 C 
ENDBRANCH  24  26
ENDBRANCH  23  24
ENDBRANCH  21  23
ENDBRANCH  18  21
ENDBRANCH   1  18
TORSDOF 7
ENDMDL
MODEL 2
REMARK VINA RESULT:      -8.1      2.069      2.515
REMARK  Name = 
REMARK  9 active torsions:
REMARK  status: ('A' for Active; 'I' for Inactive)
REMARK    1  A    between atoms: C_1  and  C_2
REMARK    2  A    between atoms: C_2  and  C_3
REMARK    3  A    between atoms: C_2  and  C_4
REMARK    4  A    between atoms: C_4  and  C_5
REMARK    5  A    between atoms: C_5  and  N_6
REMARK    6  A    between atoms: N_6  and  S_7
REMARK    7  A    between atoms: S_7  and  C_10
REMARK    8  A    between atoms: C_12  and  C_13
REMARK    9  A    between atoms: C_15  and  C_16
REMARK                            x       y       z     vdW  Elec       q    Type
REMARK                         _______ _______ _______ _____ _____    ______ ____
ROOT
ATOM      1  C   UNL     1       5.465   5.658  16.917  0.00  0.00    +0.000 A 
ATOM      2  C   UNL     1       4.839   6.746  17.497  0.00  0.00    +0.000 A 
ATOM      3  C   UNL     1       3.525   6.456  17.944  0.00  0.00    +0.000 A 
ATOM      4  C   UNL     1       3.190   5.140  17.730  0.00  0.00    +0.000 A 
ATOM      5  S   UNL     1       4.456   4.280  16.948  0.00  0.00    +0.000 S 
ENDROOT
BRANCH   3   6
ATOM      6  C   UNL     1       2.627   7.457  18.582  0.00  0.00    +0.000 A 
ATOM      7  N   UNL     1       2.039   8.431  17.911  0.00  0.00    +0.000 NA
ATOM      8  C   UNL     1       1.306   9.074  18.882  0.00  0.00    +0.000 A 
ATOM      9  N   UNL     1       1.452   8.547  20.109  0.00  0.00    +0.000 NA
ATOM     10  O   UNL     1       2.308   7.471  19.908  0.00  0.00    +0.000 OA
BRANCH   8  11
ATOM     11  C   UNL     1       0.427  10.197  18.580  0.00  0.00    +0.000 A 
ATOM     12  C   UNL     1       0.755  11.496  19.006  0.00  0.00    +0.000 A 
ATOM     13  C   UNL     1      -0.104  12.571  18.757  0.00  0.00    +0.000 A 
ATOM     14  C   UNL     1      -1.302  12.356  18.081  0.00  0.00    +0.000 A 
ATOM     15  C   UNL     1      -1.626  11.075  17.652  0.00  0.00    +0.000 A 
ATOM     16  F   UNL     1      -2.782  10.871  17.005  0.00  0.00    +0.000 F 
ATOM     17  C   UNL     1      -0.776   9.997  17.891  0.00  0.00    +0.000 A 
ENDBRANCH   8  11
ENDBRANCH   3   6
BRANCH   1  18
ATOM     18  S   UNL     1       7.095   5.500  16.211  0.00  0.00    +0.000 S 
ATOM     19  O   UNL     1       7.708   4.305  16.736  0.00  0.00    +0.000 OA
ATOM     20  O   UNL     1       7.692   6.807  16.392  0.00  0.00    +0.000 OA
BRANCH  18  21
ATOM     21  N   UNL     1       6.923   5.280  14.536  0.00  0.00    +0.000 NA
ATOM     22  H   UNL     1       6.616   6.170  14.138  0.00  0.00    +0.000 HD
BRANCH  21  23
ATOM     23  C   UNL     1       6.095   4.140  14.103  0.00  0.00    +0.000 C 
BRANCH  23  24
ATOM     24  C   UNL     1       6.282   3.861  12.617  0.00  0.00    +0.000 C 
BRANCH  24  26
ATOM     25  C   UNL     1       4.205   3.229  11.257  0.00  0.00    +0.000 C 
ATOM     26  C   UNL     1       5.394   2.721  12.079  0.00  0.00    +0.000 C 
ATOM     27  C   UNL     1       6.236   1.768  11.231  0.00  0.00    +0.000 C 
ENDBRANCH  24  26
ENDBRANCH  23  24
ENDBRANCH  21  23
ENDBRANCH  18  21
ENDBRANCH   1  18
TORSDOF 7
ENDMDL
MODEL 3
REMARK VINA RESULT:      -8.1      1.096      1.534
REMARK  Name = 
REMARK  9 active torsions:
REMARK  status: ('A' for Active; 'I' for Inactive)
REMARK    1  A    between atoms: C_1  and  C_2
REMARK    2  A    between atoms: C_2  and  C_3
REMARK    3  A    between atoms: C_2  and  C_4
REMARK    4  A    between atoms: C_4  and  C_5
REMARK    5  A    between atoms: C_5  and  N_6
REMARK    6  A    between atoms: N_6  and  S_7
REMARK    7  A    between atoms: S_7  and  C_10
REMARK    8  A    between atoms: C_12  and  C_13
REMARK    9  A    between atoms: C_15  and  C_16
REMARK                            x       y       z     vdW  Elec       q    Type
REMARK                         _______ _______ _______ _____ _____    ______ ____
ROOT
ATOM      1  C   UNL     1       5.550   5.262  17.114  0.00  0.00    +0.000 A 
ATOM      2  C   UNL     1       4.835   6.444  17.162  0.00  0.00    +0.000 A 
ATOM      3  C   UNL     1       3.762   6.405  18.089  0.00  0.00    +0.000 A 
ATOM      4  C   UNL     1       3.706   5.205  18.758  0.00  0.00    +0.000 A 
ATOM      5  S   UNL     1       4.927   4.121  18.223  0.00  0.00    +0.000 S 
ENDROOT
BRANCH   3   6
ATOM      6  C   UNL     1       2.822   7.537  18.318  0.00  0.00    +0.000 A 
ATOM      7  N   UNL     1       2.210   7.745  19.468  0.00  0.00    +0.000 NA
ATOM      8  C   UNL     1       1.481   8.887  19.227  0.00  0.00    +0.000 A 
ATOM      9  N   UNL     1       1.607   9.355  17.974  0.00  0.00    +0.000 NA
ATOM     10  O   UNL     1       2.505   8.475  17.380  0.00  0.00    +0.000 OA
BRANCH   8  11
ATOM     11  C   UNL     1       0.683   9.538  20.259  0.00  0.00    +0.000 A 
ATOM     12  C   UNL     1      -0.138  10.634  19.944  0.00  0.00    +0.000 A 
ATOM     13  C   UNL     1      -0.873  11.289  20.936  0.00  0.00    +0.000 A 
ATOM     14  C   UNL     1      -0.793  10.853  22.256  0.00  0.00    +0.000 A 
ATOM     15  C   UNL     1       0.012   9.764  22.570  0.00  0.00    +0.000 A 
ATOM     16  F   UNL     1       0.090   9.351  23.842  0.00  0.00    +0.000 F 
ATOM     17  C   UNL     1       0.746   9.102  21.590  0.00  0.00    +0.000 A 
ENDBRANCH   8  11
ENDBRANCH   3   6
BRANCH   1  18
ATOM     18  S   UNL     1       6.968   4.806  16.133  0.00  0.00    +0.000 S 
ATOM     19  O   UNL     1       7.930   4.159  16.991  0.00  0.00    +0.000 OA
ATOM     20  O   UNL     1       7.291   6.007  15.391  0.00  0.00    +0.000 OA
BRANCH  18  21
ATOM     21  N   UNL     1       6.467   3.655  14.988  0.00  0.00    +0.000 NA
ATOM     22  H   UNL     1       7.274   3.430  14.404  0.00  0.00    +0.000 HD
BRANCH  21  23
ATOM     23  C   UNL     1       5.264   3.988  14.204  0.00  0.00    +0.000 C 
BRANCH  23  24
ATOM     24  C   UNL     1       5.446   3.615  12.739  0.00  0.00    +0.000 C 
BRANCH  24  26
ATOM     25  C   UNL     1       7.141   2.375  11.271  0.00  0.00    +0.000 C 
ATOM     26  C   UNL     1       6.920   3.482  12.307  0.00  0.00    +0.000 C 
ATOM     27  C   UNL     1       7.415   4.816  11.747  0.00  0.00    +0.000 C 
ENDBRANCH  24  26
ENDBRANCH  23  24
ENDBRANCH  21  23
ENDBRANCH  18  21
ENDBRANCH   1  18
TORSDOF 7
ENDMDL
MODEL 4
REMARK VINA RESULT:      -8.0      1.934      2.294
REMARK  Name = 
REMARK  9 active torsions:
REMARK  status: ('A' for Active; 'I' for Inactive)
REMARK    1  A    between atoms: C_1  and  C_2
REMARK    2  A    between atoms: C_2  and  C_3
REMARK    3  A    between atoms: C_2  and  C_4
REMARK    4  A    between atoms: C_4  and  C_5
REMARK    5  A    between atoms: C_5  and  N_6
REMARK    6  A    between atoms: N_6  and  S_7
REMARK    7  A    between atoms: S_7  and  C_10
REMARK    8  A    between atoms: C_12  and  C_13
REMARK    9  A    between atoms: C_15  and  C_16
REMARK                            x       y       z     vdW  Elec       q    Type
REMARK                         _______ _______ _______ _____ _____    ______ ____
ROOT
ATOM      1  C   UNL     1       4.862   5.285  17.084  0.00  0.00    +0.000 A 
ATOM      2  C   UNL     1       4.393   6.463  17.636  0.00  0.00    +0.000 A 
ATOM      3  C   UNL     1       3.084   6.344  18.168  0.00  0.00    +0.000 A 
ATOM      4  C   UNL     1       2.596   5.063  18.045  0.00  0.00    +0.000 A 
ATOM      5  S   UNL     1       3.713   4.031  17.246  0.00  0.00    +0.000 S 
ENDROOT
BRANCH   3   6
ATOM      6  C   UNL     1       2.339   7.468  18.797  0.00  0.00    +0.000 A 
ATOM      7  N   UNL     1       1.918   8.522  18.123  0.00  0.00    +0.000 NA
ATOM      8  C   UNL     1       1.276   9.267  19.085  0.00  0.00    +0.000 A 
ATOM      9  N   UNL     1       1.319   8.720  20.312  0.00  0.00    +0.000 NA
ATOM     10  O   UNL     1       2.005   7.526  20.119  0.00  0.00    +0.000 OA
BRANCH   8  11
ATOM     11  C   UNL     1       0.584  10.512  18.776  0.00  0.00    +0.000 A 
ATOM     12  C   UNL     1       1.244  11.747  18.901  0.00  0.00    +0.000 A 
ATOM     13  C   UNL     1       0.574  12.947  18.648  0.00  0.00    +0.000 A 
ATOM     14  C   UNL     1      -0.765  12.924  18.267  0.00  0.00    +0.000 A 
ATOM     15  C   UNL     1      -1.419  11.705  18.135  0.00  0.00    +0.000 A 
ATOM     16  F   UNL     1      -2.709  11.686  17.773  0.00  0.00    +0.000 F 
ATOM     17  C   UNL     1      -0.761  10.502  18.381  0.00  0.00    +0.000 A 
ENDBRANCH   8  11
ENDBRANCH   3   6
BRANCH   1  18
ATOM     18  S   UNL     1       6.421   4.913  16.301  0.00  0.00    +0.000 S 
ATOM     19  O   UNL     1       7.327   4.408  17.303  0.00  0.00    +0.000 OA
ATOM     20  O   UNL     1       6.723   6.097  15.524  0.00  0.00    +0.000 OA
BRANCH  18  21
ATOM     21  N   UNL     1       6.161   3.659  15.185  0.00  0.00    +0.000 NA
ATOM     22  H   UNL     1       7.031   3.127  15.112  0.00  0.00    +0.000 HD
BRANCH  21  23
ATOM     23  C   UNL     1       5.614   4.049  13.873  0.00  0.00    +0.000 C 
BRANCH  23  24
ATOM     24  C   UNL     1       6.528   3.597  12.742  0.00  0.00    +0.000 C 
BRANCH  24  26
ATOM     25  C   UNL     1       5.992   1.475  11.410  0.00  0.00    +0.000 C 
ATOM     26  C   UNL     1       5.780   2.987  11.539  0.00  0.00    +0.000 C 
ATOM     27  C   UNL     1       4.287   3.290  11.654  0.00  0.00    +0.000 C 
ENDBRANCH  24  26
ENDBRANCH  23  24
ENDBRANCH  21  23
ENDBRANCH  18  21
ENDBRANCH   1  18
TORSDOF 7
ENDMDL
MODEL 5
REMARK VINA RESULT:      -7.9      1.001      1.458
REMARK  Name = 
REMARK  9 active torsions:
REMARK  status: ('A' for Active; 'I' for Inactive)
REMARK    1  A    between atoms: C_1  and  C_2
REMARK    2  A    between atoms: C_2  and  C_3
REMARK    3  A    between atoms: C_2  and  C_4
REMARK    4  A    between atoms: C_4  and  C_5
REMARK    5  A    between atoms: C_5  and  N_6
REMARK    6  A    between atoms: N_6  and  S_7
REMARK    7  A    between atoms: S_7  and  C_10
REMARK    8  A    between atoms: C_12  and  C_13
REMARK    9  A    between atoms: C_15  and  C_16
REMARK                            x       y       z     vdW  Elec       q    Type
REMARK                         _______ _______ _______ _____ _____    ______ ____
ROOT
ATOM      1  C   UNL     1       4.837   5.540  17.470  0.00  0.00    +0.000 A 
ATOM      2  C   UNL     1       4.333   6.810  17.684  0.00  0.00    +0.000 A 
ATOM      3  C   UNL     1       2.991   6.804  18.141  0.00  0.00    +0.000 A 
ATOM      4  C   UNL     1       2.510   5.525  18.304  0.00  0.00    +0.000 A 
ATOM      5  S   UNL     1       3.677   4.346  17.857  0.00  0.00    +0.000 S 
ENDROOT
BRANCH   3   6
ATOM      6  C   UNL     1       2.206   8.036  18.425  0.00  0.00    +0.000 A 
ATOM      7  N   UNL     1       1.634   8.275  19.591  0.00  0.00    +0.000 NA
ATOM      8  C   UNL     1       1.056   9.510  19.403  0.00  0.00    +0.000 A 
ATOM      9  N   UNL     1       1.231  10.007  18.167  0.00  0.00    +0.000 NA
ATOM     10  O   UNL     1       2.004   9.044  17.528  0.00  0.00    +0.000 OA
BRANCH   8  11
ATOM     11  C   UNL     1       0.356  10.215  20.470  0.00  0.00    +0.000 A 
ATOM     12  C   UNL     1      -0.228  11.471  20.232  0.00  0.00    +0.000 A 
ATOM     13  C   UNL     1      -0.864  12.173  21.261  0.00  0.00    +0.000 A 
ATOM     14  C   UNL     1      -0.920  11.623  22.539  0.00  0.00    +0.000 A 
ATOM     15  C   UNL     1      -0.350  10.378  22.776  0.00  0.00    +0.000 A 
ATOM     16  F   UNL     1      -0.402   9.855  24.008  0.00  0.00    +0.000 F 
ATOM     17  C   UNL     1       0.282   9.669  21.758  0.00  0.00    +0.000 A 
ENDBRANCH   8  11
ENDBRANCH   3   6
BRANCH   1  18
ATOM     18  S   UNL     1       6.444   5.012  16.907  0.00  0.00    +0.000 S 
ATOM     19  O   UNL     1       7.160   4.450  18.026  0.00  0.00    +0.000 OA
ATOM     20  O   UNL     1       6.954   6.146  16.164  0.00  0.00    +0.000 OA
BRANCH  18  21
ATOM     21  N   UNL     1       6.221   3.761  15.779  0.00  0.00    +0.000 NA
ATOM     22  H   UNL     1       6.713   2.938  16.131  0.00  0.00    +0.000 HD
BRANCH  21  23
ATOM     23  C   UNL     1       6.550   4.073  14.376  0.00  0.00    +0.000 C 
BRANCH  23  24
ATOM     24  C   UNL     1       5.442   3.612  13.439  0.00  0.00    +0.000 C 
BRANCH  24  26
ATOM     25  C   UNL     1       7.272   4.025  11.694  0.00  0.00    +0.000 C 
ATOM     26  C   UNL     1       5.903   3.399  11.983  0.00  0.00    +0.000 C 
ATOM     27  C   UNL     1       5.944   1.904  11.668  0.00  0.00    +0.000 C 
ENDBRANCH  24  26
ENDBRANCH  23  24
ENDBRANCH  21  23
ENDBRANCH  18  21
ENDBRANCH   1  18
TORSDOF 7
ENDMDL
MODEL 6
REMARK VINA RESULT:      -7.8      1.262      1.622
REMARK  Name = 
REMARK  9 active torsions:
REMARK  status: ('A' for Active; 'I' for Inactive)
REMARK    1  A    between atoms: C_1  and  C_2
REMARK    2  A    between atoms: C_2  and  C_3
REMARK    3  A    between atoms: C_2  and  C_4
REMARK    4  A    between atoms: C_4  and  C_5
REMARK    5  A    between atoms: C_5  and  N_6
REMARK    6  A    between atoms: N_6  and  S_7
REMARK    7  A    between atoms: S_7  and  C_10
REMARK    8  A    between atoms: C_12  and  C_13
REMARK    9  A    between atoms: C_15  and  C_16
REMARK                            x       y       z     vdW  Elec       q    Type
REMARK                         _______ _______ _______ _____ _____    ______ ____
ROOT
ATOM      1  C   UNL     1       5.208   5.170  17.341  0.00  0.00    +0.000 A 
ATOM      2  C   UNL     1       4.428   6.303  17.202  0.00  0.00    +0.000 A 
ATOM      3  C   UNL     1       3.609   6.555  18.331  0.00  0.00    +0.000 A 
ATOM      4  C   UNL     1       3.810   5.628  19.327  0.00  0.00    +0.000 A 
ATOM      5  S   UNL     1       4.958   4.436  18.864  0.00  0.00    +0.000 S 
ENDROOT
BRANCH   3   6
ATOM      6  C   UNL     1       2.659   7.697  18.428  0.00  0.00    +0.000 A 
ATOM      7  N   UNL     1       2.033   8.022  19.544  0.00  0.00    +0.000 NA
ATOM      8  C   UNL     1       1.299   9.125  19.175  0.00  0.00    +0.000 A 
ATOM      9  N   UNL     1       1.434   9.457  17.880  0.00  0.00    +0.000 NA
ATOM     10  O   UNL     1       2.344   8.526  17.392  0.00  0.00    +0.000 OA
BRANCH   8  11
ATOM     11  C   UNL     1       0.485   9.876  20.124  0.00  0.00    +0.000 A 
ATOM     12  C   UNL     1      -0.177  11.050  19.726  0.00  0.00    +0.000 A 
ATOM     13  C   UNL     1      -0.924  11.797  20.642  0.00  0.00    +0.000 A 
ATOM     14  C   UNL     1      -1.015  11.377  21.966  0.00  0.00    +0.000 A 
ATOM     15  C   UNL     1      -0.368  10.213  22.361  0.00  0.00    +0.000 A 
ATOM     16  F   UNL     1      -0.453   9.814  23.637  0.00  0.00    +0.000 F 
ATOM     17  C   UNL     1       0.376   9.458  21.457  0.00  0.00    +0.000 A 
ENDBRANCH   8  11
ENDBRANCH   3   6
BRANCH   1  18
ATOM     18  S   UNL     1       6.390   4.433  16.228  0.00  0.00    +0.000 S 
ATOM     19  O   UNL     1       5.985   3.074  15.963  0.00  0.00    +0.000 OA
ATOM     20  O   UNL     1       7.677   4.747  16.813  0.00  0.00    +0.000 OA
BRANCH  18  21
ATOM     21  N   UNL     1       6.317   5.272  14.753  0.00  0.00    +0.000 NA
ATOM     22  H   UNL     1       5.418   5.757  14.719  0.00  0.00    +0.000 HD
BRANCH  21  23
ATOM     23  C   UNL     1       6.596   4.491  13.535  0.00  0.00    +0.000 C 
BRANCH  23  24
ATOM     24  C   UNL     1       5.407   3.614  13.163  0.00  0.00    +0.000 C 
BRANCH  24  26
ATOM     25  C   UNL     1       5.847   1.749  11.462  0.00  0.00    +0.000 C 
ATOM     26  C   UNL     1       5.382   3.193  11.680  0.00  0.00    +0.000 C 
ATOM     27  C   UNL     1       3.972   3.370  11.118  0.00  0.00    +0.000 C 
ENDBRANCH  24  26
ENDBRANCH  23  24
ENDBRANCH  21  23
ENDBRANCH  18  21
ENDBRANCH   1  18
TORSDOF 7
ENDMDL
MODEL 7
REMARK VINA RESULT:      -7.8      3.034      4.538
REMARK  Name = 
REMARK  9 active torsions:
REMARK  status: ('A' for Active; 'I' for Inactive)
REMARK    1  A    between atoms: C_1  and  C_2
REMARK    2  A    between atoms: C_2  and  C_3
REMARK    3  A    between atoms: C_2  and  C_4
REMARK    4  A    between atoms: C_4  and  C_5
REMARK    5  A    between atoms: C_5  and  N_6
REMARK    6  A    between atoms: N_6  and  S_7
REMARK    7  A    between atoms: S_7  and  C_10
REMARK    8  A    between atoms: C_12  and  C_13
REMARK    9  A    between atoms: C_15  and  C_16
REMARK                            x       y       z     vdW  Elec       q    Type
REMARK                         _______ _______ _______ _____ _____    ______ ____
ROOT
ATOM      1  C   UNL     1       4.320   5.477  17.481  0.00  0.00    +0.000 A 
ATOM      2  C   UNL     1       3.332   6.218  18.102  0.00  0.00    +0.000 A 
ATOM      3  C   UNL     1       3.281   7.561  17.652  0.00  0.00    +0.000 A 
ATOM      4  C   UNL     1       4.209   7.807  16.667  0.00  0.00    +0.000 A 
ATOM      5  S   UNL     1       5.162   6.418  16.330  0.00  0.00    +0.000 S 
ENDROOT
BRANCH   3   6
ATOM      6  C   UNL     1       2.325   8.576  18.175  0.00  0.00    +0.000 A 
ATOM      7  N   UNL     1       1.821   8.531  19.394  0.00  0.00    +0.000 NA
ATOM      8  C   UNL     1       1.029   9.655  19.441  0.00  0.00    +0.000 A 
ATOM      9  N   UNL     1       1.012  10.354  18.294  0.00  0.00    +0.000 NA
ATOM     10  O   UNL     1       1.881   9.652  17.465  0.00  0.00    +0.000 OA
BRANCH   8  11
ATOM     11  C   UNL     1       0.311  10.056  20.645  0.00  0.00    +0.000 A 
ATOM     12  C   UNL     1      -0.568  11.152  20.622  0.00  0.00    +0.000 A 
ATOM     13  C   UNL     1      -1.226  11.568  21.783  0.00  0.00    +0.000 A 
ATOM     14  C   UNL     1      -1.010  10.891  22.980  0.00  0.00    +0.000 A 
ATOM     15  C   UNL     1      -0.148   9.801  23.005  0.00  0.00    +0.000 A 
ATOM     16  F   UNL     1       0.062   9.155  24.160  0.00  0.00    +0.000 F 
ATOM     17  C   UNL     1       0.511   9.376  21.854  0.00  0.00    +0.000 A 
ENDBRANCH   8  11
ENDBRANCH   3   6
BRANCH   1  18
ATOM     18  S   UNL     1       4.788   3.768  17.685  0.00  0.00    +0.000 S 
ATOM     19  O   UNL     1       5.423   3.617  18.971  0.00  0.00    +0.000 OA
ATOM     20  O   UNL     1       5.468   3.433  16.452  0.00  0.00    +0.000 OA
BRANCH  18  21
ATOM     21  N   UNL     1       3.368   2.835  17.717  0.00  0.00    +0.000 NA
ATOM     22  H   UNL     1       2.640   3.366  17.234  0.00  0.00    +0.000 HD
BRANCH  21  23
ATOM     23  C   UNL     1       2.937   2.336  19.035  0.00  0.00    +0.000 C 
BRANCH  23  24
ATOM     24  C   UNL     1       1.420   2.379  19.167  0.00  0.00    +0.000 C 
BRANCH  24  26
ATOM     25  C   UNL     1       1.486   2.526  21.724  0.00  0.00    +0.000 C 
ATOM     26  C   UNL     1       0.924   3.118  20.427  0.00  0.00    +0.000 C 
ATOM     27  C   UNL     1       1.291   4.598  20.335  0.00  0.00    +0.000 C 
ENDBRANCH  24  26
ENDBRANCH  23  24
ENDBRANCH  21  23
ENDBRANCH  18  21
ENDBRANCH   1  18
TORSDOF 7
ENDMDL
MODEL 8
REMARK VINA RESULT:      -7.7      1.495      1.793
REMARK  Name = 
REMARK  9 active torsions:
REMARK  status: ('A' for Active; 'I' for Inactive)
REMARK    1  A    between atoms: C_1  and  C_2
REMARK    2  A    between atoms: C_2  and  C_3
REMARK    3  A    between atoms: C_2  and  C_4
REMARK    4  A    between atoms: C_4  and  C_5
REMARK    5  A    between atoms: C_5  and  N_6
REMARK    6  A    between atoms: N_6  and  S_7
REMARK    7  A    between atoms: S_7  and  C_10
REMARK    8  A    between atoms: C_12  and  C_13
REMARK    9  A    between atoms: C_15  and  C_16
REMARK                            x       y       z     vdW  Elec       q    Type
REMARK                         _______ _______ _______ _____ _____    ______ ____
ROOT
ATOM      1  C   UNL     1       5.060   4.826  17.243  0.00  0.00    +0.000 A 
ATOM      2  C   UNL     1       4.441   5.841  17.950  0.00  0.00    +0.000 A 
ATOM      3  C   UNL     1       3.362   5.381  18.748  0.00  0.00    +0.000 A 
ATOM      4  C   UNL     1       3.207   4.017  18.663  0.00  0.00    +0.000 A 
ATOM      5  S   UNL     1       4.341   3.314  17.582  0.00  0.00    +0.000 S 
ENDROOT
BRANCH   3   6
ATOM      6  C   UNL     1       2.514   6.271  19.588  0.00  0.00    +0.000 A 
ATOM      7  N   UNL     1       2.355   7.559  19.342  0.00  0.00    +0.000 NA
ATOM      8  C   UNL     1       1.492   7.957  20.337  0.00  0.00    +0.000 A 
ATOM      9  N   UNL     1       1.151   6.972  21.184  0.00  0.00    +0.000 NA
ATOM     10  O   UNL     1       1.810   5.857  20.680  0.00  0.00    +0.000 OA
BRANCH   8  11
ATOM     11  C   UNL     1       0.975   9.318  20.423  0.00  0.00    +0.000 A 
ATOM     12  C   UNL     1       0.453   9.808  21.632  0.00  0.00    +0.000 A 
ATOM     13  C   UNL     1      -0.084  11.097  21.712  0.00  0.00    +0.000 A 
ATOM     14  C   UNL     1      -0.103  11.908  20.580  0.00  0.00    +0.000 A 
ATOM     15  C   UNL     1       0.419  11.429  19.385  0.00  0.00    +0.000 A 
ATOM     16  F   UNL     1       0.394  12.210  18.297  0.00  0.00    +0.000 F 
ATOM     17  C   UNL     1       0.959  10.148  19.295  0.00  0.00    +0.000 A 
ENDBRANCH   8  11
ENDBRANCH   3   6
BRANCH   1  18
ATOM     18  S   UNL     1       6.444   4.876  16.118  0.00  0.00    +0.000 S 
ATOM     19  O   UNL     1       7.645   4.575  16.856  0.00  0.00    +0.000 OA
ATOM     20  O   UNL     1       6.278   6.124  15.403  0.00  0.00    +0.000 OA
BRANCH  18  21
ATOM     21  N   UNL     1       6.235   3.636  14.975  0.00  0.00    +0.000 NA
ATOM     22  H   UNL     1       7.133   3.158  14.874  0.00  0.00    +0.000 HD
BRANCH  21  23
ATOM     23  C   UNL     1       5.640   4.024  13.684  0.00  0.00    +0.000 C 
BRANCH  23  24
ATOM     24  C   UNL     1       6.520   3.584  12.522  0.00  0.00    +0.000 C 
BRANCH  24  26
ATOM     25  C   UNL     1       5.976   1.368  11.357  0.00  0.00    +0.000 C 
ATOM     26  C   UNL     1       5.749   2.883  11.385  0.00  0.00    +0.000 C 
ATOM     27  C   UNL     1       4.255   3.178  11.518  0.00  0.00    +0.000 C 
ENDBRANCH  24  26
ENDBRANCH  23  24
ENDBRANCH  21  23
ENDBRANCH  18  21
ENDBRANCH   1  18
TORSDOF 7
ENDMDL
MODEL 9
REMARK VINA RESULT:      -7.7      2.911      4.234
REMARK  Name = 
REMARK  9 active torsions:
REMARK  status: ('A' for Active; 'I' for Inactive)
REMARK    1  A    between atoms: C_1  and  C_2
REMARK    2  A    between atoms: C_2  and  C_3
REMARK    3  A    between atoms: C_2  and  C_4
REMARK    4  A    between atoms: C_4  and  C_5
REMARK    5  A    between atoms: C_5  and  N_6
REMARK    6  A    between atoms: N_6  and  S_7
REMARK    7  A    between atoms: S_7  and  C_10
REMARK    8  A    between atoms: C_12  and  C_13
REMARK    9  A    between atoms: C_15  and  C_16
REMARK                            x       y       z     vdW  Elec       q    Type
REMARK                         _______ _______ _______ _____ _____    ______ ____
ROOT
ATOM      1  C   UNL     1       4.488   5.552  17.708  0.00  0.00    +0.000 A 
ATOM      2  C   UNL     1       3.486   6.242  18.364  0.00  0.00    +0.000 A 
ATOM      3  C   UNL     1       3.196   7.497  17.770  0.00  0.00    +0.000 A 
ATOM      4  C   UNL     1       3.959   7.720  16.647  0.00  0.00    +0.000 A 
ATOM      5  S   UNL     1       5.050   6.425  16.352  0.00  0.00    +0.000 S 
ENDROOT
BRANCH   3   6
ATOM      6  C   UNL     1       2.177   8.447  18.293  0.00  0.00    +0.000 A 
ATOM      7  N   UNL     1       1.786   8.463  19.554  0.00  0.00    +0.000 NA
ATOM      8  C   UNL     1       0.875   9.495  19.580  0.00  0.00    +0.000 A 
ATOM      9  N   UNL     1       0.683  10.077  18.385  0.00  0.00    +0.000 NA
ATOM     10  O   UNL     1       1.554   9.398  17.540  0.00  0.00    +0.000 OA
BRANCH   8  11
ATOM     11  C   UNL     1       0.220   9.927  20.808  0.00  0.00    +0.000 A 
ATOM     12  C   UNL     1       0.237   9.112  21.953  0.00  0.00    +0.000 A 
ATOM     13  C   UNL     1      -0.425   9.501  23.121  0.00  0.00    +0.000 A 
ATOM     14  C   UNL     1      -1.113  10.711  23.154  0.00  0.00    +0.000 A 
ATOM     15  C   UNL     1      -1.126  11.523  22.027  0.00  0.00    +0.000 A 
ATOM     16  F   UNL     1      -1.793  12.684  22.061  0.00  0.00    +0.000 F 
ATOM     17  C   UNL     1      -0.467  11.148  20.859  0.00  0.00    +0.000 A 
ENDBRANCH   8  11
ENDBRANCH   3   6
BRANCH   1  18
ATOM     18  S   UNL     1       5.209   3.956  18.048  0.00  0.00    +0.000 S 
ATOM     19  O   UNL     1       5.667   3.941  19.415  0.00  0.00    +0.000 OA
ATOM     20  O   UNL     1       6.109   3.727  16.937  0.00  0.00    +0.000 OA
BRANCH  18  21
ATOM     21  N   UNL     1       3.982   2.787  17.919  0.00  0.00    +0.000 NA
ATOM     22  H   UNL     1       3.230   3.191  17.357  0.00  0.00    +0.000 HD
BRANCH  21  23
ATOM     23  C   UNL     1       3.503   2.194  19.180  0.00  0.00    +0.000 C 
BRANCH  23  24
ATOM     24  C   UNL     1       1.981   2.177  19.233  0.00  0.00    +0.000 C 
BRANCH  24  26
ATOM     25  C   UNL     1       2.314   2.684  21.723  0.00  0.00    +0.000 C 
ATOM     26  C   UNL     1       1.393   2.821  20.506  0.00  0.00    +0.000 C 
ATOM     27  C   UNL     1       1.098   4.298  20.247  0.00  0.00    +0.000 C 
ENDBRANCH  24  26
ENDBRANCH  23  24
ENDBRANCH  21  23
ENDBRANCH  18  21
ENDBRANCH   1  18
TORSDOF 7
ENDMDL
