MODEL 1
REMARK VINA RESULT:      -8.1      0.000      0.000
REMARK  Name = 
REMARK  4 active torsions:
REMARK  status: ('A' for Active; 'I' for Inactive)
REMARK    1  A    between atoms: C_1  and  C_2
REMARK    2  A    between atoms: C_7  and  N_8
REMARK    3  A    between atoms: C_9  and  C_11
REMARK    4  A    between atoms: N_15  and  C_16
REMARK                            x       y       z     vdW  Elec       q    Type
REMARK                         _______ _______ _______ _____ _____    ______ ____
ROOT
ATOM      1  C   UNL     1       6.604   5.572  17.658  0.00  0.00    +0.000 C 
ATOM      2  C   UNL     1       5.821   6.714  17.036  0.00  0.00    +0.000 C 
ATOM      3  C   UNL     1       5.645   6.361  15.581  0.00  0.00    +0.000 C 
ATOM      4  O   UNL     1       5.086   7.127  14.809  0.00  0.00    +0.000 OA
ATOM      5  N   UNL     1       6.242   5.130  15.327  0.00  0.00    +0.000 N 
ATOM      6  C   UNL     1       6.747   4.530  16.544  0.00  0.00    +0.000 C 
ENDROOT
BRANCH   5   7
ATOM      7  C   UNL     1       6.413   4.532  14.029  0.00  0.00    +0.000 A 
ATOM      8  C   UNL     1       5.499   3.589  13.528  0.00  0.00    +0.000 A 
ATOM      9  C   UNL     1       5.594   3.082  12.221  0.00  0.00    +0.000 A 
ATOM     10  C   UNL     1       6.617   3.499  11.378  0.00  0.00    +0.000 A 
ATOM     11  C   UNL     1       7.568   4.391  11.861  0.00  0.00    +0.000 A 
ATOM     12  C   UNL     1       7.472   4.885  13.168  0.00  0.00    +0.000 A 
ATOM     13  F   UNL     1       8.427   5.741  13.556  0.00  0.00    +0.000 F 
ENDBRANCH   5   7
BRANCH   1  15
ATOM     14  N   UNL     1       4.602   4.602  18.703  0.00  0.00    +0.000 N 
ATOM     15  C   UNL     1       5.915   5.042  18.913  0.00  0.00    +0.000 C 
ATOM     16  O   UNL     1       6.497   5.047  19.991  0.00  0.00    +0.000 OA
ATOM     17  H   UNL     1       4.189   4.790  17.800  0.00  0.00    +0.000 HD
BRANCH  14  24
ATOM     18  C   UNL     1       2.363   6.276  19.781  0.00  0.00    +0.000 C 
ATOM     19  C   UNL     1       2.684   4.875  20.238  0.00  0.00    +0.000 A 
ATOM     20  C   UNL     1       1.853   4.344  21.254  0.00  0.00    +0.000 A 
ATOM     21  C   UNL     1       2.039   3.052  21.737  0.00  0.00    +0.000 A 
ATOM     22  C   UNL     1       3.032   2.259  21.185  0.00  0.00    +0.000 A 
ATOM     23  C   UNL     1       3.855   2.766  20.174  0.00  0.00    +0.000 A 
ATOM     24  C   UNL     1       3.720   4.081  19.699  0.00  0.00    +0.000 A 
ENDBRANCH  14  24
ENDBRANCH   1  15
TORSDOF 3
ENDMDL
MODEL 2
REMARK VINA RESULT:      -8.1      0.672      1.479
REMARK  Name = 
REMARK  4 active torsions:
REMARK  status: ('A' for Active; 'I' for Inactive)
REMARK    1  A    between atoms: C_1  and  C_2
REMARK    2  A    between atoms: C_7  and  N_8
REMARK    3  A    between atoms: C_9  and  C_11
REMARK    4  A    between atoms: N_15  and  C_16
REMARK                            x       y       z     vdW  Elec       q    Type
REMARK                         _______ _______ _______ _____ _____    ______ ____
ROOT
ATOM      1  C   UNL     1       6.371   5.354  17.680  0.00  0.00    +0.000 C 
ATOM      2  C   UNL     1       5.673   6.554  17.065  0.00  0.00    +0.000 C 
ATOM      3  C   UNL     1       5.580   6.276  15.587  0.00  0.00    +0.000 C 
ATOM      4  O   UNL     1       5.102   7.099  14.819  0.00  0.00    +0.000 OA
ATOM      5  N   UNL     1       6.146   5.035  15.311  0.00  0.00    +0.000 N 
ATOM      6  C   UNL     1       6.548   4.359  16.528  0.00  0.00    +0.000 C 
ENDROOT
BRANCH   5   7
ATOM      7  C   UNL     1       6.380   4.491  14.000  0.00  0.00    +0.000 A 
ATOM      8  C   UNL     1       5.509   3.548  13.429  0.00  0.00    +0.000 A 
ATOM      9  C   UNL     1       5.664   3.093  12.109  0.00  0.00    +0.000 A 
ATOM     10  C   UNL     1       6.708   3.565  11.322  0.00  0.00    +0.000 A 
ATOM     11  C   UNL     1       7.617   4.459  11.873  0.00  0.00    +0.000 A 
ATOM     12  C   UNL     1       7.461   4.901  13.194  0.00  0.00    +0.000 A 
ATOM     13  F   UNL     1       8.381   5.764  13.649  0.00  0.00    +0.000 F 
ENDBRANCH   5   7
BRANCH   1  15
ATOM     14  N   UNL     1       4.261   4.444  18.553  0.00  0.00    +0.000 N 
ATOM     15  C   UNL     1       5.581   4.795  18.861  0.00  0.00    +0.000 C 
ATOM     16  O   UNL     1       6.098   4.706  19.968  0.00  0.00    +0.000 OA
ATOM     17  H   UNL     1       3.913   4.705  17.640  0.00  0.00    +0.000 HD
BRANCH  14  24
ATOM     18  C   UNL     1       3.476   1.554  18.444  0.00  0.00    +0.000 C 
ATOM     19  C   UNL     1       2.894   2.566  19.398  0.00  0.00    +0.000 A 
ATOM     20  C   UNL     1       1.903   2.086  20.288  0.00  0.00    +0.000 A 
ATOM     21  C   UNL     1       1.312   2.923  21.230  0.00  0.00    +0.000 A 
ATOM     22  C   UNL     1       1.730   4.241  21.321  0.00  0.00    +0.000 A 
ATOM     23  C   UNL     1       2.714   4.728  20.455  0.00  0.00    +0.000 A 
ATOM     24  C   UNL     1       3.295   3.919  19.465  0.00  0.00    +0.000 A 
ENDBRANCH  14  24
ENDBRANCH   1  15
TORSDOF 3
ENDMDL
MODEL 3
REMARK VINA RESULT:      -7.3      0.990      1.404
REMARK  Name = 
REMARK  4 active torsions:
REMARK  status: ('A' for Active; 'I' for Inactive)
REMARK    1  A    between atoms: C_1  and  C_2
REMARK    2  A    between atoms: C_7  and  N_8
REMARK    3  A    between atoms: C_9  and  C_11
REMARK    4  A    between atoms: N_15  and  C_16
REMARK                            x       y       z     vdW  Elec       q    Type
REMARK                         _______ _______ _______ _____ _____    ______ ____
ROOT
ATOM      1  C   UNL     1       6.568   5.702  17.727  0.00  0.00    +0.000 C 
ATOM      2  C   UNL     1       5.718   6.820  17.149  0.00  0.00    +0.000 C 
ATOM      3  C   UNL     1       5.556   6.511  15.683  0.00  0.00    +0.000 C 
ATOM      4  O   UNL     1       4.951   7.271  14.941  0.00  0.00    +0.000 OA
ATOM      5  N   UNL     1       6.220   5.325  15.382  0.00  0.00    +0.000 N 
ATOM      6  C   UNL     1       6.765   4.711  16.576  0.00  0.00    +0.000 C 
ENDROOT
BRANCH   5   7
ATOM      7  C   UNL     1       6.419   4.785  14.064  0.00  0.00    +0.000 A 
ATOM      8  C   UNL     1       7.550   5.115  13.297  0.00  0.00    +0.000 A 
ATOM      9  C   UNL     1       7.811   4.510  12.057  0.00  0.00    +0.000 A 
ATOM     10  C   UNL     1       6.939   3.559  11.542  0.00  0.00    +0.000 A 
ATOM     11  C   UNL     1       5.785   3.248  12.251  0.00  0.00    +0.000 A 
ATOM     12  C   UNL     1       5.526   3.862  13.482  0.00  0.00    +0.000 A 
ATOM     13  F   UNL     1       4.392   3.506  14.103  0.00  0.00    +0.000 F 
ENDBRANCH   5   7
BRANCH   1  15
ATOM     14  N   UNL     1       4.608   4.633  18.755  0.00  0.00    +0.000 N 
ATOM     15  C   UNL     1       5.915   5.089  18.965  0.00  0.00    +0.000 C 
ATOM     16  O   UNL     1       6.518   5.049  20.030  0.00  0.00    +0.000 OA
ATOM     17  H   UNL     1       4.173   4.860  17.871  0.00  0.00    +0.000 HD
BRANCH  14  24
ATOM     18  C   UNL     1       2.305   6.166  19.905  0.00  0.00    +0.000 C 
ATOM     19  C   UNL     1       2.691   4.766  20.310  0.00  0.00    +0.000 A 
ATOM     20  C   UNL     1       1.892   4.163  21.312  0.00  0.00    +0.000 A 
ATOM     21  C   UNL     1       2.139   2.864  21.748  0.00  0.00    +0.000 A 
ATOM     22  C   UNL     1       3.162   2.137  21.162  0.00  0.00    +0.000 A 
ATOM     23  C   UNL     1       3.954   2.715  20.165  0.00  0.00    +0.000 A 
ATOM     24  C   UNL     1       3.758   4.038  19.737  0.00  0.00    +0.000 A 
ENDBRANCH  14  24
ENDBRANCH   1  15
TORSDOF 3
ENDMDL
MODEL 4
REMARK VINA RESULT:      -7.3      4.791      7.927
REMARK  Name = 
REMARK  4 active torsions:
REMARK  status: ('A' for Active; 'I' for Inactive)
REMARK    1  A    between atoms: C_1  and  C_2
REMARK    2  A    between atoms: C_7  and  N_8
REMARK    3  A    between atoms: C_9  and  C_11
REMARK    4  A    between atoms: N_15  and  C_16
REMARK                            x       y       z     vdW  Elec       q    Type
REMARK                         _______ _______ _______ _____ _____    ______ ____
ROOT
ATOM      1  C   UNL     1       2.475   8.521  18.829  0.00  0.00    +0.000 C 
ATOM      2  C   UNL     1       3.254   7.825  17.726  0.00  0.00    +0.000 C 
ATOM      3  C   UNL     1       3.122   6.347  17.986  0.00  0.00    +0.000 C 
ATOM      4  O   UNL     1       3.691   5.529  17.278  0.00  0.00    +0.000 OA
ATOM      5  N   UNL     1       2.339   6.142  19.118  0.00  0.00    +0.000 N 
ATOM      6  C   UNL     1       1.813   7.393  19.627  0.00  0.00    +0.000 C 
ENDROOT
BRANCH   5   7
ATOM      7  C   UNL     1       2.114   4.877  19.766  0.00  0.00    +0.000 A 
ATOM      8  C   UNL     1       2.521   4.647  21.091  0.00  0.00    +0.000 A 
ATOM      9  C   UNL     1       2.210   3.458  21.771  0.00  0.00    +0.000 A 
ATOM     10  C   UNL     1       1.485   2.456  21.137  0.00  0.00    +0.000 A 
ATOM     11  C   UNL     1       1.112   2.631  19.810  0.00  0.00    +0.000 A 
ATOM     12  C   UNL     1       1.434   3.815  19.136  0.00  0.00    +0.000 A 
ATOM     13  F   UNL     1       1.037   3.905  17.859  0.00  0.00    +0.000 F 
ENDBRANCH   5   7
BRANCH   1  15
ATOM     14  N   UNL     1       0.167   9.351  18.689  0.00  0.00    +0.000 N 
ATOM     15  C   UNL     1       1.486   9.536  18.259  0.00  0.00    +0.000 C 
ATOM     16  O   UNL     1       1.864  10.400  17.478  0.00  0.00    +0.000 OA
ATOM     17  H   UNL     1      -0.037   8.512  19.214  0.00  0.00    +0.000 HD
BRANCH  14  24
ATOM     18  C   UNL     1      -0.774  11.621  20.404  0.00  0.00    +0.000 C 
ATOM     19  C   UNL     1      -1.433  11.186  19.119  0.00  0.00    +0.000 A 
ATOM     20  C   UNL     1      -2.579  11.919  18.727  0.00  0.00    +0.000 A 
ATOM     21  C   UNL     1      -3.256  11.624  17.547  0.00  0.00    +0.000 A 
ATOM     22  C   UNL     1      -2.774  10.618  16.724  0.00  0.00    +0.000 A 
ATOM     23  C   UNL     1      -1.638   9.891  17.093  0.00  0.00    +0.000 A 
ATOM     24  C   UNL     1      -0.962  10.137  18.299  0.00  0.00    +0.000 A 
ENDBRANCH  14  24
ENDBRANCH   1  15
TORSDOF 3
ENDMDL
MODEL 5
REMARK VINA RESULT:      -7.2      1.780      7.395
REMARK  Name = 
REMARK  4 active torsions:
REMARK  status: ('A' for Active; 'I' for Inactive)
REMARK    1  A    between atoms: C_1  and  C_2
REMARK    2  A    between atoms: C_7  and  N_8
REMARK    3  A    between atoms: C_9  and  C_11
REMARK    4  A    between atoms: N_15  and  C_16
REMARK                            x       y       z     vdW  Elec       q    Type
REMARK                         _______ _______ _______ _____ _____    ______ ____
ROOT
ATOM      1  C   UNL     1       4.972   6.495  17.044  0.00  0.00    +0.000 C 
ATOM      2  C   UNL     1       6.205   6.194  17.878  0.00  0.00    +0.000 C 
ATOM      3  C   UNL     1       5.750   5.286  18.991  0.00  0.00    +0.000 C 
ATOM      4  O   UNL     1       6.527   4.912  19.857  0.00  0.00    +0.000 OA
ATOM      5  N   UNL     1       4.387   5.039  18.860  0.00  0.00    +0.000 N 
ATOM      6  C   UNL     1       3.858   5.637  17.652  0.00  0.00    +0.000 C 
ENDROOT
BRANCH   5   7
ATOM      7  C   UNL     1       3.564   4.343  19.814  0.00  0.00    +0.000 A 
ATOM      8  C   UNL     1       2.456   4.962  20.419  0.00  0.00    +0.000 A 
ATOM      9  C   UNL     1       1.582   4.261  21.266  0.00  0.00    +0.000 A 
ATOM     10  C   UNL     1       1.798   2.916  21.540  0.00  0.00    +0.000 A 
ATOM     11  C   UNL     1       2.913   2.288  20.999  0.00  0.00    +0.000 A 
ATOM     12  C   UNL     1       3.786   2.996  20.163  0.00  0.00    +0.000 A 
ATOM     13  F   UNL     1       4.837   2.317  19.682  0.00  0.00    +0.000 F 
ENDBRANCH   5   7
BRANCH   1  15
ATOM     14  N   UNL     1       5.650   4.922  15.283  0.00  0.00    +0.000 N 
ATOM     15  C   UNL     1       5.220   6.225  15.562  0.00  0.00    +0.000 C 
ATOM     16  O   UNL     1       5.066   7.114  14.734  0.00  0.00    +0.000 OA
ATOM     17  H   UNL     1       5.880   4.330  16.070  0.00  0.00    +0.000 HD
BRANCH  14  24
ATOM     18  C   UNL     1       8.226   5.665  13.947  0.00  0.00    +0.000 C 
ATOM     19  C   UNL     1       7.171   4.775  13.340  0.00  0.00    +0.000 A 
ATOM     20  C   UNL     1       7.445   4.277  12.043  0.00  0.00    +0.000 A 
ATOM     21  C   UNL     1       6.555   3.426  11.394  0.00  0.00    +0.000 A 
ATOM     22  C   UNL     1       5.398   3.031  12.046  0.00  0.00    +0.000 A 
ATOM     23  C   UNL     1       5.118   3.508  13.331  0.00  0.00    +0.000 A 
ATOM     24  C   UNL     1       5.975   4.402  13.992  0.00  0.00    +0.000 A 
ENDBRANCH  14  24
ENDBRANCH   1  15
TORSDOF 3
ENDMDL
MODEL 6
REMARK VINA RESULT:      -7.2      1.224      2.030
REMARK  Name = 
REMARK  4 active torsions:
REMARK  status: ('A' for Active; 'I' for Inactive)
REMARK    1  A    between atoms: C_1  and  C_2
REMARK    2  A    between atoms: C_7  and  N_8
REMARK    3  A    between atoms: C_9  and  C_11
REMARK    4  A    between atoms: N_15  and  C_16
REMARK                            x       y       z     vdW  Elec       q    Type
REMARK                         _______ _______ _______ _____ _____    ______ ____
ROOT
ATOM      1  C   UNL     1       6.246   5.594  17.790  0.00  0.00    +0.000 C 
ATOM      2  C   UNL     1       5.456   6.749  17.200  0.00  0.00    +0.000 C 
ATOM      3  C   UNL     1       5.405   6.509  15.713  0.00  0.00    +0.000 C 
ATOM      4  O   UNL     1       4.867   7.311  14.963  0.00  0.00    +0.000 OA
ATOM      5  N   UNL     1       6.078   5.329  15.410  0.00  0.00    +0.000 N 
ATOM      6  C   UNL     1       6.521   4.654  16.612  0.00  0.00    +0.000 C 
ENDROOT
BRANCH   5   7
ATOM      7  C   UNL     1       6.373   4.847  14.087  0.00  0.00    +0.000 A 
ATOM      8  C   UNL     1       7.524   5.260  13.393  0.00  0.00    +0.000 A 
ATOM      9  C   UNL     1       7.880   4.713  12.150  0.00  0.00    +0.000 A 
ATOM     10  C   UNL     1       7.086   3.739  11.557  0.00  0.00    +0.000 A 
ATOM     11  C   UNL     1       5.914   3.346  12.192  0.00  0.00    +0.000 A 
ATOM     12  C   UNL     1       5.560   3.903  13.428  0.00  0.00    +0.000 A 
ATOM     13  F   UNL     1       4.415   3.470  13.974  0.00  0.00    +0.000 F 
ENDBRANCH   5   7
BRANCH   1  15
ATOM     14  N   UNL     1       4.185   4.549  18.626  0.00  0.00    +0.000 N 
ATOM     15  C   UNL     1       5.493   4.935  18.943  0.00  0.00    +0.000 C 
ATOM     16  O   UNL     1       6.026   4.802  20.038  0.00  0.00    +0.000 OA
ATOM     17  H   UNL     1       3.816   4.849  17.733  0.00  0.00    +0.000 HD
BRANCH  14  24
ATOM     18  C   UNL     1       3.408   1.678  18.264  0.00  0.00    +0.000 C 
ATOM     19  C   UNL     1       2.853   2.589  19.330  0.00  0.00    +0.000 A 
ATOM     20  C   UNL     1       1.894   2.019  20.201  0.00  0.00    +0.000 A 
ATOM     21  C   UNL     1       1.331   2.757  21.238  0.00  0.00    +0.000 A 
ATOM     22  C   UNL     1       1.747   4.063  21.442  0.00  0.00    +0.000 A 
ATOM     23  C   UNL     1       2.700   4.638  20.595  0.00  0.00    +0.000 A 
ATOM     24  C   UNL     1       3.251   3.931  19.514  0.00  0.00    +0.000 A 
ENDBRANCH  14  24
ENDBRANCH   1  15
TORSDOF 3
ENDMDL
MODEL 7
REMARK VINA RESULT:      -7.1      1.639      2.003
REMARK  Name = 
REMARK  4 active torsions:
REMARK  status: ('A' for Active; 'I' for Inactive)
REMARK    1  A    between atoms: C_1  and  C_2
REMARK    2  A    between atoms: C_7  and  N_8
REMARK    3  A    between atoms: C_9  and  C_11
REMARK    4  A    between atoms: N_15  and  C_16
REMARK                            x       y       z     vdW  Elec       q    Type
REMARK                         _______ _______ _______ _____ _____    ______ ____
ROOT
ATOM      1  C   UNL     1       6.469   4.526  18.250  0.00  0.00    +0.000 C 
ATOM      2  C   UNL     1       7.124   5.892  18.139  0.00  0.00    +0.000 C 
ATOM      3  C   UNL     1       7.296   6.158  16.666  0.00  0.00    +0.000 C 
ATOM      4  O   UNL     1       7.847   7.175  16.269  0.00  0.00    +0.000 OA
ATOM      5  N   UNL     1       6.795   5.083  15.938  0.00  0.00    +0.000 N 
ATOM      6  C   UNL     1       6.175   4.103  16.807  0.00  0.00    +0.000 C 
ENDROOT
BRANCH   5   7
ATOM      7  C   UNL     1       6.917   4.902  14.516  0.00  0.00    +0.000 A 
ATOM      8  C   UNL     1       7.882   5.596  13.766  0.00  0.00    +0.000 A 
ATOM      9  C   UNL     1       8.084   5.346  12.399  0.00  0.00    +0.000 A 
ATOM     10  C   UNL     1       7.316   4.396  11.737  0.00  0.00    +0.000 A 
ATOM     11  C   UNL     1       6.318   3.729  12.438  0.00  0.00    +0.000 A 
ATOM     12  C   UNL     1       6.115   3.990  13.799  0.00  0.00    +0.000 A 
ATOM     13  F   UNL     1       5.134   3.304  14.401  0.00  0.00    +0.000 F 
ENDBRANCH   5   7
BRANCH   1  15
ATOM     14  N   UNL     1       4.438   3.420  19.080  0.00  0.00    +0.000 N 
ATOM     15  C   UNL     1       5.232   4.571  19.144  0.00  0.00    +0.000 C 
ATOM     16  O   UNL     1       4.989   5.564  19.819  0.00  0.00    +0.000 OA
ATOM     17  H   UNL     1       4.669   2.735  18.373  0.00  0.00    +0.000 HD
BRANCH  14  24
ATOM     18  C   UNL     1       1.803   4.110  17.831  0.00  0.00    +0.000 C 
ATOM     19  C   UNL     1       1.974   3.555  19.222  0.00  0.00    +0.000 A 
ATOM     20  C   UNL     1       0.785   3.364  19.968  0.00  0.00    +0.000 A 
ATOM     21  C   UNL     1       0.817   2.834  21.254  0.00  0.00    +0.000 A 
ATOM     22  C   UNL     1       2.033   2.452  21.799  0.00  0.00    +0.000 A 
ATOM     23  C   UNL     1       3.214   2.627  21.071  0.00  0.00    +0.000 A 
ATOM     24  C   UNL     1       3.217   3.200  19.790  0.00  0.00    +0.000 A 
ENDBRANCH  14  24
ENDBRANCH   1  15
TORSDOF 3
ENDMDL
MODEL 8
REMARK VINA RESULT:      -7.0      2.642      4.428
REMARK  Name = 
REMARK  4 active torsions:
REMARK  status: ('A' for Active; 'I' for Inactive)
REMARK    1  A    between atoms: C_1  and  C_2
REMARK    2  A    between atoms: C_7  and  N_8
REMARK    3  A    between atoms: C_9  and  C_11
REMARK    4  A    between atoms: N_15  and  C_16
REMARK                            x       y       z     vdW  Elec       q    Type
REMARK                         _______ _______ _______ _____ _____    ______ ____
ROOT
ATOM      1  C   UNL     1       3.085   4.476  19.331  0.00  0.00    +0.000 C 
ATOM      2  C   UNL     1       4.395   4.508  20.099  0.00  0.00    +0.000 C 
ATOM      3  C   UNL     1       5.485   4.646  19.067  0.00  0.00    +0.000 C 
ATOM      4  O   UNL     1       6.664   4.651  19.392  0.00  0.00    +0.000 OA
ATOM      5  N   UNL     1       4.918   4.704  17.798  0.00  0.00    +0.000 N 
ATOM      6  C   UNL     1       3.471   4.721  17.868  0.00  0.00    +0.000 C 
ENDROOT
BRANCH   5   7
ATOM      7  C   UNL     1       5.641   4.683  16.553  0.00  0.00    +0.000 A 
ATOM      8  C   UNL     1       5.427   3.677  15.596  0.00  0.00    +0.000 A 
ATOM      9  C   UNL     1       6.043   3.706  14.334  0.00  0.00    +0.000 A 
ATOM     10  C   UNL     1       6.902   4.745  13.996  0.00  0.00    +0.000 A 
ATOM     11  C   UNL     1       7.176   5.728  14.939  0.00  0.00    +0.000 A 
ATOM     12  C   UNL     1       6.565   5.687  16.200  0.00  0.00    +0.000 A 
ATOM     13  F   UNL     1       6.881   6.673  17.051  0.00  0.00    +0.000 F 
ENDBRANCH   5   7
BRANCH   1  15
ATOM     14  N   UNL     1       2.490   6.825  19.737  0.00  0.00    +0.000 N 
ATOM     15  C   UNL     1       2.089   5.492  19.884  0.00  0.00    +0.000 C 
ATOM     16  O   UNL     1       1.054   5.118  20.423  0.00  0.00    +0.000 OA
ATOM     17  H   UNL     1       3.432   6.993  19.410  0.00  0.00    +0.000 HD
BRANCH  14  24
ATOM     18  C   UNL     1       1.674   8.954  17.793  0.00  0.00    +0.000 C 
ATOM     19  C   UNL     1       1.409   9.000  19.277  0.00  0.00    +0.000 A 
ATOM     20  C   UNL     1       0.730  10.147  19.754  0.00  0.00    +0.000 A 
ATOM     21  C   UNL     1       0.408  10.287  21.102  0.00  0.00    +0.000 A 
ATOM     22  C   UNL     1       0.727   9.267  21.983  0.00  0.00    +0.000 A 
ATOM     23  C   UNL     1       1.390   8.124  21.525  0.00  0.00    +0.000 A 
ATOM     24  C   UNL     1       1.767   7.975  20.181  0.00  0.00    +0.000 A 
ENDBRANCH  14  24
ENDBRANCH   1  15
TORSDOF 3
ENDMDL
MODEL 9
REMARK VINA RESULT:      -7.0      2.038      7.471
REMARK  Name = 
REMARK  4 active torsions:
REMARK  status: ('A' for Active; 'I' for Inactive)
REMARK    1  A    between atoms: C_1  and  C_2
REMARK    2  A    between atoms: C_7  and  N_8
REMARK    3  A    between atoms: C_9  and  C_11
REMARK    4  A    between atoms: N_15  and  C_16
REMARK                            x       y       z     vdW  Elec       q    Type
REMARK                         _______ _______ _______ _____ _____    ______ ____
ROOT
ATOM      1  C   UNL     1       4.899   6.456  16.994  0.00  0.00    +0.000 C 
ATOM      2  C   UNL     1       6.133   6.229  17.849  0.00  0.00    +0.000 C 
ATOM      3  C   UNL     1       5.715   5.291  18.951  0.00  0.00    +0.000 C 
ATOM      4  O   UNL     1       6.498   4.962  19.831  0.00  0.00    +0.000 OA
ATOM      5  N   UNL     1       4.372   4.960  18.796  0.00  0.00    +0.000 N 
ATOM      6  C   UNL     1       3.829   5.528  17.579  0.00  0.00    +0.000 C 
ENDROOT
BRANCH   5   7
ATOM      7  C   UNL     1       3.577   4.211  19.733  0.00  0.00    +0.000 A 
ATOM      8  C   UNL     1       3.885   2.879  20.059  0.00  0.00    +0.000 A 
ATOM      9  C   UNL     1       3.185   2.175  21.052  0.00  0.00    +0.000 A 
ATOM     10  C   UNL     1       2.146   2.784  21.745  0.00  0.00    +0.000 A 
ATOM     11  C   UNL     1       1.782   4.083  21.411  0.00  0.00    +0.000 A 
ATOM     12  C   UNL     1       2.479   4.776  20.412  0.00  0.00    +0.000 A 
ATOM     13  F   UNL     1       2.066   6.024  20.151  0.00  0.00    +0.000 F 
ENDBRANCH   5   7
BRANCH   1  15
ATOM     14  N   UNL     1       5.588   4.896  15.225  0.00  0.00    +0.000 N 
ATOM     15  C   UNL     1       5.190   6.206  15.516  0.00  0.00    +0.000 C 
ATOM     16  O   UNL     1       5.093   7.115  14.701  0.00  0.00    +0.000 OA
ATOM     17  H   UNL     1       5.772   4.282  16.007  0.00  0.00    +0.000 HD
BRANCH  14  24
ATOM     18  C   UNL     1       8.241   5.563  14.003  0.00  0.00    +0.000 C 
ATOM     19  C   UNL     1       7.176   4.729  13.338  0.00  0.00    +0.000 A 
ATOM     20  C   UNL     1       7.479   4.248  12.041  0.00  0.00    +0.000 A 
ATOM     21  C   UNL     1       6.583   3.447  11.339  0.00  0.00    +0.000 A 
ATOM     22  C   UNL     1       5.387   3.085  11.939  0.00  0.00    +0.000 A 
ATOM     23  C   UNL     1       5.076   3.546  13.223  0.00  0.00    +0.000 A 
ATOM     24  C   UNL     1       5.942   4.391  13.935  0.00  0.00    +0.000 A 
ENDBRANCH  14  24
ENDBRANCH   1  15
TORSDOF 3
ENDMDL
