MODEL 1
REMARK VINA RESULT:      -8.8      0.000      0.000
REMARK  Name = 
REMARK  6 active torsions:
REMARK  status: ('A' for Active; 'I' for Inactive)
REMARK    1  A    between atoms: C_2  and  C_3
REMARK    2  A    between atoms: C_3  and  N_4
REMARK    3  A    between atoms: N_18  and  C_19
REMARK    4  A    between atoms: C_19  and  C_20
REMARK    5  A    between atoms: C_20  and  N_21
REMARK    6  A    between atoms: N_24  and  C_25
REMARK                            x       y       z     vdW  Elec       q    Type
REMARK                         _______ _______ _______ _____ _____    ______ ____
ROOT
ATOM      1  O   UNL     1       8.399  10.890  17.874  0.00  0.00    +0.000 OA
ATOM      2  C   UNL     1       8.925  10.128  18.686  0.00  0.00    +0.000 C 
ATOM      3  N   UNL     1       8.688   8.774  18.684  0.00  0.00    +0.000 N 
ATOM      4  H   UNL     1       9.377   8.165  19.117  0.00  0.00    +0.000 HD
ENDROOT
BRANCH   2   5
ATOM      5  C   UNL     1       9.910  10.633  19.713  0.00  0.00    +0.000 C 
BRANCH   5   6
ATOM      6  N   UNL     1       9.453  11.822  20.413  0.00  0.00    +0.000 N 
ATOM      7  N   UNL     1       8.803  11.627  21.590  0.00  0.00    +0.000 NA
ATOM      8  C   UNL     1       8.530  12.859  22.026  0.00  0.00    +0.000 A 
ATOM      9  C   UNL     1       8.987  13.838  21.138  0.00  0.00    +0.000 A 
ATOM     10  C   UNL     1       8.870  15.272  21.176  0.00  0.00    +0.000 A 
ATOM     11  O   UNL     1       8.340  15.881  22.102  0.00  0.00    +0.000 OA
ATOM     12  O   UNL     1       9.397  15.947  20.056  0.00  0.00    +0.000 OA
ATOM     13  C   UNL     1      10.050  15.263  18.988  0.00  0.00    +0.000 A 
ATOM     14  C   UNL     1      10.521  16.069  17.951  0.00  0.00    +0.000 A 
ATOM     15  C   UNL     1      11.183  15.473  16.883  0.00  0.00    +0.000 A 
ATOM     16  C   UNL     1      11.389  14.095  16.878  0.00  0.00    +0.000 A 
ATOM     17  C   UNL     1      10.923  13.298  17.932  0.00  0.00    +0.000 A 
ATOM     18  C   UNL     1      10.214  13.864  18.988  0.00  0.00    +0.000 A 
ATOM     19  C   UNL     1       9.614  13.155  20.112  0.00  0.00    +0.000 A 
ENDBRANCH   5   6
ENDBRANCH   2   5
BRANCH   3  20
ATOM     20  C   UNL     1       7.818   8.172  17.689  0.00  0.00    +0.000 C 
BRANCH  20  21
ATOM     21  C   UNL     1       7.467   6.709  18.021  0.00  0.00    +0.000 C 
BRANCH  21  22
ATOM     22  N   UNL     1       6.619   6.055  17.000  0.00  0.00    +0.000 NA
ATOM     23  C   UNL     1       6.432   4.604  17.251  0.00  0.00    +0.000 C 
ATOM     24  C   UNL     1       5.569   4.249  18.486  0.00  0.00    +0.000 C 
ATOM     25  N   UNL     1       4.272   4.920  18.353  0.00  0.00    +0.000 N 
ATOM     26  C   UNL     1       4.338   6.373  18.144  0.00  0.00    +0.000 C 
ATOM     27  C   UNL     1       5.274   6.691  16.951  0.00  0.00    +0.000 C 
BRANCH  25  28
ATOM     28  C   UNL     1       3.091   4.284  18.692  0.00  0.00    +0.000 A 
ATOM     29  C   UNL     1       2.691   3.132  17.993  0.00  0.00    +0.000 A 
ATOM     30  C   UNL     1       1.536   2.420  18.335  0.00  0.00    +0.000 A 
ATOM     31  C   UNL     1       0.740   2.847  19.393  0.00  0.00    +0.000 A 
ATOM     32  C   UNL     1       1.106   3.983  20.107  0.00  0.00    +0.000 A 
ATOM     33  C   UNL     1       2.264   4.682  19.759  0.00  0.00    +0.000 A 
ATOM     34  F   UNL     1       2.557   5.782  20.475  0.00  0.00    +0.000 F 
ENDBRANCH  25  28
ENDBRANCH  21  22
ENDBRANCH  20  21
ENDBRANCH   3  20
TORSDOF 6
ENDMDL
MODEL 2
REMARK VINA RESULT:      -8.6      6.957     11.127
REMARK  Name = 
REMARK  6 active torsions:
REMARK  status: ('A' for Active; 'I' for Inactive)
REMARK    1  A    between atoms: C_2  and  C_3
REMARK    2  A    between atoms: C_3  and  N_4
REMARK    3  A    between atoms: N_18  and  C_19
REMARK    4  A    between atoms: C_19  and  C_20
REMARK    5  A    between atoms: C_20  and  N_21
REMARK    6  A    between atoms: N_24  and  C_25
REMARK                            x       y       z     vdW  Elec       q    Type
REMARK                         _______ _______ _______ _____ _____    ______ ____
ROOT
ATOM      1  O   UNL     1       1.874   8.496  19.951  0.00  0.00    +0.000 OA
ATOM      2  C   UNL     1       1.742   8.599  18.731  0.00  0.00    +0.000 C 
ATOM      3  N   UNL     1       1.523   9.807  18.114  0.00  0.00    +0.000 N 
ATOM      4  H   UNL     1       1.761   9.895  17.130  0.00  0.00    +0.000 HD
ENDROOT
BRANCH   2   5
ATOM      5  C   UNL     1       1.861   7.397  17.824  0.00  0.00    +0.000 C 
BRANCH   5   6
ATOM      6  N   UNL     1       3.170   6.768  17.871  0.00  0.00    +0.000 N 
ATOM      7  N   UNL     1       4.164   7.368  17.165  0.00  0.00    +0.000 NA
ATOM      8  C   UNL     1       5.242   6.618  17.405  0.00  0.00    +0.000 A 
ATOM      9  C   UNL     1       4.947   5.540  18.245  0.00  0.00    +0.000 A 
ATOM     10  C   UNL     1       5.777   4.463  18.721  0.00  0.00    +0.000 A 
ATOM     11  O   UNL     1       6.973   4.367  18.460  0.00  0.00    +0.000 OA
ATOM     12  O   UNL     1       5.115   3.499  19.509  0.00  0.00    +0.000 OA
ATOM     13  C   UNL     1       3.736   3.610  19.856  0.00  0.00    +0.000 A 
ATOM     14  C   UNL     1       3.224   2.578  20.642  0.00  0.00    +0.000 A 
ATOM     15  C   UNL     1       1.890   2.627  21.034  0.00  0.00    +0.000 A 
ATOM     16  C   UNL     1       1.099   3.713  20.662  0.00  0.00    +0.000 A 
ATOM     17  C   UNL     1       1.629   4.750  19.883  0.00  0.00    +0.000 A 
ATOM     18  C   UNL     1       2.947   4.699  19.436  0.00  0.00    +0.000 A 
ATOM     19  C   UNL     1       3.609   5.666  18.569  0.00  0.00    +0.000 A 
ENDBRANCH   5   6
ENDBRANCH   2   5
BRANCH   3  20
ATOM     20  C   UNL     1       1.467  11.037  18.886  0.00  0.00    +0.000 C 
BRANCH  20  21
ATOM     21  C   UNL     1       0.110  11.754  18.755  0.00  0.00    +0.000 C 
BRANCH  21  22
ATOM     22  N   UNL     1      -0.965  11.142  19.568  0.00  0.00    +0.000 NA
ATOM     23  C   UNL     1      -0.536  10.842  20.958  0.00  0.00    +0.000 C 
ATOM     24  C   UNL     1      -0.283  12.078  21.855  0.00  0.00    +0.000 C 
ATOM     25  N   UNL     1      -1.493  12.906  21.857  0.00  0.00    +0.000 N 
ATOM     26  C   UNL     1      -1.983  13.300  20.529  0.00  0.00    +0.000 C 
ATOM     27  C   UNL     1      -2.148  12.044  19.635  0.00  0.00    +0.000 C 
BRANCH  25  28
ATOM     28  C   UNL     1      -1.956  13.506  23.015  0.00  0.00    +0.000 A 
ATOM     29  C   UNL     1      -1.158  14.451  23.682  0.00  0.00    +0.000 A 
ATOM     30  C   UNL     1      -1.605  15.127  24.822  0.00  0.00    +0.000 A 
ATOM     31  C   UNL     1      -2.873  14.872  25.333  0.00  0.00    +0.000 A 
ATOM     32  C   UNL     1      -3.690  13.944  24.698  0.00  0.00    +0.000 A 
ATOM     33  C   UNL     1      -3.235  13.279  23.557  0.00  0.00    +0.000 A 
ATOM     34  F   UNL     1      -4.064  12.380  22.998  0.00  0.00    +0.000 F 
ENDBRANCH  25  28
ENDBRANCH  21  22
ENDBRANCH  20  21
ENDBRANCH   3  20
TORSDOF 6
ENDMDL
MODEL 3
REMARK VINA RESULT:      -8.5      1.171      2.958
REMARK  Name = 
REMARK  6 active torsions:
REMARK  status: ('A' for Active; 'I' for Inactive)
REMARK    1  A    between atoms: C_2  and  C_3
REMARK    2  A    between atoms: C_3  and  N_4
REMARK    3  A    between atoms: N_18  and  C_19
REMARK    4  A    between atoms: C_19  and  C_20
REMARK    5  A    between atoms: C_20  and  N_21
REMARK    6  A    between atoms: N_24  and  C_25
REMARK                            x       y       z     vdW  Elec       q    Type
REMARK                         _______ _______ _______ _____ _____    ______ ____
ROOT
ATOM      1  O   UNL     1       8.464  11.518  17.758  0.00  0.00    +0.000 OA
ATOM      2  C   UNL     1       9.168  10.775  18.443  0.00  0.00    +0.000 C 
ATOM      3  N   UNL     1       8.936   9.424  18.537  0.00  0.00    +0.000 N 
ATOM      4  H   UNL     1       9.707   8.822  18.811  0.00  0.00    +0.000 HD
ENDROOT
BRANCH   2   5
ATOM      5  C   UNL     1      10.370  11.301  19.190  0.00  0.00    +0.000 C 
BRANCH   5   6
ATOM      6  N   UNL     1      10.331  12.737  19.406  0.00  0.00    +0.000 N 
ATOM      7  N   UNL     1      10.888  13.517  18.442  0.00  0.00    +0.000 NA
ATOM      8  C   UNL     1      10.689  14.766  18.869  0.00  0.00    +0.000 A 
ATOM      9  C   UNL     1      10.023  14.795  20.098  0.00  0.00    +0.000 A 
ATOM     10  C   UNL     1       9.650  15.901  20.942  0.00  0.00    +0.000 A 
ATOM     11  O   UNL     1       9.850  17.075  20.642  0.00  0.00    +0.000 OA
ATOM     12  O   UNL     1       9.043  15.546  22.163  0.00  0.00    +0.000 OA
ATOM     13  C   UNL     1       8.766  14.191  22.516  0.00  0.00    +0.000 A 
ATOM     14  C   UNL     1       8.161  14.000  23.757  0.00  0.00    +0.000 A 
ATOM     15  C   UNL     1       7.846  12.707  24.161  0.00  0.00    +0.000 A 
ATOM     16  C   UNL     1       8.113  11.633  23.314  0.00  0.00    +0.000 A 
ATOM     17  C   UNL     1       8.710  11.840  22.063  0.00  0.00    +0.000 A 
ATOM     18  C   UNL     1       9.080  13.119  21.657  0.00  0.00    +0.000 A 
ATOM     19  C   UNL     1       9.766  13.475  20.421  0.00  0.00    +0.000 A 
ENDBRANCH   5   6
ENDBRANCH   2   5
BRANCH   3  20
ATOM     20  C   UNL     1       7.852   8.802  17.797  0.00  0.00    +0.000 C 
BRANCH  20  21
ATOM     21  C   UNL     1       7.771   7.282  18.037  0.00  0.00    +0.000 C 
BRANCH  21  22
ATOM     22  N   UNL     1       7.115   6.541  16.937  0.00  0.00    +0.000 NA
ATOM     23  C   UNL     1       7.135   5.071  17.141  0.00  0.00    +0.000 C 
ATOM     24  C   UNL     1       6.244   4.549  18.295  0.00  0.00    +0.000 C 
ATOM     25  N   UNL     1       4.874   5.020  18.072  0.00  0.00    +0.000 N 
ATOM     26  C   UNL     1       4.731   6.472  17.899  0.00  0.00    +0.000 C 
ATOM     27  C   UNL     1       5.696   6.968  16.792  0.00  0.00    +0.000 C 
BRANCH  25  28
ATOM     28  C   UNL     1       3.782   4.201  18.300  0.00  0.00    +0.000 A 
ATOM     29  C   UNL     1       3.427   3.226  17.352  0.00  0.00    +0.000 A 
ATOM     30  C   UNL     1       2.368   2.337  17.563  0.00  0.00    +0.000 A 
ATOM     31  C   UNL     1       1.625   2.401  18.737  0.00  0.00    +0.000 A 
ATOM     32  C   UNL     1       1.949   3.352  19.698  0.00  0.00    +0.000 A 
ATOM     33  C   UNL     1       3.012   4.232  19.479  0.00  0.00    +0.000 A 
ATOM     34  F   UNL     1       3.266   5.141  20.436  0.00  0.00    +0.000 F 
ENDBRANCH  25  28
ENDBRANCH  21  22
ENDBRANCH  20  21
ENDBRANCH   3  20
TORSDOF 6
ENDMDL
MODEL 4
REMARK VINA RESULT:      -8.5      3.559     11.094
REMARK  Name = 
REMARK  6 active torsions:
REMARK  status: ('A' for Active; 'I' for Inactive)
REMARK    1  A    between atoms: C_2  and  C_3
REMARK    2  A    between atoms: C_3  and  N_4
REMARK    3  A    between atoms: N_18  and  C_19
REMARK    4  A    between atoms: C_19  and  C_20
REMARK    5  A    between atoms: C_20  and  N_21
REMARK    6  A    between atoms: N_24  and  C_25
REMARK                            x       y       z     vdW  Elec       q    Type
REMARK                         _______ _______ _______ _____ _____    ______ ____
ROOT
ATOM      1  O   UNL     1       7.047   8.011  17.218  0.00  0.00    +0.000 OA
ATOM      2  C   UNL     1       7.824   7.591  18.077  0.00  0.00    +0.000 C 
ATOM      3  N   UNL     1       8.716   8.412  18.724  0.00  0.00    +0.000 N 
ATOM      4  H   UNL     1       9.073   8.115  19.628  0.00  0.00    +0.000 HD
ENDROOT
BRANCH   2   5
ATOM      5  C   UNL     1       7.811   6.144  18.508  0.00  0.00    +0.000 C 
BRANCH   5   6
ATOM      6  N   UNL     1       6.490   5.540  18.457  0.00  0.00    +0.000 N 
ATOM      7  N   UNL     1       5.778   5.528  19.615  0.00  0.00    +0.000 NA
ATOM      8  C   UNL     1       4.617   4.958  19.284  0.00  0.00    +0.000 A 
ATOM      9  C   UNL     1       4.582   4.596  17.934  0.00  0.00    +0.000 A 
ATOM     10  C   UNL     1       3.568   3.921  17.166  0.00  0.00    +0.000 A 
ATOM     11  O   UNL     1       2.484   3.581  17.632  0.00  0.00    +0.000 OA
ATOM     12  O   UNL     1       3.909   3.655  15.825  0.00  0.00    +0.000 OA
ATOM     13  C   UNL     1       5.147   4.074  15.252  0.00  0.00    +0.000 A 
ATOM     14  C   UNL     1       5.339   3.738  13.912  0.00  0.00    +0.000 A 
ATOM     15  C   UNL     1       6.516   4.128  13.282  0.00  0.00    +0.000 A 
ATOM     16  C   UNL     1       7.466   4.866  13.985  0.00  0.00    +0.000 A 
ATOM     17  C   UNL     1       7.255   5.209  15.328  0.00  0.00    +0.000 A 
ATOM     18  C   UNL     1       6.108   4.787  15.995  0.00  0.00    +0.000 A 
ATOM     19  C   UNL     1       5.789   5.009  17.400  0.00  0.00    +0.000 A 
ENDBRANCH   5   6
ENDBRANCH   2   5
BRANCH   3  20
ATOM     20  C   UNL     1       8.759   9.836  18.441  0.00  0.00    +0.000 C 
BRANCH  20  21
ATOM     21  C   UNL     1       9.381  10.648  19.593  0.00  0.00    +0.000 C 
BRANCH  21  22
ATOM     22  N   UNL     1      10.721  11.191  19.282  0.00  0.00    +0.000 NA
ATOM     23  C   UNL     1      10.814  11.739  17.905  0.00  0.00    +0.000 C 
ATOM     24  C   UNL     1      10.006  13.036  17.651  0.00  0.00    +0.000 C 
ATOM     25  N   UNL     1      10.422  14.041  18.635  0.00  0.00    +0.000 N 
ATOM     26  C   UNL     1      10.329  13.617  20.039  0.00  0.00    +0.000 C 
ATOM     27  C   UNL     1      11.081  12.276  20.235  0.00  0.00    +0.000 C 
BRANCH  25  28
ATOM     28  C   UNL     1      10.602  15.366  18.282  0.00  0.00    +0.000 A 
ATOM     29  C   UNL     1      11.878  15.826  17.913  0.00  0.00    +0.000 A 
ATOM     30  C   UNL     1      12.099  17.142  17.493  0.00  0.00    +0.000 A 
ATOM     31  C   UNL     1      11.042  18.044  17.433  0.00  0.00    +0.000 A 
ATOM     32  C   UNL     1       9.766  17.623  17.791  0.00  0.00    +0.000 A 
ATOM     33  C   UNL     1       9.556  16.305  18.203  0.00  0.00    +0.000 A 
ATOM     34  F   UNL     1       8.304  15.962  18.553  0.00  0.00    +0.000 F 
ENDBRANCH  25  28
ENDBRANCH  21  22
ENDBRANCH  20  21
ENDBRANCH   3  20
TORSDOF 6
ENDMDL
MODEL 5
REMARK VINA RESULT:      -8.5      6.932     10.981
REMARK  Name = 
REMARK  6 active torsions:
REMARK  status: ('A' for Active; 'I' for Inactive)
REMARK    1  A    between atoms: C_2  and  C_3
REMARK    2  A    between atoms: C_3  and  N_4
REMARK    3  A    between atoms: N_18  and  C_19
REMARK    4  A    between atoms: C_19  and  C_20
REMARK    5  A    between atoms: C_20  and  N_21
REMARK    6  A    between atoms: N_24  and  C_25
REMARK                            x       y       z     vdW  Elec       q    Type
REMARK                         _______ _______ _______ _____ _____    ______ ____
ROOT
ATOM      1  O   UNL     1       1.904   8.503  19.733  0.00  0.00    +0.000 OA
ATOM      2  C   UNL     1       1.863   8.629  18.509  0.00  0.00    +0.000 C 
ATOM      3  N   UNL     1       1.717   9.853  17.901  0.00  0.00    +0.000 N 
ATOM      4  H   UNL     1       2.028   9.952  16.939  0.00  0.00    +0.000 HD
ENDROOT
BRANCH   2   5
ATOM      5  C   UNL     1       2.021   7.440  17.591  0.00  0.00    +0.000 C 
BRANCH   5   6
ATOM      6  N   UNL     1       3.315   6.791  17.708  0.00  0.00    +0.000 N 
ATOM      7  N   UNL     1       4.348   7.357  17.029  0.00  0.00    +0.000 NA
ATOM      8  C   UNL     1       5.401   6.594  17.331  0.00  0.00    +0.000 A 
ATOM      9  C   UNL     1       5.053   5.542  18.184  0.00  0.00    +0.000 A 
ATOM     10  C   UNL     1       5.843   4.464  18.719  0.00  0.00    +0.000 A 
ATOM     11  O   UNL     1       7.047   4.341  18.510  0.00  0.00    +0.000 OA
ATOM     12  O   UNL     1       5.133   3.531  19.501  0.00  0.00    +0.000 OA
ATOM     13  C   UNL     1       3.742   3.673  19.788  0.00  0.00    +0.000 A 
ATOM     14  C   UNL     1       3.180   2.669  20.577  0.00  0.00    +0.000 A 
ATOM     15  C   UNL     1       1.833   2.751  20.911  0.00  0.00    +0.000 A 
ATOM     16  C   UNL     1       1.077   3.839  20.481  0.00  0.00    +0.000 A 
ATOM     17  C   UNL     1       1.657   4.849  19.700  0.00  0.00    +0.000 A 
ATOM     18  C   UNL     1       2.991   4.765  19.310  0.00  0.00    +0.000 A 
ATOM     19  C   UNL     1       3.705   5.699  18.448  0.00  0.00    +0.000 A 
ENDBRANCH   5   6
ENDBRANCH   2   5
BRANCH   3  20
ATOM     20  C   UNL     1       1.634  11.070  18.689  0.00  0.00    +0.000 C 
BRANCH  20  21
ATOM     21  C   UNL     1       0.246  11.734  18.604  0.00  0.00    +0.000 C 
BRANCH  21  22
ATOM     22  N   UNL     1      -0.816  10.983  19.308  0.00  0.00    +0.000 NA
ATOM     23  C   UNL     1      -0.482  10.709  20.729  0.00  0.00    +0.000 C 
ATOM     24  C   UNL     1      -0.463  11.949  21.657  0.00  0.00    +0.000 C 
ATOM     25  N   UNL     1      -1.759  12.626  21.554  0.00  0.00    +0.000 N 
ATOM     26  C   UNL     1      -2.171  12.984  20.189  0.00  0.00    +0.000 C 
ATOM     27  C   UNL     1      -2.100  11.735  19.273  0.00  0.00    +0.000 C 
BRANCH  25  28
ATOM     28  C   UNL     1      -2.395  13.144  22.668  0.00  0.00    +0.000 A 
ATOM     29  C   UNL     1      -3.360  12.377  23.343  0.00  0.00    +0.000 A 
ATOM     30  C   UNL     1      -3.988  12.834  24.507  0.00  0.00    +0.000 A 
ATOM     31  C   UNL     1      -3.668  14.081  25.031  0.00  0.00    +0.000 A 
ATOM     32  C   UNL     1      -2.716  14.867  24.389  0.00  0.00    +0.000 A 
ATOM     33  C   UNL     1      -2.092  14.398  23.231  0.00  0.00    +0.000 A 
ATOM     34  F   UNL     1      -1.193  15.209  22.646  0.00  0.00    +0.000 F 
ENDBRANCH  25  28
ENDBRANCH  21  22
ENDBRANCH  20  21
ENDBRANCH   3  20
TORSDOF 6
ENDMDL
MODEL 6
REMARK VINA RESULT:      -8.3      1.031      1.319
REMARK  Name = 
REMARK  6 active torsions:
REMARK  status: ('A' for Active; 'I' for Inactive)
REMARK    1  A    between atoms: C_2  and  C_3
REMARK    2  A    between atoms: C_3  and  N_4
REMARK    3  A    between atoms: N_18  and  C_19
REMARK    4  A    between atoms: C_19  and  C_20
REMARK    5  A    between atoms: C_20  and  N_21
REMARK    6  A    between atoms: N_24  and  C_25
REMARK                            x       y       z     vdW  Elec       q    Type
REMARK                         _______ _______ _______ _____ _____    ______ ____
ROOT
ATOM      1  O   UNL     1       9.058  10.725  17.803  0.00  0.00    +0.000 OA
ATOM      2  C   UNL     1       9.121   9.991  18.790  0.00  0.00    +0.000 C 
ATOM      3  N   UNL     1       8.599   8.720  18.795  0.00  0.00    +0.000 N 
ATOM      4  H   UNL     1       8.964   8.053  19.469  0.00  0.00    +0.000 HD
ENDROOT
BRANCH   2   5
ATOM      5  C   UNL     1       9.827  10.430  20.051  0.00  0.00    +0.000 C 
BRANCH   5   6
ATOM      6  N   UNL     1       9.394  11.731  20.530  0.00  0.00    +0.000 N 
ATOM      7  N   UNL     1       8.485  11.740  21.541  0.00  0.00    +0.000 NA
ATOM      8  C   UNL     1       8.292  13.035  21.802  0.00  0.00    +0.000 A 
ATOM      9  C   UNL     1       9.057  13.854  20.966  0.00  0.00    +0.000 A 
ATOM     10  C   UNL     1       9.127  15.288  20.861  0.00  0.00    +0.000 A 
ATOM     11  O   UNL     1       8.497  16.049  21.589  0.00  0.00    +0.000 OA
ATOM     12  O   UNL     1       9.969  15.774  19.840  0.00  0.00    +0.000 OA
ATOM     13  C   UNL     1      10.740  14.909  19.006  0.00  0.00    +0.000 A 
ATOM     14  C   UNL     1      11.526  15.539  18.042  0.00  0.00    +0.000 A 
ATOM     15  C   UNL     1      12.317  14.760  17.204  0.00  0.00    +0.000 A 
ATOM     16  C   UNL     1      12.333  13.375  17.357  0.00  0.00    +0.000 A 
ATOM     17  C   UNL     1      11.548  12.755  18.339  0.00  0.00    +0.000 A 
ATOM     18  C   UNL     1      10.710  13.509  19.157  0.00  0.00    +0.000 A 
ATOM     19  C   UNL     1       9.793  12.997  20.168  0.00  0.00    +0.000 A 
ENDBRANCH   5   6
ENDBRANCH   2   5
BRANCH   3  20
ATOM     20  C   UNL     1       7.967   8.171  17.609  0.00  0.00    +0.000 C 
BRANCH  20  21
ATOM     21  C   UNL     1       6.519   7.713  17.871  0.00  0.00    +0.000 C 
BRANCH  21  22
ATOM     22  N   UNL     1       6.126   6.513  17.099  0.00  0.00    +0.000 NA
ATOM     23  C   UNL     1       6.261   5.258  17.880  0.00  0.00    +0.000 C 
ATOM     24  C   UNL     1       5.252   5.088  19.043  0.00  0.00    +0.000 C 
ATOM     25  N   UNL     1       3.895   5.216  18.503  0.00  0.00    +0.000 N 
ATOM     26  C   UNL     1       3.638   6.448  17.745  0.00  0.00    +0.000 C 
ATOM     27  C   UNL     1       4.714   6.624  16.643  0.00  0.00    +0.000 C 
BRANCH  25  28
ATOM     28  C   UNL     1       2.869   4.389  18.923  0.00  0.00    +0.000 A 
ATOM     29  C   UNL     1       2.333   4.538  20.214  0.00  0.00    +0.000 A 
ATOM     30  C   UNL     1       1.257   3.765  20.664  0.00  0.00    +0.000 A 
ATOM     31  C   UNL     1       0.685   2.811  19.829  0.00  0.00    +0.000 A 
ATOM     32  C   UNL     1       1.189   2.638  18.544  0.00  0.00    +0.000 A 
ATOM     33  C   UNL     1       2.260   3.419  18.104  0.00  0.00    +0.000 A 
ATOM     34  F   UNL     1       2.714   3.193  16.859  0.00  0.00    +0.000 F 
ENDBRANCH  25  28
ENDBRANCH  21  22
ENDBRANCH  20  21
ENDBRANCH   3  20
TORSDOF 6
ENDMDL
MODEL 7
REMARK VINA RESULT:      -8.2      1.610      2.905
REMARK  Name = 
REMARK  6 active torsions:
REMARK  status: ('A' for Active; 'I' for Inactive)
REMARK    1  A    between atoms: C_2  and  C_3
REMARK    2  A    between atoms: C_3  and  N_4
REMARK    3  A    between atoms: N_18  and  C_19
REMARK    4  A    between atoms: C_19  and  C_20
REMARK    5  A    between atoms: C_20  and  N_21
REMARK    6  A    between atoms: N_24  and  C_25
REMARK                            x       y       z     vdW  Elec       q    Type
REMARK                         _______ _______ _______ _____ _____    ______ ____
ROOT
ATOM      1  O   UNL     1       8.938  10.732  20.270  0.00  0.00    +0.000 OA
ATOM      2  C   UNL     1       9.704  10.646  19.310  0.00  0.00    +0.000 C 
ATOM      3  N   UNL     1       9.393   9.922  18.184  0.00  0.00    +0.000 N 
ATOM      4  H   UNL     1       9.870  10.154  17.317  0.00  0.00    +0.000 HD
ENDROOT
BRANCH   2   5
ATOM      5  C   UNL     1      11.026  11.377  19.292  0.00  0.00    +0.000 C 
BRANCH   5   6
ATOM      6  N   UNL     1      11.018  12.559  18.449  0.00  0.00    +0.000 N 
ATOM      7  N   UNL     1      11.345  12.382  17.141  0.00  0.00    +0.000 NA
ATOM      8  C   UNL     1      11.229  13.597  16.602  0.00  0.00    +0.000 A 
ATOM      9  C   UNL     1      10.843  14.551  17.548  0.00  0.00    +0.000 A 
ATOM     10  C   UNL     1      10.648  15.973  17.427  0.00  0.00    +0.000 A 
ATOM     11  O   UNL     1      10.766  16.581  16.367  0.00  0.00    +0.000 OA
ATOM     12  O   UNL     1      10.322  16.638  18.626  0.00  0.00    +0.000 OA
ATOM     13  C   UNL     1      10.143  15.946  19.861  0.00  0.00    +0.000 A 
ATOM     14  C   UNL     1       9.821  16.742  20.961  0.00  0.00    +0.000 A 
ATOM     15  C   UNL     1       9.615  16.135  22.195  0.00  0.00    +0.000 A 
ATOM     16  C   UNL     1       9.706  14.749  22.308  0.00  0.00    +0.000 A 
ATOM     17  C   UNL     1      10.017  13.959  21.193  0.00  0.00    +0.000 A 
ATOM     18  C   UNL     1      10.276  14.547  19.958  0.00  0.00    +0.000 A 
ATOM     19  C   UNL     1      10.676  13.861  18.735  0.00  0.00    +0.000 A 
ENDBRANCH   5   6
ENDBRANCH   2   5
BRANCH   3  20
ATOM     20  C   UNL     1       8.115   9.244  18.065  0.00  0.00    +0.000 C 
BRANCH  20  21
ATOM     21  C   UNL     1       8.172   7.786  18.562  0.00  0.00    +0.000 C 
BRANCH  21  22
ATOM     22  N   UNL     1       7.823   6.791  17.526  0.00  0.00    +0.000 NA
ATOM     23  C   UNL     1       7.616   5.429  18.082  0.00  0.00    +0.000 C 
ATOM     24  C   UNL     1       6.354   5.256  18.962  0.00  0.00    +0.000 C 
ATOM     25  N   UNL     1       5.185   5.677  18.184  0.00  0.00    +0.000 N 
ATOM     26  C   UNL     1       5.264   7.032  17.620  0.00  0.00    +0.000 C 
ATOM     27  C   UNL     1       6.578   7.191  16.814  0.00  0.00    +0.000 C 
BRANCH  25  28
ATOM     28  C   UNL     1       3.995   4.972  18.228  0.00  0.00    +0.000 A 
ATOM     29  C   UNL     1       3.817   3.846  17.407  0.00  0.00    +0.000 A 
ATOM     30  C   UNL     1       2.655   3.067  17.458  0.00  0.00    +0.000 A 
ATOM     31  C   UNL     1       1.630   3.399  18.336  0.00  0.00    +0.000 A 
ATOM     32  C   UNL     1       1.772   4.507  19.165  0.00  0.00    +0.000 A 
ATOM     33  C   UNL     1       2.939   5.274  19.109  0.00  0.00    +0.000 A 
ATOM     34  F   UNL     1       3.011   6.342  19.922  0.00  0.00    +0.000 F 
ENDBRANCH  25  28
ENDBRANCH  21  22
ENDBRANCH  20  21
ENDBRANCH   3  20
TORSDOF 6
ENDMDL
MODEL 8
REMARK VINA RESULT:      -8.2      1.569      2.876
REMARK  Name = 
REMARK  6 active torsions:
REMARK  status: ('A' for Active; 'I' for Inactive)
REMARK    1  A    between atoms: C_2  and  C_3
REMARK    2  A    between atoms: C_3  and  N_4
REMARK    3  A    between atoms: N_18  and  C_19
REMARK    4  A    between atoms: C_19  and  C_20
REMARK    5  A    between atoms: C_20  and  N_21
REMARK    6  A    between atoms: N_24  and  C_25
REMARK                            x       y       z     vdW  Elec       q    Type
REMARK                         _______ _______ _______ _____ _____    ______ ____
ROOT
ATOM      1  O   UNL     1       7.924  11.125  17.535  0.00  0.00    +0.000 OA
ATOM      2  C   UNL     1       8.634  10.484  18.310  0.00  0.00    +0.000 C 
ATOM      3  N   UNL     1       8.642   9.110  18.335  0.00  0.00    +0.000 N 
ATOM      4  H   UNL     1       9.457   8.641  18.720  0.00  0.00    +0.000 HD
ENDROOT
BRANCH   2   5
ATOM      5  C   UNL     1       9.586  11.176  19.257  0.00  0.00    +0.000 C 
BRANCH   5   6
ATOM      6  N   UNL     1      10.357  12.234  18.628  0.00  0.00    +0.000 N 
ATOM      7  N   UNL     1      11.378  11.848  17.817  0.00  0.00    +0.000 NA
ATOM      8  C   UNL     1      11.885  12.993  17.355  0.00  0.00    +0.000 A 
ATOM      9  C   UNL     1      11.211  14.105  17.869  0.00  0.00    +0.000 A 
ATOM     10  C   UNL     1      11.444  15.514  17.687  0.00  0.00    +0.000 A 
ATOM     11  O   UNL     1      12.322  15.964  16.955  0.00  0.00    +0.000 OA
ATOM     12  O   UNL     1      10.597  16.363  18.428  0.00  0.00    +0.000 OA
ATOM     13  C   UNL     1       9.547  15.864  19.255  0.00  0.00    +0.000 A 
ATOM     14  C   UNL     1       8.792  16.828  19.924  0.00  0.00    +0.000 A 
ATOM     15  C   UNL     1       7.741  16.416  20.736  0.00  0.00    +0.000 A 
ATOM     16  C   UNL     1       7.441  15.060  20.846  0.00  0.00    +0.000 A 
ATOM     17  C   UNL     1       8.199  14.102  20.159  0.00  0.00    +0.000 A 
ATOM     18  C   UNL     1       9.287  14.485  19.379  0.00  0.00    +0.000 A 
ATOM     19  C   UNL     1      10.201  13.600  18.667  0.00  0.00    +0.000 A 
ENDBRANCH   5   6
ENDBRANCH   2   5
BRANCH   3  20
ATOM     20  C   UNL     1       7.822   8.344  17.413  0.00  0.00    +0.000 C 
BRANCH  20  21
ATOM     21  C   UNL     1       6.839   7.405  18.139  0.00  0.00    +0.000 C 
BRANCH  21  22
ATOM     22  N   UNL     1       6.421   6.241  17.326  0.00  0.00    +0.000 NA
ATOM     23  C   UNL     1       6.437   4.969  18.092  0.00  0.00    +0.000 C 
ATOM     24  C   UNL     1       5.357   4.844  19.195  0.00  0.00    +0.000 C 
ATOM     25  N   UNL     1       4.043   5.060  18.583  0.00  0.00    +0.000 N 
ATOM     26  C   UNL     1       3.900   6.315  17.833  0.00  0.00    +0.000 C 
ATOM     27  C   UNL     1       5.045   6.441  16.795  0.00  0.00    +0.000 C 
BRANCH  25  28
ATOM     28  C   UNL     1       2.948   4.289  18.932  0.00  0.00    +0.000 A 
ATOM     29  C   UNL     1       2.306   4.501  20.164  0.00  0.00    +0.000 A 
ATOM     30  C   UNL     1       1.161   3.788  20.537  0.00  0.00    +0.000 A 
ATOM     31  C   UNL     1       0.625   2.832  19.681  0.00  0.00    +0.000 A 
ATOM     32  C   UNL     1       1.233   2.597  18.453  0.00  0.00    +0.000 A 
ATOM     33  C   UNL     1       2.373   3.318  18.090  0.00  0.00    +0.000 A 
ATOM     34  F   UNL     1       2.926   3.034  16.898  0.00  0.00    +0.000 F 
ENDBRANCH  25  28
ENDBRANCH  21  22
ENDBRANCH  20  21
ENDBRANCH   3  20
TORSDOF 6
ENDMDL
MODEL 9
REMARK VINA RESULT:      -8.2      1.344      3.078
REMARK  Name = 
REMARK  6 active torsions:
REMARK  status: ('A' for Active; 'I' for Inactive)
REMARK    1  A    between atoms: C_2  and  C_3
REMARK    2  A    between atoms: C_3  and  N_4
REMARK    3  A    between atoms: N_18  and  C_19
REMARK    4  A    between atoms: C_19  and  C_20
REMARK    5  A    between atoms: C_20  and  N_21
REMARK    6  A    between atoms: N_24  and  C_25
REMARK                            x       y       z     vdW  Elec       q    Type
REMARK                         _______ _______ _______ _____ _____    ______ ____
ROOT
ATOM      1  O   UNL     1       8.443  11.219  17.877  0.00  0.00    +0.000 OA
ATOM      2  C   UNL     1       9.086  10.448  18.591  0.00  0.00    +0.000 C 
ATOM      3  N   UNL     1       8.884   9.089  18.573  0.00  0.00    +0.000 N 
ATOM      4  H   UNL     1       9.637   8.487  18.897  0.00  0.00    +0.000 HD
ENDROOT
BRANCH   2   5
ATOM      5  C   UNL     1      10.178  10.951  19.505  0.00  0.00    +0.000 C 
BRANCH   5   6
ATOM      6  N   UNL     1      10.354  12.392  19.453  0.00  0.00    +0.000 N 
ATOM      7  N   UNL     1      10.935  12.898  18.333  0.00  0.00    +0.000 NA
ATOM      8  C   UNL     1      10.944  14.218  18.532  0.00  0.00    +0.000 A 
ATOM      9  C   UNL     1      10.388  14.561  19.768  0.00  0.00    +0.000 A 
ATOM     10  C   UNL     1      10.239  15.841  20.411  0.00  0.00    +0.000 A 
ATOM     11  O   UNL     1      10.575  16.901  19.889  0.00  0.00    +0.000 OA
ATOM     12  O   UNL     1       9.688  15.801  21.708  0.00  0.00    +0.000 OA
ATOM     13  C   UNL     1       9.256  14.586  22.319  0.00  0.00    +0.000 A 
ATOM     14  C   UNL     1       8.731  14.708  23.605  0.00  0.00    +0.000 A 
ATOM     15  C   UNL     1       8.274  13.567  24.257  0.00  0.00    +0.000 A 
ATOM     16  C   UNL     1       8.323  12.334  23.610  0.00  0.00    +0.000 A 
ATOM     17  C   UNL     1       8.841  12.227  22.312  0.00  0.00    +0.000 A 
ATOM     18  C   UNL     1       9.350  13.345  21.658  0.00  0.00    +0.000 A 
ATOM     19  C   UNL     1       9.979  13.372  20.343  0.00  0.00    +0.000 A 
ENDBRANCH   5   6
ENDBRANCH   2   5
BRANCH   3  20
ATOM     20  C   UNL     1       7.911   8.492  17.675  0.00  0.00    +0.000 C 
BRANCH  20  21
ATOM     21  C   UNL     1       7.384   7.140  18.191  0.00  0.00    +0.000 C 
BRANCH  21  22
ATOM     22  N   UNL     1       6.614   6.378  17.183  0.00  0.00    +0.000 NA
ATOM     23  C   UNL     1       6.567   4.923  17.474  0.00  0.00    +0.000 C 
ATOM     24  C   UNL     1       5.729   4.521  18.713  0.00  0.00    +0.000 C 
ATOM     25  N   UNL     1       4.375   5.058  18.551  0.00  0.00    +0.000 N 
ATOM     26  C   UNL     1       4.301   6.504  18.301  0.00  0.00    +0.000 C 
ATOM     27  C   UNL     1       5.214   6.879  17.106  0.00  0.00    +0.000 C 
BRANCH  25  28
ATOM     28  C   UNL     1       3.257   4.320  18.899  0.00  0.00    +0.000 A 
ATOM     29  C   UNL     1       2.417   4.766  19.933  0.00  0.00    +0.000 A 
ATOM     30  C   UNL     1       1.245   4.085  20.282  0.00  0.00    +0.000 A 
ATOM     31  C   UNL     1       0.881   2.928  19.604  0.00  0.00    +0.000 A 
ATOM     32  C   UNL     1       1.689   2.457  18.574  0.00  0.00    +0.000 A 
ATOM     33  C   UNL     1       2.854   3.148  18.231  0.00  0.00    +0.000 A 
ATOM     34  F   UNL     1       3.603   2.635  17.239  0.00  0.00    +0.000 F 
ENDBRANCH  25  28
ENDBRANCH  21  22
ENDBRANCH  20  21
ENDBRANCH   3  20
TORSDOF 6
ENDMDL
