MODEL 1
REMARK VINA RESULT:      -7.3      0.000      0.000
REMARK  Name = 
REMARK  4 active torsions:
REMARK  status: ('A' for Active; 'I' for Inactive)
REMARK    1  A    between atoms: C_2  and  O_3
REMARK    2  A    between atoms: C_2  and  C_4
REMARK    3  A    between atoms: N_6  and  C_7
REMARK    4  A    between atoms: N_17  and  C_18
REMARK                            x       y       z     vdW  Elec       q    Type
REMARK                         _______ _______ _______ _____ _____    ______ ____
ROOT
ATOM      1  C   UNL     1       1.325   8.632  20.281  0.00  0.00    +0.000 A 
ATOM      2  C   UNL     1       1.296   9.697  19.359  0.00  0.00    +0.000 A 
ATOM      3  N   UNL     1       0.613  10.894  19.687  0.00  0.00    +0.000 N 
ATOM      4  N   UNL     1       1.828   9.579  18.124  0.00  0.00    +0.000 NA
ATOM      5  C   UNL     1       2.448   8.418  17.807  0.00  0.00    +0.000 A 
ATOM      6  C   UNL     1       2.528   7.313  18.647  0.00  0.00    +0.000 A 
ATOM      7  C   UNL     1       1.918   7.410  19.906  0.00  0.00    +0.000 A 
ATOM      8  C   UNL     1       1.929   6.197  20.812  0.00  0.00    +0.000 C 
ATOM      9  C   UNL     1       2.241   4.887  20.065  0.00  0.00    +0.000 C 
ATOM     10  N   UNL     1       3.433   5.062  19.233  0.00  0.00    +0.000 NA
ATOM     11  C   UNL     1       3.172   6.039  18.161  0.00  0.00    +0.000 C 
ATOM     12  H   UNL     1       1.015  11.301  20.532  0.00  0.00    +0.000 HD
ENDROOT
BRANCH  10  13
ATOM     13  C   UNL     1       4.059   3.824  18.721  0.00  0.00    +0.000 C 
ATOM     14  C   UNL     1       3.639   3.341  17.342  0.00  0.00    +0.000 C 
ATOM     15  C   UNL     1       2.577   2.298  17.607  0.00  0.00    +0.000 C 
ATOM     16  O   UNL     1       2.800   1.775  18.918  0.00  0.00    +0.000 OA
ATOM     17  C   UNL     1       3.791   2.576  19.578  0.00  0.00    +0.000 C 
ENDBRANCH  10  13
BRANCH   3  18
ATOM     18  C   UNL     1       0.151  11.860  18.734  0.00  0.00    +0.000 C 
ATOM     19  C   UNL     1      -0.970  12.753  19.324  0.00  0.00    +0.000 C 
ATOM     20  C   UNL     1      -0.371  13.910  18.502  0.00  0.00    +0.000 C 
ATOM     21  C   UNL     1       0.978  13.155  18.572  0.00  0.00    +0.000 C 
ENDBRANCH   3  18
BRANCH   1  23
ATOM     22  O   UNL     1      -0.464   8.477  21.852  0.00  0.00    +0.000 OA
ATOM     23  C   UNL     1       0.697   8.777  21.615  0.00  0.00    +0.000 C 
BRANCH  23  24
ATOM     24  O   UNL     1       1.512   9.328  22.542  0.00  0.00    +0.000 OA
ATOM     25  H   UNL     1       1.039   9.914  23.176  0.00  0.00    +0.000 HD
ENDBRANCH  23  24
ENDBRANCH   1  23
TORSDOF 4
ENDMDL
MODEL 2
REMARK VINA RESULT:      -7.2      0.772      1.055
REMARK  Name = 
REMARK  4 active torsions:
REMARK  status: ('A' for Active; 'I' for Inactive)
REMARK    1  A    between atoms: C_2  and  O_3
REMARK    2  A    between atoms: C_2  and  C_4
REMARK    3  A    between atoms: N_6  and  C_7
REMARK    4  A    between atoms: N_17  and  C_18
REMARK                            x       y       z     vdW  Elec       q    Type
REMARK                         _______ _______ _______ _____ _____    ______ ____
ROOT
ATOM      1  C   UNL     1       1.352   8.470  20.266  0.00  0.00    +0.000 A 
ATOM      2  C   UNL     1       1.098   9.439  19.275  0.00  0.00    +0.000 A 
ATOM      3  N   UNL     1       0.300  10.568  19.581  0.00  0.00    +0.000 N 
ATOM      4  N   UNL     1       1.522   9.278  18.003  0.00  0.00    +0.000 NA
ATOM      5  C   UNL     1       2.254   8.177  17.711  0.00  0.00    +0.000 A 
ATOM      6  C   UNL     1       2.555   7.168  18.620  0.00  0.00    +0.000 A 
ATOM      7  C   UNL     1       2.060   7.301  19.925  0.00  0.00    +0.000 A 
ATOM      8  C   UNL     1       2.313   6.182  20.913  0.00  0.00    +0.000 C 
ATOM      9  C   UNL     1       2.720   4.859  20.238  0.00  0.00    +0.000 C 
ATOM     10  N   UNL     1       3.796   5.104  19.276  0.00  0.00    +0.000 NA
ATOM     11  C   UNL     1       3.311   5.943  18.166  0.00  0.00    +0.000 C 
ATOM     12  H   UNL     1       0.724  11.094  20.346  0.00  0.00    +0.000 HD
ENDROOT
BRANCH  10  13
ATOM     13  C   UNL     1       4.526   3.910  18.796  0.00  0.00    +0.000 C 
ATOM     14  C   UNL     1       4.140   3.349  17.436  0.00  0.00    +0.000 C 
ATOM     15  C   UNL     1       3.177   2.225  17.745  0.00  0.00    +0.000 C 
ATOM     16  O   UNL     1       3.456   1.765  19.070  0.00  0.00    +0.000 OA
ATOM     17  C   UNL     1       4.377   2.672  19.693  0.00  0.00    +0.000 C 
ENDBRANCH  10  13
BRANCH   3  18
ATOM     18  C   UNL     1      -0.371  11.383  18.612  0.00  0.00    +0.000 C 
ATOM     19  C   UNL     1      -1.504  10.603  17.896  0.00  0.00    +0.000 C 
ATOM     20  C   UNL     1      -2.294  11.925  17.879  0.00  0.00    +0.000 C 
ATOM     21  C   UNL     1      -1.470  12.340  19.122  0.00  0.00    +0.000 C 
ENDBRANCH   3  18
BRANCH   1  23
ATOM     22  O   UNL     1      -0.323   8.452  21.965  0.00  0.00    +0.000 OA
ATOM     23  C   UNL     1       0.839   8.655  21.644  0.00  0.00    +0.000 C 
BRANCH  23  24
ATOM     24  O   UNL     1       1.764   9.126  22.510  0.00  0.00    +0.000 OA
ATOM     25  H   UNL     1       1.546   8.938  23.451  0.00  0.00    +0.000 HD
ENDBRANCH  23  24
ENDBRANCH   1  23
TORSDOF 4
ENDMDL
MODEL 3
REMARK VINA RESULT:      -6.8      0.853      1.076
REMARK  Name = 
REMARK  4 active torsions:
REMARK  status: ('A' for Active; 'I' for Inactive)
REMARK    1  A    between atoms: C_2  and  O_3
REMARK    2  A    between atoms: C_2  and  C_4
REMARK    3  A    between atoms: N_6  and  C_7
REMARK    4  A    between atoms: N_17  and  C_18
REMARK                            x       y       z     vdW  Elec       q    Type
REMARK                         _______ _______ _______ _____ _____    ______ ____
ROOT
ATOM      1  C   UNL     1       1.213   8.964  20.407  0.00  0.00    +0.000 A 
ATOM      2  C   UNL     1       1.099  10.070  19.541  0.00  0.00    +0.000 A 
ATOM      3  N   UNL     1       0.454  11.249  19.987  0.00  0.00    +0.000 N 
ATOM      4  N   UNL     1       1.510  10.009  18.257  0.00  0.00    +0.000 NA
ATOM      5  C   UNL     1       2.094   8.865  17.830  0.00  0.00    +0.000 A 
ATOM      6  C   UNL     1       2.251   7.723  18.608  0.00  0.00    +0.000 A 
ATOM      7  C   UNL     1       1.765   7.761  19.923  0.00  0.00    +0.000 A 
ATOM      8  C   UNL     1       1.859   6.509  20.767  0.00  0.00    +0.000 C 
ATOM      9  C   UNL     1       2.095   5.234  19.935  0.00  0.00    +0.000 C 
ATOM     10  N   UNL     1       3.203   5.449  19.003  0.00  0.00    +0.000 NA
ATOM     11  C   UNL     1       2.843   6.473  18.005  0.00  0.00    +0.000 C 
ATOM     12  H   UNL     1       0.935  11.619  20.807  0.00  0.00    +0.000 HD
ENDROOT
BRANCH  10  13
ATOM     13  C   UNL     1       3.774   4.236  18.378  0.00  0.00    +0.000 C 
ATOM     14  C   UNL     1       3.122   2.902  18.705  0.00  0.00    +0.000 C 
ATOM     15  C   UNL     1       3.968   2.324  19.816  0.00  0.00    +0.000 C 
ATOM     16  O   UNL     1       5.273   2.897  19.711  0.00  0.00    +0.000 OA
ATOM     17  C   UNL     1       5.239   3.962  18.750  0.00  0.00    +0.000 C 
ENDBRANCH  10  13
BRANCH   3  18
ATOM     18  C   UNL     1      -0.095  12.257  19.126  0.00  0.00    +0.000 C 
ATOM     19  C   UNL     1      -0.952  13.278  19.918  0.00  0.00    +0.000 C 
ATOM     20  C   UNL     1      -0.422  14.352  18.949  0.00  0.00    +0.000 C 
ATOM     21  C   UNL     1       0.816  13.446  18.749  0.00  0.00    +0.000 C 
ENDBRANCH   3  18
BRANCH   1  23
ATOM     22  O   UNL     1      -0.464   8.944  22.104  0.00  0.00    +0.000 OA
ATOM     23  C   UNL     1       0.716   9.048  21.800  0.00  0.00    +0.000 C 
BRANCH  23  24
ATOM     24  O   UNL     1       1.684   9.309  22.708  0.00  0.00    +0.000 OA
ATOM     25  H   UNL     1       2.441   9.813  22.333  0.00  0.00    +0.000 HD
ENDBRANCH  23  24
ENDBRANCH   1  23
TORSDOF 4
ENDMDL
MODEL 4
REMARK VINA RESULT:      -6.8      1.782      2.239
REMARK  Name = 
REMARK  4 active torsions:
REMARK  status: ('A' for Active; 'I' for Inactive)
REMARK    1  A    between atoms: C_2  and  O_3
REMARK    2  A    between atoms: C_2  and  C_4
REMARK    3  A    between atoms: N_6  and  C_7
REMARK    4  A    between atoms: N_17  and  C_18
REMARK                            x       y       z     vdW  Elec       q    Type
REMARK                         _______ _______ _______ _____ _____    ______ ____
ROOT
ATOM      1  C   UNL     1       1.375   8.426  20.031  0.00  0.00    +0.000 A 
ATOM      2  C   UNL     1       1.027   9.459  19.137  0.00  0.00    +0.000 A 
ATOM      3  N   UNL     1       0.091  10.446  19.530  0.00  0.00    +0.000 N 
ATOM      4  N   UNL     1       1.497   9.487  17.871  0.00  0.00    +0.000 NA
ATOM      5  C   UNL     1       2.364   8.519  17.493  0.00  0.00    +0.000 A 
ATOM      6  C   UNL     1       2.765   7.461  18.302  0.00  0.00    +0.000 A 
ATOM      7  C   UNL     1       2.228   7.393  19.595  0.00  0.00    +0.000 A 
ATOM      8  C   UNL     1       2.592   6.213  20.471  0.00  0.00    +0.000 C 
ATOM      9  C   UNL     1       3.173   5.027  19.677  0.00  0.00    +0.000 C 
ATOM     10  N   UNL     1       4.232   5.499  18.784  0.00  0.00    +0.000 NA
ATOM     11  C   UNL     1       3.674   6.390  17.751  0.00  0.00    +0.000 C 
ATOM     12  H   UNL     1       0.431  10.933  20.361  0.00  0.00    +0.000 HD
ENDROOT
BRANCH  10  13
ATOM     13  C   UNL     1       5.113   4.460  18.209  0.00  0.00    +0.000 C 
ATOM     14  C   UNL     1       6.612   4.708  18.246  0.00  0.00    +0.000 C 
ATOM     15  C   UNL     1       6.942   5.270  16.882  0.00  0.00    +0.000 C 
ATOM     16  O   UNL     1       5.940   4.814  15.970  0.00  0.00    +0.000 OA
ATOM     17  C   UNL     1       4.883   4.190  16.714  0.00  0.00    +0.000 C 
ENDBRANCH  10  13
BRANCH   3  18
ATOM     18  C   UNL     1      -0.651  11.275  18.627  0.00  0.00    +0.000 C 
ATOM     19  C   UNL     1      -1.730  10.464  17.864  0.00  0.00    +0.000 C 
ATOM     20  C   UNL     1      -2.619  11.719  17.949  0.00  0.00    +0.000 C 
ATOM     21  C   UNL     1      -1.814  12.106  19.213  0.00  0.00    +0.000 C 
ENDBRANCH   3  18
BRANCH   1  23
ATOM     22  O   UNL     1      -0.352   8.121  21.649  0.00  0.00    +0.000 OA
ATOM     23  C   UNL     1       0.812   8.401  21.402  0.00  0.00    +0.000 C 
BRANCH  23  24
ATOM     24  O   UNL     1       1.693   8.772  22.358  0.00  0.00    +0.000 OA
ATOM     25  H   UNL     1       1.260   9.134  23.164  0.00  0.00    +0.000 HD
ENDBRANCH  23  24
ENDBRANCH   1  23
TORSDOF 4
ENDMDL
MODEL 5
REMARK VINA RESULT:      -6.8      2.572      3.570
REMARK  Name = 
REMARK  4 active torsions:
REMARK  status: ('A' for Active; 'I' for Inactive)
REMARK    1  A    between atoms: C_2  and  O_3
REMARK    2  A    between atoms: C_2  and  C_4
REMARK    3  A    between atoms: N_6  and  C_7
REMARK    4  A    between atoms: N_17  and  C_18
REMARK                            x       y       z     vdW  Elec       q    Type
REMARK                         _______ _______ _______ _____ _____    ______ ____
ROOT
ATOM      1  C   UNL     1       0.245  10.342  19.597  0.00  0.00    +0.000 A 
ATOM      2  C   UNL     1      -0.192  10.480  20.930  0.00  0.00    +0.000 A 
ATOM      3  N   UNL     1      -0.950  11.614  21.309  0.00  0.00    +0.000 N 
ATOM      4  N   UNL     1       0.170   9.599  21.887  0.00  0.00    +0.000 NA
ATOM      5  C   UNL     1       0.924   8.536  21.522  0.00  0.00    +0.000 A 
ATOM      6  C   UNL     1       1.402   8.315  20.235  0.00  0.00    +0.000 A 
ATOM      7  C   UNL     1       1.084   9.263  19.252  0.00  0.00    +0.000 A 
ATOM      8  C   UNL     1       1.651   9.084  17.860  0.00  0.00    +0.000 C 
ATOM      9  C   UNL     1       2.844   8.110  17.814  0.00  0.00    +0.000 C 
ATOM     10  N   UNL     1       2.503   6.873  18.519  0.00  0.00    +0.000 NA
ATOM     11  C   UNL     1       2.305   7.139  19.956  0.00  0.00    +0.000 C 
ATOM     12  H   UNL     1      -1.806  11.658  20.756  0.00  0.00    +0.000 HD
ENDROOT
BRANCH  10  13
ATOM     13  C   UNL     1       3.396   5.719  18.282  0.00  0.00    +0.000 C 
ATOM     14  C   UNL     1       2.798   4.493  17.611  0.00  0.00    +0.000 C 
ATOM     15  C   UNL     1       2.449   3.563  18.751  0.00  0.00    +0.000 C 
ATOM     16  O   UNL     1       3.296   3.892  19.854  0.00  0.00    +0.000 OA
ATOM     17  C   UNL     1       3.996   5.109  19.558  0.00  0.00    +0.000 C 
ENDBRANCH  10  13
BRANCH   3  18
ATOM     18  C   UNL     1      -1.095  12.088  22.654  0.00  0.00    +0.000 C 
ATOM     19  C   UNL     1      -0.858  13.618  22.749  0.00  0.00    +0.000 C 
ATOM     20  C   UNL     1      -1.955  13.640  23.830  0.00  0.00    +0.000 C 
ATOM     21  C   UNL     1      -2.528  12.367  23.161  0.00  0.00    +0.000 C 
ENDBRANCH   3  18
BRANCH   1  23
ATOM     22  O   UNL     1       0.333  12.475  18.532  0.00  0.00    +0.000 OA
ATOM     23  C   UNL     1      -0.135  11.346  18.576  0.00  0.00    +0.000 C 
BRANCH  23  24
ATOM     24  O   UNL     1      -1.094  10.919  17.724  0.00  0.00    +0.000 OA
ATOM     25  H   UNL     1      -1.340  11.592  17.048  0.00  0.00    +0.000 HD
ENDBRANCH  23  24
ENDBRANCH   1  23
TORSDOF 4
ENDMDL
MODEL 6
REMARK VINA RESULT:      -6.8      1.465      1.872
REMARK  Name = 
REMARK  4 active torsions:
REMARK  status: ('A' for Active; 'I' for Inactive)
REMARK    1  A    between atoms: C_2  and  O_3
REMARK    2  A    between atoms: C_2  and  C_4
REMARK    3  A    between atoms: N_6  and  C_7
REMARK    4  A    between atoms: N_17  and  C_18
REMARK                            x       y       z     vdW  Elec       q    Type
REMARK                         _______ _______ _______ _____ _____    ______ ____
ROOT
ATOM      1  C   UNL     1       0.720   9.018  20.413  0.00  0.00    +0.000 A 
ATOM      2  C   UNL     1       0.263  10.076  19.601  0.00  0.00    +0.000 A 
ATOM      3  N   UNL     1      -0.710  10.976  20.100  0.00  0.00    +0.000 N 
ATOM      4  N   UNL     1       0.662  10.207  18.318  0.00  0.00    +0.000 NA
ATOM      5  C   UNL     1       1.565   9.320  17.839  0.00  0.00    +0.000 A 
ATOM      6  C   UNL     1       2.073   8.246  18.562  0.00  0.00    +0.000 A 
ATOM      7  C   UNL     1       1.610   8.068  19.873  0.00  0.00    +0.000 A 
ATOM      8  C   UNL     1       2.093   6.866  20.656  0.00  0.00    +0.000 C 
ATOM      9  C   UNL     1       2.702   5.768  19.764  0.00  0.00    +0.000 C 
ATOM     10  N   UNL     1       3.682   6.358  18.850  0.00  0.00    +0.000 NA
ATOM     11  C   UNL     1       3.016   7.269  17.902  0.00  0.00    +0.000 C 
ATOM     12  H   UNL     1      -0.358  11.436  20.941  0.00  0.00    +0.000 HD
ENDROOT
BRANCH  10  13
ATOM     13  C   UNL     1       4.593   5.412  18.170  0.00  0.00    +0.000 C 
ATOM     14  C   UNL     1       3.980   4.164  17.555  0.00  0.00    +0.000 C 
ATOM     15  C   UNL     1       4.177   3.086  18.597  0.00  0.00    +0.000 C 
ATOM     16  O   UNL     1       5.296   3.462  19.404  0.00  0.00    +0.000 OA
ATOM     17  C   UNL     1       5.673   4.808  19.080  0.00  0.00    +0.000 C 
ENDBRANCH  10  13
BRANCH   3  18
ATOM     18  C   UNL     1      -1.549  11.806  19.287  0.00  0.00    +0.000 C 
ATOM     19  C   UNL     1      -2.540  10.963  18.443  0.00  0.00    +0.000 C 
ATOM     20  C   UNL     1      -3.561  12.097  18.656  0.00  0.00    +0.000 C 
ATOM     21  C   UNL     1      -2.791  12.438  19.955  0.00  0.00    +0.000 C 
ENDBRANCH   3  18
BRANCH   1  23
ATOM     22  O   UNL     1      -0.780   8.264  22.108  0.00  0.00    +0.000 OA
ATOM     23  C   UNL     1       0.234   8.877  21.805  0.00  0.00    +0.000 C 
BRANCH  23  24
ATOM     24  O   UNL     1       0.986   9.538  22.713  0.00  0.00    +0.000 OA
ATOM     25  H   UNL     1       1.924   9.240  22.731  0.00  0.00    +0.000 HD
ENDBRANCH  23  24
ENDBRANCH   1  23
TORSDOF 4
ENDMDL
MODEL 7
REMARK VINA RESULT:      -6.7      2.158      3.003
REMARK  Name = 
REMARK  4 active torsions:
REMARK  status: ('A' for Active; 'I' for Inactive)
REMARK    1  A    between atoms: C_2  and  O_3
REMARK    2  A    between atoms: C_2  and  C_4
REMARK    3  A    between atoms: N_6  and  C_7
REMARK    4  A    between atoms: N_17  and  C_18
REMARK                            x       y       z     vdW  Elec       q    Type
REMARK                         _______ _______ _______ _____ _____    ______ ____
ROOT
ATOM      1  C   UNL     1       1.516   9.051  19.087  0.00  0.00    +0.000 A 
ATOM      2  C   UNL     1       0.951   9.286  20.357  0.00  0.00    +0.000 A 
ATOM      3  N   UNL     1       0.324  10.526  20.630  0.00  0.00    +0.000 N 
ATOM      4  N   UNL     1       1.068   8.390  21.361  0.00  0.00    +0.000 NA
ATOM      5  C   UNL     1       1.700   7.222  21.100  0.00  0.00    +0.000 A 
ATOM      6  C   UNL     1       2.289   6.901  19.882  0.00  0.00    +0.000 A 
ATOM      7  C   UNL     1       2.227   7.856  18.858  0.00  0.00    +0.000 A 
ATOM      8  C   UNL     1       2.921   7.560  17.546  0.00  0.00    +0.000 C 
ATOM      9  C   UNL     1       3.960   6.427  17.654  0.00  0.00    +0.000 C 
ATOM     10  N   UNL     1       3.365   5.271  18.326  0.00  0.00    +0.000 NA
ATOM     11  C   UNL     1       3.041   5.602  19.725  0.00  0.00    +0.000 C 
ATOM     12  H   UNL     1      -0.447  10.675  19.978  0.00  0.00    +0.000 HD
ENDROOT
BRANCH  10  13
ATOM     13  C   UNL     1       4.106   3.996  18.210  0.00  0.00    +0.000 C 
ATOM     14  C   UNL     1       3.502   2.909  17.335  0.00  0.00    +0.000 C 
ATOM     15  C   UNL     1       2.763   2.007  18.297  0.00  0.00    +0.000 C 
ATOM     16  O   UNL     1       3.372   2.153  19.583  0.00  0.00    +0.000 OA
ATOM     17  C   UNL     1       4.295   3.250  19.540  0.00  0.00    +0.000 C 
ENDBRANCH  10  13
BRANCH   3  18
ATOM     18  C   UNL     1       0.091  11.053  21.942  0.00  0.00    +0.000 C 
ATOM     19  C   UNL     1      -0.412  12.519  21.888  0.00  0.00    +0.000 C 
ATOM     20  C   UNL     1      -1.290  12.179  23.106  0.00  0.00    +0.000 C 
ATOM     21  C   UNL     1      -1.253  10.709  22.622  0.00  0.00    +0.000 C 
ENDBRANCH   3  18
BRANCH   1  23
ATOM     22  O   UNL     1       2.345  10.756  17.638  0.00  0.00    +0.000 OA
ATOM     23  C   UNL     1       1.406  10.070  18.017  0.00  0.00    +0.000 C 
BRANCH  23  24
ATOM     24  O   UNL     1       0.152  10.216  17.532  0.00  0.00    +0.000 OA
ATOM     25  H   UNL     1       0.129  10.401  16.566  0.00  0.00    +0.000 HD
ENDBRANCH  23  24
ENDBRANCH   1  23
TORSDOF 4
ENDMDL
MODEL 8
REMARK VINA RESULT:      -6.7      1.129      1.495
REMARK  Name = 
REMARK  4 active torsions:
REMARK  status: ('A' for Active; 'I' for Inactive)
REMARK    1  A    between atoms: C_2  and  O_3
REMARK    2  A    between atoms: C_2  and  C_4
REMARK    3  A    between atoms: N_6  and  C_7
REMARK    4  A    between atoms: N_17  and  C_18
REMARK                            x       y       z     vdW  Elec       q    Type
REMARK                         _______ _______ _______ _____ _____    ______ ____
ROOT
ATOM      1  C   UNL     1       1.182   8.899  20.354  0.00  0.00    +0.000 A 
ATOM      2  C   UNL     1       1.120   9.995  19.469  0.00  0.00    +0.000 A 
ATOM      3  N   UNL     1       0.430  11.170  19.852  0.00  0.00    +0.000 N 
ATOM      4  N   UNL     1       1.627   9.925  18.219  0.00  0.00    +0.000 NA
ATOM      5  C   UNL     1       2.253   8.784  17.850  0.00  0.00    +0.000 A 
ATOM      6  C   UNL     1       2.365   7.652  18.651  0.00  0.00    +0.000 A 
ATOM      7  C   UNL     1       1.782   7.698  19.925  0.00  0.00    +0.000 A 
ATOM      8  C   UNL     1       1.827   6.456  20.789  0.00  0.00    +0.000 C 
ATOM      9  C   UNL     1       2.139   5.176  19.991  0.00  0.00    +0.000 C 
ATOM     10  N   UNL     1       3.311   5.394  19.141  0.00  0.00    +0.000 NA
ATOM     11  C   UNL     1       3.015   6.403  18.108  0.00  0.00    +0.000 C 
ATOM     12  H   UNL     1       0.845  11.554  20.701  0.00  0.00    +0.000 HD
ENDROOT
BRANCH  10  13
ATOM     13  C   UNL     1       3.941   4.182  18.574  0.00  0.00    +0.000 C 
ATOM     14  C   UNL     1       5.447   4.035  18.726  0.00  0.00    +0.000 C 
ATOM     15  C   UNL     1       6.016   4.538  17.419  0.00  0.00    +0.000 C 
ATOM     16  O   UNL     1       5.006   4.385  16.418  0.00  0.00    +0.000 OA
ATOM     17  C   UNL     1       3.770   4.030  17.054  0.00  0.00    +0.000 C 
ENDBRANCH  10  13
BRANCH   3  18
ATOM     18  C   UNL     1      -0.064  12.162  18.942  0.00  0.00    +0.000 C 
ATOM     19  C   UNL     1      -0.950  13.209  19.665  0.00  0.00    +0.000 C 
ATOM     20  C   UNL     1      -0.362  14.255  18.700  0.00  0.00    +0.000 C 
ATOM     21  C   UNL     1       0.876  13.333  18.583  0.00  0.00    +0.000 C 
ENDBRANCH   3  18
BRANCH   1  23
ATOM     22  O   UNL     1      -0.569   8.663  21.957  0.00  0.00    +0.000 OA
ATOM     23  C   UNL     1       0.582   8.992  21.705  0.00  0.00    +0.000 C 
BRANCH  23  24
ATOM     24  O   UNL     1       1.408   9.528  22.631  0.00  0.00    +0.000 OA
ATOM     25  H   UNL     1       1.668  10.455  22.428  0.00  0.00    +0.000 HD
ENDBRANCH  23  24
ENDBRANCH   1  23
TORSDOF 4
ENDMDL
MODEL 9
REMARK VINA RESULT:      -6.7      2.689      3.748
REMARK  Name = 
REMARK  4 active torsions:
REMARK  status: ('A' for Active; 'I' for Inactive)
REMARK    1  A    between atoms: C_2  and  O_3
REMARK    2  A    between atoms: C_2  and  C_4
REMARK    3  A    between atoms: N_6  and  C_7
REMARK    4  A    between atoms: N_17  and  C_18
REMARK                            x       y       z     vdW  Elec       q    Type
REMARK                         _______ _______ _______ _____ _____    ______ ____
ROOT
ATOM      1  C   UNL     1       0.620  10.186  19.505  0.00  0.00    +0.000 A 
ATOM      2  C   UNL     1       0.091  10.307  20.806  0.00  0.00    +0.000 A 
ATOM      3  N   UNL     1      -0.592  11.490  21.181  0.00  0.00    +0.000 N 
ATOM      4  N   UNL     1       0.294   9.358  21.744  0.00  0.00    +0.000 NA
ATOM      5  C   UNL     1       0.979   8.247  21.387  0.00  0.00    +0.000 A 
ATOM      6  C   UNL     1       1.539   8.037  20.131  0.00  0.00    +0.000 A 
ATOM      7  C   UNL     1       1.386   9.050  19.174  0.00  0.00    +0.000 A 
ATOM      8  C   UNL     1       2.046   8.878  17.823  0.00  0.00    +0.000 C 
ATOM      9  C   UNL     1       3.148   7.802  17.821  0.00  0.00    +0.000 C 
ATOM     10  N   UNL     1       2.643   6.573  18.436  0.00  0.00    +0.000 NA
ATOM     11  C   UNL     1       2.354   6.795  19.864  0.00  0.00    +0.000 C 
ATOM     12  H   UNL     1      -1.394  11.636  20.567  0.00  0.00    +0.000 HD
ENDROOT
BRANCH  10  13
ATOM     13  C   UNL     1       3.447   5.352  18.212  0.00  0.00    +0.000 C 
ATOM     14  C   UNL     1       4.268   4.827  19.378  0.00  0.00    +0.000 C 
ATOM     15  C   UNL     1       5.656   5.381  19.151  0.00  0.00    +0.000 C 
ATOM     16  O   UNL     1       5.798   5.637  17.751  0.00  0.00    +0.000 OA
ATOM     17  C   UNL     1       4.518   5.491  17.119  0.00  0.00    +0.000 C 
ENDBRANCH  10  13
BRANCH   3  18
ATOM     18  C   UNL     1      -0.804  11.919  22.532  0.00  0.00    +0.000 C 
ATOM     19  C   UNL     1      -0.796  13.465  22.648  0.00  0.00    +0.000 C 
ATOM     20  C   UNL     1      -1.882  13.309  23.729  0.00  0.00    +0.000 C 
ATOM     21  C   UNL     1      -2.260  11.974  23.044  0.00  0.00    +0.000 C 
ENDBRANCH   3  18
BRANCH   1  23
ATOM     22  O   UNL     1       1.160  12.225  18.391  0.00  0.00    +0.000 OA
ATOM     23  C   UNL     1       0.415  11.263  18.509  0.00  0.00    +0.000 C 
BRANCH  23  24
ATOM     24  O   UNL     1      -0.710  11.116  17.773  0.00  0.00    +0.000 OA
ATOM     25  H   UNL     1      -1.086  10.207  17.817  0.00  0.00    +0.000 HD
ENDBRANCH  23  24
ENDBRANCH   1  23
TORSDOF 4
ENDMDL
