MODEL 1
REMARK VINA RESULT:      -7.7      0.000      0.000
REMARK  Name = 
REMARK  8 active torsions:
REMARK  status: ('A' for Active; 'I' for Inactive)
REMARK    1  A    between atoms: C_2  and  C_3
REMARK    2  A    between atoms: C_2  and  C_4
REMARK    3  A    between atoms: C_4  and  S_5
REMARK    4  A    between atoms: S_5  and  C_6
REMARK    5  A    between atoms: C_10  and  C_11
REMARK    6  A    between atoms: C_14  and  C_15
REMARK    7  A    between atoms: N_22  and  C_23
REMARK    8  A    between atoms: C_23  and  C_24
REMARK                            x       y       z     vdW  Elec       q    Type
REMARK                         _______ _______ _______ _____ _____    ______ ____
ROOT
ATOM      1  C   UNL     1       2.080   6.433  20.320  0.00  0.00    +0.000 A 
ATOM      2  N   UNL     1       1.323   7.080  21.162  0.00  0.00    +0.000 NA
ATOM      3  C   UNL     1       0.931   8.360  20.753  0.00  0.00    +0.000 A 
ATOM      4  C   UNL     1       0.055   9.231  21.457  0.00  0.00    +0.000 A 
ATOM      5  C   UNL     1      -0.155  10.426  20.768  0.00  0.00    +0.000 A 
ATOM      6  S   UNL     1       0.758  10.449  19.305  0.00  0.00    +0.000 S 
ATOM      7  C   UNL     1       1.356   8.898  19.583  0.00  0.00    +0.000 A 
ATOM      8  C   UNL     1       2.176   8.205  18.651  0.00  0.00    +0.000 A 
ATOM      9  O   UNL     1       2.476   8.671  17.554  0.00  0.00    +0.000 OA
ATOM     10  N   UNL     1       2.532   6.920  19.079  0.00  0.00    +0.000 N 
ENDROOT
BRANCH   5  11
ATOM     11  C   UNL     1      -0.947  11.620  21.121  0.00  0.00    +0.000 A 
ATOM     12  C   UNL     1      -0.799  12.223  22.376  0.00  0.00    +0.000 A 
ATOM     13  C   UNL     1      -1.481  13.405  22.690  0.00  0.00    +0.000 A 
ATOM     14  C   UNL     1      -2.326  14.012  21.756  0.00  0.00    +0.000 A 
ATOM     15  C   UNL     1      -3.050  15.286  22.075  0.00  0.00    +0.000 C 
ATOM     16  C   UNL     1      -2.503  13.405  20.511  0.00  0.00    +0.000 A 
ATOM     17  C   UNL     1      -1.828  12.221  20.202  0.00  0.00    +0.000 A 
ENDBRANCH   5  11
BRANCH   1  18
ATOM     18  S   UNL     1       2.616   4.805  20.808  0.00  0.00    +0.000 S 
BRANCH  18  19
ATOM     19  C   UNL     1       1.175   3.769  20.394  0.00  0.00    +0.000 C 
BRANCH  19  21
ATOM     20  C   UNL     1       0.517   2.106  18.620  0.00  0.00    +0.000 C 
ATOM     21  C   UNL     1       1.482   2.751  19.302  0.00  0.00    +0.000 C 
ATOM     22  C   UNL     1       2.926   2.369  19.082  0.00  0.00    +0.000 C 
ENDBRANCH  19  21
ENDBRANCH  18  19
ENDBRANCH   1  18
BRANCH  10  23
ATOM     23  C   UNL     1       3.155   6.109  18.031  0.00  0.00    +0.000 C 
BRANCH  23  24
ATOM     24  C   UNL     1       4.670   6.058  18.012  0.00  0.00    +0.000 A 
ATOM     25  C   UNL     1       5.377   6.861  17.109  0.00  0.00    +0.000 A 
ATOM     26  C   UNL     1       6.764   6.999  17.208  0.00  0.00    +0.000 A 
ATOM     27  C   UNL     1       7.470   6.316  18.194  0.00  0.00    +0.000 A 
ATOM     28  C   UNL     1       6.792   5.467  19.063  0.00  0.00    +0.000 A 
ATOM     29  C   UNL     1       5.403   5.339  18.973  0.00  0.00    +0.000 A 
ENDBRANCH  23  24
ENDBRANCH  10  23
TORSDOF 6
ENDMDL
MODEL 2
REMARK VINA RESULT:      -7.7      1.002      1.334
REMARK  Name = 
REMARK  8 active torsions:
REMARK  status: ('A' for Active; 'I' for Inactive)
REMARK    1  A    between atoms: C_2  and  C_3
REMARK    2  A    between atoms: C_2  and  C_4
REMARK    3  A    between atoms: C_4  and  S_5
REMARK    4  A    between atoms: S_5  and  C_6
REMARK    5  A    between atoms: C_10  and  C_11
REMARK    6  A    between atoms: C_14  and  C_15
REMARK    7  A    between atoms: N_22  and  C_23
REMARK    8  A    between atoms: C_23  and  C_24
REMARK                            x       y       z     vdW  Elec       q    Type
REMARK                         _______ _______ _______ _____ _____    ______ ____
ROOT
ATOM      1  C   UNL     1       2.715   6.109  19.812  0.00  0.00    +0.000 A 
ATOM      2  N   UNL     1       2.032   6.615  20.801  0.00  0.00    +0.000 NA
ATOM      3  C   UNL     1       1.450   7.863  20.550  0.00  0.00    +0.000 A 
ATOM      4  C   UNL     1       0.606   8.586  21.437  0.00  0.00    +0.000 A 
ATOM      5  C   UNL     1       0.168   9.786  20.877  0.00  0.00    +0.000 A 
ATOM      6  S   UNL     1       0.838   9.998  19.302  0.00  0.00    +0.000 S 
ATOM      7  C   UNL     1       1.631   8.512  19.374  0.00  0.00    +0.000 A 
ATOM      8  C   UNL     1       2.367   7.974  18.283  0.00  0.00    +0.000 A 
ATOM      9  O   UNL     1       2.444   8.533  17.191  0.00  0.00    +0.000 OA
ATOM     10  N   UNL     1       2.917   6.715  18.558  0.00  0.00    +0.000 N 
ENDROOT
BRANCH   5  11
ATOM     11  C   UNL     1      -0.681  10.858  21.429  0.00  0.00    +0.000 A 
ATOM     12  C   UNL     1      -1.238  11.827  20.585  0.00  0.00    +0.000 A 
ATOM     13  C   UNL     1      -2.115  12.798  21.084  0.00  0.00    +0.000 A 
ATOM     14  C   UNL     1      -2.456  12.823  22.439  0.00  0.00    +0.000 A 
ATOM     15  C   UNL     1      -3.405  13.848  22.983  0.00  0.00    +0.000 C 
ATOM     16  C   UNL     1      -1.887  11.879  23.296  0.00  0.00    +0.000 A 
ATOM     17  C   UNL     1      -1.005  10.916  22.798  0.00  0.00    +0.000 A 
ENDBRANCH   5  11
BRANCH   1  18
ATOM     18  S   UNL     1       3.487   4.528  20.094  0.00  0.00    +0.000 S 
BRANCH  18  19
ATOM     19  C   UNL     1       2.059   3.413  20.285  0.00  0.00    +0.000 C 
BRANCH  19  21
ATOM     20  C   UNL     1       0.479   2.239  18.712  0.00  0.00    +0.000 C 
ATOM     21  C   UNL     1       1.724   2.667  19.000  0.00  0.00    +0.000 C 
ATOM     22  C   UNL     1       2.865   2.289  18.088  0.00  0.00    +0.000 C 
ENDBRANCH  19  21
ENDBRANCH  18  19
ENDBRANCH   1  18
BRANCH  10  23
ATOM     23  C   UNL     1       3.453   6.043  17.373  0.00  0.00    +0.000 C 
BRANCH  23  24
ATOM     24  C   UNL     1       4.961   5.906  17.284  0.00  0.00    +0.000 A 
ATOM     25  C   UNL     1       5.772   7.018  17.541  0.00  0.00    +0.000 A 
ATOM     26  C   UNL     1       7.156   6.878  17.678  0.00  0.00    +0.000 A 
ATOM     27  C   UNL     1       7.754   5.630  17.532  0.00  0.00    +0.000 A 
ATOM     28  C   UNL     1       6.971   4.523  17.217  0.00  0.00    +0.000 A 
ATOM     29  C   UNL     1       5.585   4.660  17.094  0.00  0.00    +0.000 A 
ENDBRANCH  23  24
ENDBRANCH  10  23
TORSDOF 6
ENDMDL
MODEL 3
REMARK VINA RESULT:      -7.7      2.007      4.210
REMARK  Name = 
REMARK  8 active torsions:
REMARK  status: ('A' for Active; 'I' for Inactive)
REMARK    1  A    between atoms: C_2  and  C_3
REMARK    2  A    between atoms: C_2  and  C_4
REMARK    3  A    between atoms: C_4  and  S_5
REMARK    4  A    between atoms: S_5  and  C_6
REMARK    5  A    between atoms: C_10  and  C_11
REMARK    6  A    between atoms: C_14  and  C_15
REMARK    7  A    between atoms: N_22  and  C_23
REMARK    8  A    between atoms: C_23  and  C_24
REMARK                            x       y       z     vdW  Elec       q    Type
REMARK                         _______ _______ _______ _____ _____    ______ ____
ROOT
ATOM      1  C   UNL     1       3.425   7.331  17.796  0.00  0.00    +0.000 A 
ATOM      2  N   UNL     1       3.120   8.532  17.390  0.00  0.00    +0.000 NA
ATOM      3  C   UNL     1       2.245   9.240  18.222  0.00  0.00    +0.000 A 
ATOM      4  C   UNL     1       1.819  10.584  18.038  0.00  0.00    +0.000 A 
ATOM      5  C   UNL     1       0.966  11.005  19.058  0.00  0.00    +0.000 A 
ATOM      6  S   UNL     1       0.691   9.726  20.182  0.00  0.00    +0.000 S 
ATOM      7  C   UNL     1       1.720   8.687  19.343  0.00  0.00    +0.000 A 
ATOM      8  C   UNL     1       2.045   7.382  19.803  0.00  0.00    +0.000 A 
ATOM      9  O   UNL     1       1.633   6.930  20.869  0.00  0.00    +0.000 OA
ATOM     10  N   UNL     1       2.940   6.708  18.961  0.00  0.00    +0.000 N 
ENDROOT
BRANCH   5  11
ATOM     11  C   UNL     1       0.264  12.286  19.265  0.00  0.00    +0.000 A 
ATOM     12  C   UNL     1      -0.853  12.353  20.108  0.00  0.00    +0.000 A 
ATOM     13  C   UNL     1      -1.475  13.577  20.380  0.00  0.00    +0.000 A 
ATOM     14  C   UNL     1      -0.996  14.763  19.817  0.00  0.00    +0.000 A 
ATOM     15  C   UNL     1      -1.644  16.082  20.112  0.00  0.00    +0.000 C 
ATOM     16  C   UNL     1       0.100  14.706  18.953  0.00  0.00    +0.000 A 
ATOM     17  C   UNL     1       0.715  13.482  18.676  0.00  0.00    +0.000 A 
ENDBRANCH   5  11
BRANCH   1  18
ATOM     18  S   UNL     1       4.524   6.387  16.758  0.00  0.00    +0.000 S 
BRANCH  18  19
ATOM     19  C   UNL     1       6.169   6.963  17.289  0.00  0.00    +0.000 C 
BRANCH  19  21
ATOM     20  C   UNL     1       7.739   5.958  18.984  0.00  0.00    +0.000 C 
ATOM     21  C   UNL     1       7.031   5.836  17.845  0.00  0.00    +0.000 C 
ATOM     22  C   UNL     1       7.187   4.590  17.007  0.00  0.00    +0.000 C 
ENDBRANCH  19  21
ENDBRANCH  18  19
ENDBRANCH   1  18
BRANCH  10  23
ATOM     23  C   UNL     1       3.477   5.479  19.547  0.00  0.00    +0.000 C 
BRANCH  23  24
ATOM     24  C   UNL     1       2.885   4.171  19.060  0.00  0.00    +0.000 A 
ATOM     25  C   UNL     1       3.736   3.128  18.672  0.00  0.00    +0.000 A 
ATOM     26  C   UNL     1       3.233   1.849  18.424  0.00  0.00    +0.000 A 
ATOM     27  C   UNL     1       1.869   1.596  18.533  0.00  0.00    +0.000 A 
ATOM     28  C   UNL     1       1.000   2.633  18.859  0.00  0.00    +0.000 A 
ATOM     29  C   UNL     1       1.504   3.911  19.120  0.00  0.00    +0.000 A 
ENDBRANCH  23  24
ENDBRANCH  10  23
TORSDOF 6
ENDMDL
MODEL 4
REMARK VINA RESULT:      -7.6      1.141      1.389
REMARK  Name = 
REMARK  8 active torsions:
REMARK  status: ('A' for Active; 'I' for Inactive)
REMARK    1  A    between atoms: C_2  and  C_3
REMARK    2  A    between atoms: C_2  and  C_4
REMARK    3  A    between atoms: C_4  and  S_5
REMARK    4  A    between atoms: S_5  and  C_6
REMARK    5  A    between atoms: C_10  and  C_11
REMARK    6  A    between atoms: C_14  and  C_15
REMARK    7  A    between atoms: N_22  and  C_23
REMARK    8  A    between atoms: C_23  and  C_24
REMARK                            x       y       z     vdW  Elec       q    Type
REMARK                         _______ _______ _______ _____ _____    ______ ____
ROOT
ATOM      1  C   UNL     1       2.377   6.451  19.976  0.00  0.00    +0.000 A 
ATOM      2  N   UNL     1       1.847   7.025  21.021  0.00  0.00    +0.000 NA
ATOM      3  C   UNL     1       1.367   8.323  20.811  0.00  0.00    +0.000 A 
ATOM      4  C   UNL     1       0.688   9.128  21.766  0.00  0.00    +0.000 A 
ATOM      5  C   UNL     1       0.316  10.363  21.236  0.00  0.00    +0.000 A 
ATOM      6  S   UNL     1       0.844  10.503  19.600  0.00  0.00    +0.000 S 
ATOM      7  C   UNL     1       1.493   8.947  19.614  0.00  0.00    +0.000 A 
ATOM      8  C   UNL     1       2.061   8.335  18.463  0.00  0.00    +0.000 A 
ATOM      9  O   UNL     1       2.084   8.880  17.362  0.00  0.00    +0.000 OA
ATOM     10  N   UNL     1       2.512   7.030  18.700  0.00  0.00    +0.000 N 
ENDROOT
BRANCH   5  11
ATOM     11  C   UNL     1      -0.367  11.516  21.855  0.00  0.00    +0.000 A 
ATOM     12  C   UNL     1      -1.436  11.315  22.737  0.00  0.00    +0.000 A 
ATOM     13  C   UNL     1      -2.037  12.395  23.396  0.00  0.00    +0.000 A 
ATOM     14  C   UNL     1      -1.581  13.701  23.189  0.00  0.00    +0.000 A 
ATOM     15  C   UNL     1      -2.205  14.864  23.900  0.00  0.00    +0.000 C 
ATOM     16  C   UNL     1      -0.533  13.916  22.291  0.00  0.00    +0.000 A 
ATOM     17  C   UNL     1       0.059  12.838  21.628  0.00  0.00    +0.000 A 
ENDBRANCH   5  11
BRANCH   1  18
ATOM     18  S   UNL     1       3.016   4.803  20.202  0.00  0.00    +0.000 S 
BRANCH  18  19
ATOM     19  C   UNL     1       1.507   3.783  20.195  0.00  0.00    +0.000 C 
BRANCH  19  21
ATOM     20  C   UNL     1       0.484   2.079  18.647  0.00  0.00    +0.000 C 
ATOM     21  C   UNL     1       1.581   2.638  19.193  0.00  0.00    +0.000 C 
ATOM     22  C   UNL     1       2.935   2.034  18.914  0.00  0.00    +0.000 C 
ENDBRANCH  19  21
ENDBRANCH  18  19
ENDBRANCH   1  18
BRANCH  10  23
ATOM     23  C   UNL     1       2.861   6.304  17.477  0.00  0.00    +0.000 C 
BRANCH  23  24
ATOM     24  C   UNL     1       4.319   5.933  17.291  0.00  0.00    +0.000 A 
ATOM     25  C   UNL     1       4.654   4.662  16.809  0.00  0.00    +0.000 A 
ATOM     26  C   UNL     1       5.963   4.363  16.426  0.00  0.00    +0.000 A 
ATOM     27  C   UNL     1       6.966   5.322  16.545  0.00  0.00    +0.000 A 
ATOM     28  C   UNL     1       6.665   6.571  17.078  0.00  0.00    +0.000 A 
ATOM     29  C   UNL     1       5.352   6.875  17.448  0.00  0.00    +0.000 A 
ENDBRANCH  23  24
ENDBRANCH  10  23
TORSDOF 6
ENDMDL
MODEL 5
REMARK VINA RESULT:      -7.6      1.981      4.259
REMARK  Name = 
REMARK  8 active torsions:
REMARK  status: ('A' for Active; 'I' for Inactive)
REMARK    1  A    between atoms: C_2  and  C_3
REMARK    2  A    between atoms: C_2  and  C_4
REMARK    3  A    between atoms: C_4  and  S_5
REMARK    4  A    between atoms: S_5  and  C_6
REMARK    5  A    between atoms: C_10  and  C_11
REMARK    6  A    between atoms: C_14  and  C_15
REMARK    7  A    between atoms: N_22  and  C_23
REMARK    8  A    between atoms: C_23  and  C_24
REMARK                            x       y       z     vdW  Elec       q    Type
REMARK                         _______ _______ _______ _____ _____    ______ ____
ROOT
ATOM      1  C   UNL     1       3.480   7.314  17.793  0.00  0.00    +0.000 A 
ATOM      2  N   UNL     1       3.133   8.505  17.388  0.00  0.00    +0.000 NA
ATOM      3  C   UNL     1       2.259   9.194  18.236  0.00  0.00    +0.000 A 
ATOM      4  C   UNL     1       1.793  10.525  18.054  0.00  0.00    +0.000 A 
ATOM      5  C   UNL     1       0.953  10.929  19.091  0.00  0.00    +0.000 A 
ATOM      6  S   UNL     1       0.739   9.651  20.228  0.00  0.00    +0.000 S 
ATOM      7  C   UNL     1       1.775   8.634  19.372  0.00  0.00    +0.000 A 
ATOM      8  C   UNL     1       2.146   7.341  19.832  0.00  0.00    +0.000 A 
ATOM      9  O   UNL     1       1.771   6.885  20.910  0.00  0.00    +0.000 OA
ATOM     10  N   UNL     1       3.039   6.686  18.973  0.00  0.00    +0.000 N 
ENDROOT
BRANCH   5  11
ATOM     11  C   UNL     1       0.221  12.192  19.307  0.00  0.00    +0.000 A 
ATOM     12  C   UNL     1      -0.678  12.316  20.373  0.00  0.00    +0.000 A 
ATOM     13  C   UNL     1      -1.314  13.535  20.640  0.00  0.00    +0.000 A 
ATOM     14  C   UNL     1      -1.064  14.659  19.848  0.00  0.00    +0.000 A 
ATOM     15  C   UNL     1      -1.726  15.973  20.132  0.00  0.00    +0.000 C 
ATOM     16  C   UNL     1      -0.189  14.541  18.766  0.00  0.00    +0.000 A 
ATOM     17  C   UNL     1       0.438  13.322  18.496  0.00  0.00    +0.000 A 
ENDBRANCH   5  11
BRANCH   1  18
ATOM     18  S   UNL     1       4.579   6.393  16.735  0.00  0.00    +0.000 S 
BRANCH  18  19
ATOM     19  C   UNL     1       6.224   6.957  17.280  0.00  0.00    +0.000 C 
BRANCH  19  21
ATOM     20  C   UNL     1       7.180   4.633  17.093  0.00  0.00    +0.000 C 
ATOM     21  C   UNL     1       7.109   5.808  17.748  0.00  0.00    +0.000 C 
ATOM     22  C   UNL     1       7.824   5.963  19.068  0.00  0.00    +0.000 C 
ENDBRANCH  19  21
ENDBRANCH  18  19
ENDBRANCH   1  18
BRANCH  10  23
ATOM     23  C   UNL     1       3.622   5.475  19.553  0.00  0.00    +0.000 C 
BRANCH  23  24
ATOM     24  C   UNL     1       2.874   4.176  19.326  0.00  0.00    +0.000 A 
ATOM     25  C   UNL     1       1.932   3.746  20.269  0.00  0.00    +0.000 A 
ATOM     26  C   UNL     1       1.078   2.676  19.992  0.00  0.00    +0.000 A 
ATOM     27  C   UNL     1       1.170   2.000  18.778  0.00  0.00    +0.000 A 
ATOM     28  C   UNL     1       2.139   2.374  17.853  0.00  0.00    +0.000 A 
ATOM     29  C   UNL     1       2.985   3.454  18.124  0.00  0.00    +0.000 A 
ENDBRANCH  23  24
ENDBRANCH  10  23
TORSDOF 6
ENDMDL
MODEL 6
REMARK VINA RESULT:      -7.6      0.856      1.313
REMARK  Name = 
REMARK  8 active torsions:
REMARK  status: ('A' for Active; 'I' for Inactive)
REMARK    1  A    between atoms: C_2  and  C_3
REMARK    2  A    between atoms: C_2  and  C_4
REMARK    3  A    between atoms: C_4  and  S_5
REMARK    4  A    between atoms: S_5  and  C_6
REMARK    5  A    between atoms: C_10  and  C_11
REMARK    6  A    between atoms: C_14  and  C_15
REMARK    7  A    between atoms: N_22  and  C_23
REMARK    8  A    between atoms: C_23  and  C_24
REMARK                            x       y       z     vdW  Elec       q    Type
REMARK                         _______ _______ _______ _____ _____    ______ ____
ROOT
ATOM      1  C   UNL     1       1.956   6.683  20.269  0.00  0.00    +0.000 A 
ATOM      2  N   UNL     1       1.262   7.483  21.030  0.00  0.00    +0.000 NA
ATOM      3  C   UNL     1       0.975   8.736  20.477  0.00  0.00    +0.000 A 
ATOM      4  C   UNL     1       0.179   9.752  21.074  0.00  0.00    +0.000 A 
ATOM      5  C   UNL     1       0.064  10.873  20.253  0.00  0.00    +0.000 A 
ATOM      6  S   UNL     1       0.964  10.653  18.798  0.00  0.00    +0.000 S 
ATOM      7  C   UNL     1       1.433   9.099  19.253  0.00  0.00    +0.000 A 
ATOM      8  C   UNL     1       2.186   8.238  18.408  0.00  0.00    +0.000 A 
ATOM      9  O   UNL     1       2.514   8.549  17.264  0.00  0.00    +0.000 OA
ATOM     10  N   UNL     1       2.437   6.985  18.981  0.00  0.00    +0.000 N 
ENDROOT
BRANCH   5  11
ATOM     11  C   UNL     1      -0.624  12.161  20.465  0.00  0.00    +0.000 A 
ATOM     12  C   UNL     1      -0.094  13.343  19.932  0.00  0.00    +0.000 A 
ATOM     13  C   UNL     1      -0.781  14.557  20.053  0.00  0.00    +0.000 A 
ATOM     14  C   UNL     1      -2.015  14.618  20.707  0.00  0.00    +0.000 A 
ATOM     15  C   UNL     1      -2.767  15.909  20.830  0.00  0.00    +0.000 C 
ATOM     16  C   UNL     1      -2.540  13.451  21.266  0.00  0.00    +0.000 A 
ATOM     17  C   UNL     1      -1.849  12.242  21.152  0.00  0.00    +0.000 A 
ENDBRANCH   5  11
BRANCH   1  18
ATOM     18  S   UNL     1       2.359   5.082  20.941  0.00  0.00    +0.000 S 
BRANCH  18  19
ATOM     19  C   UNL     1       0.991   4.040  20.340  0.00  0.00    +0.000 C 
BRANCH  19  21
ATOM     20  C   UNL     1       0.625   2.170  18.692  0.00  0.00    +0.000 C 
ATOM     21  C   UNL     1       1.469   2.915  19.432  0.00  0.00    +0.000 C 
ATOM     22  C   UNL     1       2.933   2.550  19.475  0.00  0.00    +0.000 C 
ENDBRANCH  19  21
ENDBRANCH  18  19
ENDBRANCH   1  18
BRANCH  10  23
ATOM     23  C   UNL     1       2.982   6.010  18.034  0.00  0.00    +0.000 C 
BRANCH  23  24
ATOM     24  C   UNL     1       4.491   5.964  17.888  0.00  0.00    +0.000 A 
ATOM     25  C   UNL     1       5.278   5.561  18.973  0.00  0.00    +0.000 A 
ATOM     26  C   UNL     1       6.642   5.303  18.811  0.00  0.00    +0.000 A 
ATOM     27  C   UNL     1       7.246   5.471  17.569  0.00  0.00    +0.000 A 
ATOM     28  C   UNL     1       6.493   5.929  16.493  0.00  0.00    +0.000 A 
ATOM     29  C   UNL     1       5.126   6.174  16.651  0.00  0.00    +0.000 A 
ENDBRANCH  23  24
ENDBRANCH  10  23
TORSDOF 6
ENDMDL
MODEL 7
REMARK VINA RESULT:      -7.5      1.872      4.209
REMARK  Name = 
REMARK  8 active torsions:
REMARK  status: ('A' for Active; 'I' for Inactive)
REMARK    1  A    between atoms: C_2  and  C_3
REMARK    2  A    between atoms: C_2  and  C_4
REMARK    3  A    between atoms: C_4  and  S_5
REMARK    4  A    between atoms: S_5  and  C_6
REMARK    5  A    between atoms: C_10  and  C_11
REMARK    6  A    between atoms: C_14  and  C_15
REMARK    7  A    between atoms: N_22  and  C_23
REMARK    8  A    between atoms: C_23  and  C_24
REMARK                            x       y       z     vdW  Elec       q    Type
REMARK                         _______ _______ _______ _____ _____    ______ ____
ROOT
ATOM      1  C   UNL     1       3.491   7.270  17.803  0.00  0.00    +0.000 A 
ATOM      2  N   UNL     1       3.021   8.441  17.472  0.00  0.00    +0.000 NA
ATOM      3  C   UNL     1       2.122   9.004  18.385  0.00  0.00    +0.000 A 
ATOM      4  C   UNL     1       1.529  10.293  18.288  0.00  0.00    +0.000 A 
ATOM      5  C   UNL     1       0.698  10.567  19.374  0.00  0.00    +0.000 A 
ATOM      6  S   UNL     1       0.647   9.221  20.451  0.00  0.00    +0.000 S 
ATOM      7  C   UNL     1       1.737   8.348  19.508  0.00  0.00    +0.000 A 
ATOM      8  C   UNL     1       2.243   7.074  19.887  0.00  0.00    +0.000 A 
ATOM      9  O   UNL     1       1.955   6.534  20.952  0.00  0.00    +0.000 OA
ATOM     10  N   UNL     1       3.156   6.548  18.964  0.00  0.00    +0.000 N 
ENDROOT
BRANCH   5  11
ATOM     11  C   UNL     1      -0.137  11.744  19.681  0.00  0.00    +0.000 A 
ATOM     12  C   UNL     1      -1.529  11.679  19.546  0.00  0.00    +0.000 A 
ATOM     13  C   UNL     1      -2.339  12.761  19.916  0.00  0.00    +0.000 A 
ATOM     14  C   UNL     1      -1.775  13.932  20.431  0.00  0.00    +0.000 A 
ATOM     15  C   UNL     1      -2.631  15.091  20.844  0.00  0.00    +0.000 C 
ATOM     16  C   UNL     1      -0.386  14.018  20.544  0.00  0.00    +0.000 A 
ATOM     17  C   UNL     1       0.421  12.941  20.167  0.00  0.00    +0.000 A 
ENDBRANCH   5  11
BRANCH   1  18
ATOM     18  S   UNL     1       4.627   6.508  16.661  0.00  0.00    +0.000 S 
BRANCH  18  19
ATOM     19  C   UNL     1       6.246   7.092  17.257  0.00  0.00    +0.000 C 
BRANCH  19  21
ATOM     20  C   UNL     1       7.862   6.127  18.932  0.00  0.00    +0.000 C 
ATOM     21  C   UNL     1       7.095   5.967  17.836  0.00  0.00    +0.000 C 
ATOM     22  C   UNL     1       7.169   4.672  17.065  0.00  0.00    +0.000 C 
ENDBRANCH  19  21
ENDBRANCH  18  19
ENDBRANCH   1  18
BRANCH  10  23
ATOM     23  C   UNL     1       3.871   5.370  19.460  0.00  0.00    +0.000 C 
BRANCH  23  24
ATOM     24  C   UNL     1       3.216   4.022  19.229  0.00  0.00    +0.000 A 
ATOM     25  C   UNL     1       2.523   3.401  20.275  0.00  0.00    +0.000 A 
ATOM     26  C   UNL     1       1.734   2.272  20.040  0.00  0.00    +0.000 A 
ATOM     27  C   UNL     1       1.647   1.729  18.761  0.00  0.00    +0.000 A 
ATOM     28  C   UNL     1       2.375   2.297  17.721  0.00  0.00    +0.000 A 
ATOM     29  C   UNL     1       3.154   3.435  17.952  0.00  0.00    +0.000 A 
ENDBRANCH  23  24
ENDBRANCH  10  23
TORSDOF 6
ENDMDL
MODEL 8
REMARK VINA RESULT:      -7.5      1.036      1.268
REMARK  Name = 
REMARK  8 active torsions:
REMARK  status: ('A' for Active; 'I' for Inactive)
REMARK    1  A    between atoms: C_2  and  C_3
REMARK    2  A    between atoms: C_2  and  C_4
REMARK    3  A    between atoms: C_4  and  S_5
REMARK    4  A    between atoms: S_5  and  C_6
REMARK    5  A    between atoms: C_10  and  C_11
REMARK    6  A    between atoms: C_14  and  C_15
REMARK    7  A    between atoms: N_22  and  C_23
REMARK    8  A    between atoms: C_23  and  C_24
REMARK                            x       y       z     vdW  Elec       q    Type
REMARK                         _______ _______ _______ _____ _____    ______ ____
ROOT
ATOM      1  C   UNL     1       2.775   6.175  19.757  0.00  0.00    +0.000 A 
ATOM      2  N   UNL     1       2.104   6.666  20.761  0.00  0.00    +0.000 NA
ATOM      3  C   UNL     1       1.494   7.903  20.525  0.00  0.00    +0.000 A 
ATOM      4  C   UNL     1       0.655   8.609  21.431  0.00  0.00    +0.000 A 
ATOM      5  C   UNL     1       0.185   9.802  20.883  0.00  0.00    +0.000 A 
ATOM      6  S   UNL     1       0.818  10.030  19.295  0.00  0.00    +0.000 S 
ATOM      7  C   UNL     1       1.639   8.558  19.347  0.00  0.00    +0.000 A 
ATOM      8  C   UNL     1       2.361   8.036  18.239  0.00  0.00    +0.000 A 
ATOM      9  O   UNL     1       2.406   8.598  17.148  0.00  0.00    +0.000 OA
ATOM     10  N   UNL     1       2.940   6.787  18.500  0.00  0.00    +0.000 N 
ENDROOT
BRANCH   5  11
ATOM     11  C   UNL     1      -0.673  10.858  21.456  0.00  0.00    +0.000 A 
ATOM     12  C   UNL     1      -0.994  10.848  22.819  0.00  0.00    +0.000 A 
ATOM     13  C   UNL     1      -1.735  11.890  23.390  0.00  0.00    +0.000 A 
ATOM     14  C   UNL     1      -2.171  12.966  22.612  0.00  0.00    +0.000 A 
ATOM     15  C   UNL     1      -2.952  14.095  23.215  0.00  0.00    +0.000 C 
ATOM     16  C   UNL     1      -1.880  12.974  21.247  0.00  0.00    +0.000 A 
ATOM     17  C   UNL     1      -1.148  11.929  20.676  0.00  0.00    +0.000 A 
ENDBRANCH   5  11
BRANCH   1  18
ATOM     18  S   UNL     1       3.582   4.607  20.018  0.00  0.00    +0.000 S 
BRANCH  18  19
ATOM     19  C   UNL     1       2.179   3.468  20.250  0.00  0.00    +0.000 C 
BRANCH  19  21
ATOM     20  C   UNL     1       2.980   2.179  18.239  0.00  0.00    +0.000 C 
ATOM     21  C   UNL     1       1.973   2.545  19.055  0.00  0.00    +0.000 C 
ATOM     22  C   UNL     1       0.560   2.141  18.713  0.00  0.00    +0.000 C 
ENDBRANCH  19  21
ENDBRANCH  18  19
ENDBRANCH   1  18
BRANCH  10  23
ATOM     23  C   UNL     1       3.464   6.127  17.302  0.00  0.00    +0.000 C 
BRANCH  23  24
ATOM     24  C   UNL     1       4.958   5.872  17.257  0.00  0.00    +0.000 A 
ATOM     25  C   UNL     1       5.841   6.852  17.727  0.00  0.00    +0.000 A 
ATOM     26  C   UNL     1       7.199   6.569  17.897  0.00  0.00    +0.000 A 
ATOM     27  C   UNL     1       7.701   5.311  17.575  0.00  0.00    +0.000 A 
ATOM     28  C   UNL     1       6.850   4.344  17.050  0.00  0.00    +0.000 A 
ATOM     29  C   UNL     1       5.489   4.622  16.892  0.00  0.00    +0.000 A 
ENDBRANCH  23  24
ENDBRANCH  10  23
TORSDOF 6
ENDMDL
MODEL 9
REMARK VINA RESULT:      -7.5      0.924      1.148
REMARK  Name = 
REMARK  8 active torsions:
REMARK  status: ('A' for Active; 'I' for Inactive)
REMARK    1  A    between atoms: C_2  and  C_3
REMARK    2  A    between atoms: C_2  and  C_4
REMARK    3  A    between atoms: C_4  and  S_5
REMARK    4  A    between atoms: S_5  and  C_6
REMARK    5  A    between atoms: C_10  and  C_11
REMARK    6  A    between atoms: C_14  and  C_15
REMARK    7  A    between atoms: N_22  and  C_23
REMARK    8  A    between atoms: C_23  and  C_24
REMARK                            x       y       z     vdW  Elec       q    Type
REMARK                         _______ _______ _______ _____ _____    ______ ____
ROOT
ATOM      1  C   UNL     1       1.940   6.988  20.208  0.00  0.00    +0.000 A 
ATOM      2  N   UNL     1       1.221   7.772  20.963  0.00  0.00    +0.000 NA
ATOM      3  C   UNL     1       0.896   9.012  20.400  0.00  0.00    +0.000 A 
ATOM      4  C   UNL     1       0.070  10.007  20.990  0.00  0.00    +0.000 A 
ATOM      5  C   UNL     1      -0.078  11.119  20.161  0.00  0.00    +0.000 A 
ATOM      6  S   UNL     1       0.829  10.916  18.708  0.00  0.00    +0.000 S 
ATOM      7  C   UNL     1       1.345   9.380  19.174  0.00  0.00    +0.000 A 
ATOM      8  C   UNL     1       2.123   8.536  18.335  0.00  0.00    +0.000 A 
ATOM      9  O   UNL     1       2.443   8.848  17.190  0.00  0.00    +0.000 OA
ATOM     10  N   UNL     1       2.412   7.295  18.918  0.00  0.00    +0.000 N 
ENDROOT
BRANCH   5  11
ATOM     11  C   UNL     1      -0.805  12.387  20.363  0.00  0.00    +0.000 A 
ATOM     12  C   UNL     1      -1.923  12.436  21.204  0.00  0.00    +0.000 A 
ATOM     13  C   UNL     1      -2.569  13.650  21.472  0.00  0.00    +0.000 A 
ATOM     14  C   UNL     1      -2.110  14.843  20.906  0.00  0.00    +0.000 A 
ATOM     15  C   UNL     1      -2.783  16.150  21.197  0.00  0.00    +0.000 C 
ATOM     16  C   UNL     1      -1.012  14.803  20.045  0.00  0.00    +0.000 A 
ATOM     17  C   UNL     1      -0.374  13.590  19.772  0.00  0.00    +0.000 A 
ENDBRANCH   5  11
BRANCH   1  18
ATOM     18  S   UNL     1       2.390   5.405  20.891  0.00  0.00    +0.000 S 
BRANCH  18  19
ATOM     19  C   UNL     1       1.029   4.328  20.337  0.00  0.00    +0.000 C 
BRANCH  19  21
ATOM     20  C   UNL     1       1.630   2.287  21.687  0.00  0.00    +0.000 C 
ATOM     21  C   UNL     1       1.355   2.848  20.493  0.00  0.00    +0.000 C 
ATOM     22  C   UNL     1       1.500   2.023  19.238  0.00  0.00    +0.000 C 
ENDBRANCH  19  21
ENDBRANCH  18  19
ENDBRANCH   1  18
BRANCH  10  23
ATOM     23  C   UNL     1       2.987   6.331  17.978  0.00  0.00    +0.000 C 
BRANCH  23  24
ATOM     24  C   UNL     1       4.493   6.160  18.006  0.00  0.00    +0.000 A 
ATOM     25  C   UNL     1       5.291   6.910  17.134  0.00  0.00    +0.000 A 
ATOM     26  C   UNL     1       6.680   6.936  17.278  0.00  0.00    +0.000 A 
ATOM     27  C   UNL     1       7.297   6.190  18.279  0.00  0.00    +0.000 A 
ATOM     28  C   UNL     1       6.526   5.391  19.117  0.00  0.00    +0.000 A 
ATOM     29  C   UNL     1       5.134   5.375  18.982  0.00  0.00    +0.000 A 
ENDBRANCH  23  24
ENDBRANCH  10  23
TORSDOF 6
ENDMDL
