MODEL 1
REMARK VINA RESULT:      -7.7      0.000      0.000
REMARK  Name = 
REMARK  6 active torsions:
REMARK  status: ('A' for Active; 'I' for Inactive)
REMARK    1  A    between atoms: C_2  and  C_3
REMARK    2  A    between atoms: C_3  and  C_4
REMARK    3  A    between atoms: N_6  and  C_7
REMARK    4  A    between atoms: C_7  and  C_8
REMARK    5  A    between atoms: C_8  and  C_9
REMARK    6  A    between atoms: C_19  and  C_21
REMARK                            x       y       z     vdW  Elec       q    Type
REMARK                         _______ _______ _______ _____ _____    ______ ____
ROOT
ATOM      1  C   UNL     1       4.610   5.413  17.087  0.00  0.00    +0.000 C 
ATOM      2  C   UNL     1       3.612   5.407  17.999  0.00  0.00    +0.000 C 
ATOM      3  N   UNL     1       3.141   6.568  18.609  0.00  0.00    +0.000 NA
ATOM      4  C   UNL     1       2.185   6.233  19.416  0.00  0.00    +0.000 C 
ATOM      5  N   UNL     1       1.469   7.103  20.197  0.00  0.00    +0.000 N 
ATOM      6  C   UNL     1       1.647   8.485  20.256  0.00  0.00    +0.000 C 
ATOM      7  O   UNL     1       2.524   9.084  19.640  0.00  0.00    +0.000 OA
ATOM      8  C   UNL     1       1.917   4.801  19.426  0.00  0.00    +0.000 A 
ATOM      9  C   UNL     1       0.998   4.037  20.124  0.00  0.00    +0.000 A 
ATOM     10  C   UNL     1       1.014   2.659  19.901  0.00  0.00    +0.000 A 
ATOM     11  C   UNL     1       1.937   2.093  19.008  0.00  0.00    +0.000 A 
ATOM     12  C   UNL     1       2.855   2.891  18.315  0.00  0.00    +0.000 A 
ATOM     13  C   UNL     1       2.839   4.261  18.524  0.00  0.00    +0.000 A 
ATOM     14  H   UNL     1       0.729   6.737  20.775  0.00  0.00    +0.000 HD
ENDROOT
BRANCH   6  15
ATOM     15  C   UNL     1       0.702   9.196  21.121  0.00  0.00    +0.000 A 
ATOM     16  C   UNL     1       0.036   8.680  22.220  0.00  0.00    +0.000 A 
ATOM     17  C   UNL     1      -0.791   9.643  22.868  0.00  0.00    +0.000 A 
ATOM     18  C   UNL     1      -0.739  10.867  22.240  0.00  0.00    +0.000 A 
ATOM     19  S   UNL     1       0.293  10.845  20.877  0.00  0.00    +0.000 S 
ENDBRANCH   6  15
BRANCH   1  20
ATOM     20  C   UNL     1       5.333   6.653  16.655  0.00  0.00    +0.000 C 
ATOM     21  O   UNL     1       5.132   7.125  15.540  0.00  0.00    +0.000 OA
ATOM     22  N   UNL     1       6.194   7.222  17.555  0.00  0.00    +0.000 N 
ATOM     23  H   UNL     1       6.370   6.731  18.437  0.00  0.00    +0.000 HD
BRANCH  22  24
ATOM     24  C   UNL     1       6.945   8.430  17.291  0.00  0.00    +0.000 C 
BRANCH  24  25
ATOM     25  C   UNL     1       8.277   8.453  18.041  0.00  0.00    +0.000 C 
BRANCH  25  26
ATOM     26  C   UNL     1       8.699   9.854  18.396  0.00  0.00    +0.000 A 
ATOM     27  C   UNL     1       9.401  10.096  19.585  0.00  0.00    +0.000 A 
ATOM     28  C   UNL     1       9.777  11.392  19.931  0.00  0.00    +0.000 A 
ATOM     29  C   UNL     1       9.453  12.459  19.092  0.00  0.00    +0.000 A 
ATOM     30  C   UNL     1       8.756  12.227  17.908  0.00  0.00    +0.000 A 
ATOM     31  C   UNL     1       8.378  10.929  17.560  0.00  0.00    +0.000 A 
ENDBRANCH  25  26
ENDBRANCH  24  25
ENDBRANCH  22  24
ENDBRANCH   1  20
BRANCH   1  33
ATOM     32  N   UNL     1       5.512   3.047  15.938  0.00  0.00    +0.000 NA
ATOM     33  C   UNL     1       5.103   4.120  16.459  0.00  0.00    +0.000 C 
ENDBRANCH   1  33
TORSDOF 6
ENDMDL
MODEL 2
REMARK VINA RESULT:      -7.5      2.080      2.543
REMARK  Name = 
REMARK  6 active torsions:
REMARK  status: ('A' for Active; 'I' for Inactive)
REMARK    1  A    between atoms: C_2  and  C_3
REMARK    2  A    between atoms: C_3  and  C_4
REMARK    3  A    between atoms: N_6  and  C_7
REMARK    4  A    between atoms: C_7  and  C_8
REMARK    5  A    between atoms: C_8  and  C_9
REMARK    6  A    between atoms: C_19  and  C_21
REMARK                            x       y       z     vdW  Elec       q    Type
REMARK                         _______ _______ _______ _____ _____    ______ ____
ROOT
ATOM      1  C   UNL     1       6.352   6.417  17.583  0.00  0.00    +0.000 C 
ATOM      2  C   UNL     1       5.018   6.296  17.767  0.00  0.00    +0.000 C 
ATOM      3  N   UNL     1       4.165   7.396  17.833  0.00  0.00    +0.000 NA
ATOM      4  C   UNL     1       2.960   6.953  18.002  0.00  0.00    +0.000 C 
ATOM      5  N   UNL     1       1.838   7.735  18.113  0.00  0.00    +0.000 N 
ATOM      6  C   UNL     1       1.805   9.128  18.062  0.00  0.00    +0.000 C 
ATOM      7  O   UNL     1       2.809   9.829  17.966  0.00  0.00    +0.000 OA
ATOM      8  C   UNL     1       2.885   5.500  18.066  0.00  0.00    +0.000 A 
ATOM      9  C   UNL     1       1.817   4.634  18.228  0.00  0.00    +0.000 A 
ATOM     10  C   UNL     1       2.101   3.268  18.254  0.00  0.00    +0.000 A 
ATOM     11  C   UNL     1       3.423   2.813  18.125  0.00  0.00    +0.000 A 
ATOM     12  C   UNL     1       4.484   3.713  17.961  0.00  0.00    +0.000 A 
ATOM     13  C   UNL     1       4.208   5.070  17.925  0.00  0.00    +0.000 A 
ATOM     14  H   UNL     1       0.943   7.284  18.220  0.00  0.00    +0.000 HD
ENDROOT
BRANCH   6  15
ATOM     15  C   UNL     1       0.467   9.720  18.135  0.00  0.00    +0.000 A 
ATOM     16  C   UNL     1      -0.619   9.412  17.332  0.00  0.00    +0.000 A 
ATOM     17  C   UNL     1      -1.790  10.146  17.681  0.00  0.00    +0.000 A 
ATOM     18  C   UNL     1      -1.564  10.999  18.736  0.00  0.00    +0.000 A 
ATOM     19  S   UNL     1       0.052  10.918  19.291  0.00  0.00    +0.000 S 
ENDBRANCH   6  15
BRANCH   1  20
ATOM     20  C   UNL     1       7.059   7.734  17.458  0.00  0.00    +0.000 C 
ATOM     21  O   UNL     1       6.628   8.593  16.696  0.00  0.00    +0.000 OA
ATOM     22  N   UNL     1       8.171   7.923  18.234  0.00  0.00    +0.000 N 
ATOM     23  H   UNL     1       8.517   7.134  18.789  0.00  0.00    +0.000 HD
BRANCH  22  24
ATOM     24  C   UNL     1       8.944   9.146  18.240  0.00  0.00    +0.000 C 
BRANCH  24  25
ATOM     25  C   UNL     1       8.933   9.824  19.610  0.00  0.00    +0.000 C 
BRANCH  25  26
ATOM     26  C   UNL     1       9.828  11.035  19.647  0.00  0.00    +0.000 A 
ATOM     27  C   UNL     1       9.846  11.860  20.780  0.00  0.00    +0.000 A 
ATOM     28  C   UNL     1      10.655  12.994  20.812  0.00  0.00    +0.000 A 
ATOM     29  C   UNL     1      11.452  13.314  19.713  0.00  0.00    +0.000 A 
ATOM     30  C   UNL     1      11.439  12.498  18.583  0.00  0.00    +0.000 A 
ATOM     31  C   UNL     1      10.629  11.362  18.547  0.00  0.00    +0.000 A 
ENDBRANCH  25  26
ENDBRANCH  24  25
ENDBRANCH  22  24
ENDBRANCH   1  20
BRANCH   1  33
ATOM     32  N   UNL     1       7.991   4.172  17.492  0.00  0.00    +0.000 NA
ATOM     33  C   UNL     1       7.248   5.190  17.533  0.00  0.00    +0.000 C 
ENDBRANCH   1  33
TORSDOF 6
ENDMDL
MODEL 3
REMARK VINA RESULT:      -7.3      2.098      2.595
REMARK  Name = 
REMARK  6 active torsions:
REMARK  status: ('A' for Active; 'I' for Inactive)
REMARK    1  A    between atoms: C_2  and  C_3
REMARK    2  A    between atoms: C_3  and  C_4
REMARK    3  A    between atoms: N_6  and  C_7
REMARK    4  A    between atoms: C_7  and  C_8
REMARK    5  A    between atoms: C_8  and  C_9
REMARK    6  A    between atoms: C_19  and  C_21
REMARK                            x       y       z     vdW  Elec       q    Type
REMARK                         _______ _______ _______ _____ _____    ______ ____
ROOT
ATOM      1  C   UNL     1       6.426   6.189  17.790  0.00  0.00    +0.000 C 
ATOM      2  C   UNL     1       5.117   6.154  18.123  0.00  0.00    +0.000 C 
ATOM      3  N   UNL     1       4.282   7.265  18.015  0.00  0.00    +0.000 NA
ATOM      4  C   UNL     1       3.097   6.909  18.396  0.00  0.00    +0.000 C 
ATOM      5  N   UNL     1       1.998   7.729  18.430  0.00  0.00    +0.000 N 
ATOM      6  C   UNL     1       1.970   9.074  18.062  0.00  0.00    +0.000 C 
ATOM      7  O   UNL     1       2.965   9.703  17.711  0.00  0.00    +0.000 OA
ATOM      8  C   UNL     1       3.018   5.512  18.801  0.00  0.00    +0.000 A 
ATOM      9  C   UNL     1       1.966   4.739  19.261  0.00  0.00    +0.000 A 
ATOM     10  C   UNL     1       2.241   3.408  19.574  0.00  0.00    +0.000 A 
ATOM     11  C   UNL     1       3.540   2.895  19.428  0.00  0.00    +0.000 A 
ATOM     12  C   UNL     1       4.585   3.701  18.960  0.00  0.00    +0.000 A 
ATOM     13  C   UNL     1       4.318   5.022  18.638  0.00  0.00    +0.000 A 
ATOM     14  H   UNL     1       1.115   7.342  18.724  0.00  0.00    +0.000 HD
ENDROOT
BRANCH   6  15
ATOM     15  C   UNL     1       0.650   9.707  18.123  0.00  0.00    +0.000 A 
ATOM     16  C   UNL     1      -0.494   9.302  17.455  0.00  0.00    +0.000 A 
ATOM     17  C   UNL     1      -1.625  10.116  17.754  0.00  0.00    +0.000 A 
ATOM     18  C   UNL     1      -1.312  11.123  18.637  0.00  0.00    +0.000 A 
ATOM     19  S   UNL     1       0.336  11.089  19.090  0.00  0.00    +0.000 S 
ENDBRANCH   6  15
BRANCH   1  20
ATOM     20  C   UNL     1       7.127   7.420  17.297  0.00  0.00    +0.000 C 
ATOM     21  O   UNL     1       7.201   7.644  16.093  0.00  0.00    +0.000 OA
ATOM     22  N   UNL     1       7.649   8.263  18.241  0.00  0.00    +0.000 N 
ATOM     23  H   UNL     1       7.617   7.973  19.223  0.00  0.00    +0.000 HD
BRANCH  22  24
ATOM     24  C   UNL     1       8.332   9.497  17.921  0.00  0.00    +0.000 C 
BRANCH  24  25
ATOM     25  C   UNL     1       9.165  10.013  19.095  0.00  0.00    +0.000 C 
BRANCH  25  26
ATOM     26  C   UNL     1       9.992  11.212  18.715  0.00  0.00    +0.000 A 
ATOM     27  C   UNL     1       9.491  12.149  17.800  0.00  0.00    +0.000 A 
ATOM     28  C   UNL     1      10.260  13.250  17.427  0.00  0.00    +0.000 A 
ATOM     29  C   UNL     1      11.535  13.424  17.964  0.00  0.00    +0.000 A 
ATOM     30  C   UNL     1      12.040  12.497  18.874  0.00  0.00    +0.000 A 
ATOM     31  C   UNL     1      11.273  11.393  19.249  0.00  0.00    +0.000 A 
ENDBRANCH  25  26
ENDBRANCH  24  25
ENDBRANCH  22  24
ENDBRANCH   1  20
BRANCH   1  33
ATOM     32  N   UNL     1       8.032   3.934  18.064  0.00  0.00    +0.000 NA
ATOM     33  C   UNL     1       7.304   4.957  17.940  0.00  0.00    +0.000 C 
ENDBRANCH   1  33
TORSDOF 6
ENDMDL
MODEL 4
REMARK VINA RESULT:      -7.3      2.004      2.275
REMARK  Name = 
REMARK  6 active torsions:
REMARK  status: ('A' for Active; 'I' for Inactive)
REMARK    1  A    between atoms: C_2  and  C_3
REMARK    2  A    between atoms: C_3  and  C_4
REMARK    3  A    between atoms: N_6  and  C_7
REMARK    4  A    between atoms: C_7  and  C_8
REMARK    5  A    between atoms: C_8  and  C_9
REMARK    6  A    between atoms: C_19  and  C_21
REMARK                            x       y       z     vdW  Elec       q    Type
REMARK                         _______ _______ _______ _____ _____    ______ ____
ROOT
ATOM      1  C   UNL     1       5.931   6.171  17.787  0.00  0.00    +0.000 C 
ATOM      2  C   UNL     1       4.647   6.197  18.210  0.00  0.00    +0.000 C 
ATOM      3  N   UNL     1       3.838   7.325  18.088  0.00  0.00    +0.000 NA
ATOM      4  C   UNL     1       2.672   7.029  18.570  0.00  0.00    +0.000 C 
ATOM      5  N   UNL     1       1.600   7.884  18.626  0.00  0.00    +0.000 N 
ATOM      6  C   UNL     1       1.583   9.203  18.177  0.00  0.00    +0.000 C 
ATOM      7  O   UNL     1       2.568   9.780  17.721  0.00  0.00    +0.000 OA
ATOM      8  C   UNL     1       2.585   5.662  19.066  0.00  0.00    +0.000 A 
ATOM      9  C   UNL     1       1.546   4.952  19.643  0.00  0.00    +0.000 A 
ATOM     10  C   UNL     1       1.807   3.634  20.020  0.00  0.00    +0.000 A 
ATOM     11  C   UNL     1       3.078   3.074  19.819  0.00  0.00    +0.000 A 
ATOM     12  C   UNL     1       4.110   3.817  19.232  0.00  0.00    +0.000 A 
ATOM     13  C   UNL     1       3.856   5.124  18.847  0.00  0.00    +0.000 A 
ATOM     14  H   UNL     1       0.730   7.543  19.003  0.00  0.00    +0.000 HD
ENDROOT
BRANCH   6  15
ATOM     15  C   UNL     1       0.288   9.879  18.287  0.00  0.00    +0.000 A 
ATOM     16  C   UNL     1      -0.860   9.592  17.567  0.00  0.00    +0.000 A 
ATOM     17  C   UNL     1      -1.963  10.415  17.934  0.00  0.00    +0.000 A 
ATOM     18  C   UNL     1      -1.626  11.313  18.921  0.00  0.00    +0.000 A 
ATOM     19  S   UNL     1       0.012  11.166  19.389  0.00  0.00    +0.000 S 
ENDBRANCH   6  15
BRANCH   1  20
ATOM     20  C   UNL     1       6.629   7.348  17.172  0.00  0.00    +0.000 C 
ATOM     21  O   UNL     1       6.421   7.641  15.999  0.00  0.00    +0.000 OA
ATOM     22  N   UNL     1       7.473   8.065  17.977  0.00  0.00    +0.000 N 
ATOM     23  H   UNL     1       7.657   7.717  18.923  0.00  0.00    +0.000 HD
BRANCH  22  24
ATOM     24  C   UNL     1       8.198   9.236  17.533  0.00  0.00    +0.000 C 
BRANCH  24  25
ATOM     25  C   UNL     1       8.950   9.913  18.679  0.00  0.00    +0.000 C 
BRANCH  25  26
ATOM     26  C   UNL     1       9.604  11.197  18.243  0.00  0.00    +0.000 A 
ATOM     27  C   UNL     1      10.999  11.269  18.124  0.00  0.00    +0.000 A 
ATOM     28  C   UNL     1      11.613  12.461  17.742  0.00  0.00    +0.000 A 
ATOM     29  C   UNL     1      10.839  13.590  17.475  0.00  0.00    +0.000 A 
ATOM     30  C   UNL     1       9.451  13.526  17.591  0.00  0.00    +0.000 A 
ATOM     31  C   UNL     1       8.834  12.335  17.974  0.00  0.00    +0.000 A 
ENDBRANCH  25  26
ENDBRANCH  24  25
ENDBRANCH  22  24
ENDBRANCH   1  20
BRANCH   1  33
ATOM     32  N   UNL     1       7.491   3.889  18.094  0.00  0.00    +0.000 NA
ATOM     33  C   UNL     1       6.784   4.924  17.955  0.00  0.00    +0.000 C 
ENDBRANCH   1  33
TORSDOF 6
ENDMDL
MODEL 5
REMARK VINA RESULT:      -7.2      3.545      6.942
REMARK  Name = 
REMARK  6 active torsions:
REMARK  status: ('A' for Active; 'I' for Inactive)
REMARK    1  A    between atoms: C_2  and  C_3
REMARK    2  A    between atoms: C_3  and  C_4
REMARK    3  A    between atoms: N_6  and  C_7
REMARK    4  A    between atoms: C_7  and  C_8
REMARK    5  A    between atoms: C_8  and  C_9
REMARK    6  A    between atoms: C_19  and  C_21
REMARK                            x       y       z     vdW  Elec       q    Type
REMARK                         _______ _______ _______ _____ _____    ______ ____
ROOT
ATOM      1  C   UNL     1       1.920   7.897  19.427  0.00  0.00    +0.000 C 
ATOM      2  C   UNL     1       1.458   9.070  19.915  0.00  0.00    +0.000 C 
ATOM      3  N   UNL     1       1.724  10.296  19.308  0.00  0.00    +0.000 NA
ATOM      4  C   UNL     1       1.138  11.218  20.004  0.00  0.00    +0.000 C 
ATOM      5  N   UNL     1       1.167  12.560  19.721  0.00  0.00    +0.000 N 
ATOM      6  C   UNL     1       1.827  13.154  18.646  0.00  0.00    +0.000 C 
ATOM      7  O   UNL     1       2.519  12.532  17.845  0.00  0.00    +0.000 OA
ATOM      8  C   UNL     1       0.414  10.697  21.155  0.00  0.00    +0.000 A 
ATOM      9  C   UNL     1      -0.338  11.321  22.136  0.00  0.00    +0.000 A 
ATOM     10  C   UNL     1      -0.901  10.509  23.122  0.00  0.00    +0.000 A 
ATOM     11  C   UNL     1      -0.696   9.120  23.104  0.00  0.00    +0.000 A 
ATOM     12  C   UNL     1       0.069   8.517  22.098  0.00  0.00    +0.000 A 
ATOM     13  C   UNL     1       0.624   9.315  21.111  0.00  0.00    +0.000 A 
ATOM     14  H   UNL     1       0.656  13.191  20.319  0.00  0.00    +0.000 HD
ENDROOT
BRANCH   6  15
ATOM     15  C   UNL     1       1.642  14.603  18.529  0.00  0.00    +0.000 A 
ATOM     16  C   UNL     1       2.577  15.523  18.083  0.00  0.00    +0.000 A 
ATOM     17  C   UNL     1       2.073  16.855  18.059  0.00  0.00    +0.000 A 
ATOM     18  C   UNL     1       0.769  16.917  18.495  0.00  0.00    +0.000 A 
ATOM     19  S   UNL     1       0.167  15.379  18.936  0.00  0.00    +0.000 S 
ENDBRANCH   6  15
BRANCH   1  20
ATOM     20  C   UNL     1       2.784   7.787  18.206  0.00  0.00    +0.000 C 
ATOM     21  O   UNL     1       2.649   8.585  17.284  0.00  0.00    +0.000 OA
ATOM     22  N   UNL     1       3.715   6.784  18.187  0.00  0.00    +0.000 N 
ATOM     23  H   UNL     1       3.719   6.108  18.957  0.00  0.00    +0.000 HD
BRANCH  22  24
ATOM     24  C   UNL     1       4.634   6.566  17.091  0.00  0.00    +0.000 C 
BRANCH  24  25
ATOM     25  C   UNL     1       4.645   5.107  16.634  0.00  0.00    +0.000 C 
BRANCH  25  26
ATOM     26  C   UNL     1       3.879   4.216  17.575  0.00  0.00    +0.000 A 
ATOM     27  C   UNL     1       4.509   3.691  18.712  0.00  0.00    +0.000 A 
ATOM     28  C   UNL     1       3.812   2.848  19.577  0.00  0.00    +0.000 A 
ATOM     29  C   UNL     1       2.482   2.522  19.313  0.00  0.00    +0.000 A 
ATOM     30  C   UNL     1       1.850   3.041  18.184  0.00  0.00    +0.000 A 
ATOM     31  C   UNL     1       2.544   3.884  17.317  0.00  0.00    +0.000 A 
ENDBRANCH  25  26
ENDBRANCH  24  25
ENDBRANCH  22  24
ENDBRANCH   1  20
BRANCH   1  33
ATOM     32  N   UNL     1       1.368   5.495  20.715  0.00  0.00    +0.000 NA
ATOM     33  C   UNL     1       1.618   6.584  20.131  0.00  0.00    +0.000 C 
ENDBRANCH   1  33
TORSDOF 6
ENDMDL
MODEL 6
REMARK VINA RESULT:      -7.1      4.721      8.449
REMARK  Name = 
REMARK  6 active torsions:
REMARK  status: ('A' for Active; 'I' for Inactive)
REMARK    1  A    between atoms: C_2  and  C_3
REMARK    2  A    between atoms: C_3  and  C_4
REMARK    3  A    between atoms: N_6  and  C_7
REMARK    4  A    between atoms: C_7  and  C_8
REMARK    5  A    between atoms: C_8  and  C_9
REMARK    6  A    between atoms: C_19  and  C_21
REMARK                            x       y       z     vdW  Elec       q    Type
REMARK                         _______ _______ _______ _____ _____    ______ ____
ROOT
ATOM      1  C   UNL     1      -1.625  10.688  18.123  0.00  0.00    +0.000 C 
ATOM      2  C   UNL     1      -2.473  11.440  18.861  0.00  0.00    +0.000 C 
ATOM      3  N   UNL     1      -2.091  12.056  20.051  0.00  0.00    +0.000 NA
ATOM      4  C   UNL     1      -3.116  12.705  20.507  0.00  0.00    +0.000 C 
ATOM      5  N   UNL     1      -3.133  13.443  21.663  0.00  0.00    +0.000 N 
ATOM      6  C   UNL     1      -2.060  13.619  22.537  0.00  0.00    +0.000 C 
ATOM      7  O   UNL     1      -0.969  13.073  22.392  0.00  0.00    +0.000 OA
ATOM      8  C   UNL     1      -4.295  12.587  19.660  0.00  0.00    +0.000 A 
ATOM      9  C   UNL     1      -5.570  13.113  19.771  0.00  0.00    +0.000 A 
ATOM     10  C   UNL     1      -6.483  12.789  18.767  0.00  0.00    +0.000 A 
ATOM     11  C   UNL     1      -6.105  11.957  17.701  0.00  0.00    +0.000 A 
ATOM     12  C   UNL     1      -4.807  11.440  17.615  0.00  0.00    +0.000 A 
ATOM     13  C   UNL     1      -3.891  11.765  18.604  0.00  0.00    +0.000 A 
ATOM     14  H   UNL     1      -3.980  13.927  21.915  0.00  0.00    +0.000 HD
ENDROOT
BRANCH   6  15
ATOM     15  C   UNL     1      -2.320  14.514  23.667  0.00  0.00    +0.000 A 
ATOM     16  C   UNL     1      -1.411  14.915  24.632  0.00  0.00    +0.000 A 
ATOM     17  C   UNL     1      -1.973  15.818  25.580  0.00  0.00    +0.000 A 
ATOM     18  C   UNL     1      -3.299  16.077  25.316  0.00  0.00    +0.000 A 
ATOM     19  S   UNL     1      -3.857  15.227  23.942  0.00  0.00    +0.000 S 
ENDBRANCH   6  15
BRANCH   1  20
ATOM     20  C   UNL     1      -0.202  10.415  18.512  0.00  0.00    +0.000 C 
ATOM     21  O   UNL     1       0.230  10.820  19.587  0.00  0.00    +0.000 OA
ATOM     22  N   UNL     1       0.559   9.695  17.632  0.00  0.00    +0.000 N 
ATOM     23  H   UNL     1       0.156   9.456  16.721  0.00  0.00    +0.000 HD
BRANCH  22  24
ATOM     24  C   UNL     1       1.939   9.334  17.877  0.00  0.00    +0.000 C 
BRANCH  24  25
ATOM     25  C   UNL     1       2.059   8.123  18.803  0.00  0.00    +0.000 C 
BRANCH  25  26
ATOM     26  C   UNL     1       2.798   6.985  18.150  0.00  0.00    +0.000 A 
ATOM     27  C   UNL     1       2.316   5.675  18.269  0.00  0.00    +0.000 A 
ATOM     28  C   UNL     1       3.006   4.614  17.686  0.00  0.00    +0.000 A 
ATOM     29  C   UNL     1       4.185   4.854  16.979  0.00  0.00    +0.000 A 
ATOM     30  C   UNL     1       4.670   6.154  16.857  0.00  0.00    +0.000 A 
ATOM     31  C   UNL     1       3.982   7.218  17.440  0.00  0.00    +0.000 A 
ENDBRANCH  25  26
ENDBRANCH  24  25
ENDBRANCH  22  24
ENDBRANCH   1  20
BRANCH   1  33
ATOM     32  N   UNL     1      -2.473   9.466  15.774  0.00  0.00    +0.000 NA
ATOM     33  C   UNL     1      -2.088  10.020  16.839  0.00  0.00    +0.000 C 
ENDBRANCH   1  33
TORSDOF 6
ENDMDL
MODEL 7
REMARK VINA RESULT:      -7.1      4.887      8.636
REMARK  Name = 
REMARK  6 active torsions:
REMARK  status: ('A' for Active; 'I' for Inactive)
REMARK    1  A    between atoms: C_2  and  C_3
REMARK    2  A    between atoms: C_3  and  C_4
REMARK    3  A    between atoms: N_6  and  C_7
REMARK    4  A    between atoms: C_7  and  C_8
REMARK    5  A    between atoms: C_8  and  C_9
REMARK    6  A    between atoms: C_19  and  C_21
REMARK                            x       y       z     vdW  Elec       q    Type
REMARK                         _______ _______ _______ _____ _____    ______ ____
ROOT
ATOM      1  C   UNL     1      -1.694  10.559  18.195  0.00  0.00    +0.000 C 
ATOM      2  C   UNL     1      -2.462  11.385  18.941  0.00  0.00    +0.000 C 
ATOM      3  N   UNL     1      -2.020  11.948  20.137  0.00  0.00    +0.000 NA
ATOM      4  C   UNL     1      -2.973  12.692  20.601  0.00  0.00    +0.000 C 
ATOM      5  N   UNL     1      -2.916  13.416  21.764  0.00  0.00    +0.000 N 
ATOM      6  C   UNL     1      -1.831  13.474  22.638  0.00  0.00    +0.000 C 
ATOM      7  O   UNL     1      -0.801  12.822  22.487  0.00  0.00    +0.000 OA
ATOM      8  C   UNL     1      -4.158  12.702  19.754  0.00  0.00    +0.000 A 
ATOM      9  C   UNL     1      -5.375  13.352  19.872  0.00  0.00    +0.000 A 
ATOM     10  C   UNL     1      -6.316  13.132  18.866  0.00  0.00    +0.000 A 
ATOM     11  C   UNL     1      -6.023  12.277  17.791  0.00  0.00    +0.000 A 
ATOM     12  C   UNL     1      -4.784  11.633  17.698  0.00  0.00    +0.000 A 
ATOM     13  C   UNL     1      -3.840  11.854  18.689  0.00  0.00    +0.000 A 
ATOM     14  H   UNL     1      -3.710  13.981  22.021  0.00  0.00    +0.000 HD
ENDROOT
BRANCH   6  15
ATOM     15  C   UNL     1      -2.000  14.380  23.777  0.00  0.00    +0.000 A 
ATOM     16  C   UNL     1      -3.030  14.363  24.703  0.00  0.00    +0.000 A 
ATOM     17  C   UNL     1      -2.884  15.360  25.710  0.00  0.00    +0.000 A 
ATOM     18  C   UNL     1      -1.750  16.116  25.522  0.00  0.00    +0.000 A 
ATOM     19  S   UNL     1      -0.877  15.628  24.135  0.00  0.00    +0.000 S 
ENDBRANCH   6  15
BRANCH   1  20
ATOM     20  C   UNL     1      -0.306  10.140  18.580  0.00  0.00    +0.000 C 
ATOM     21  O   UNL     1       0.583  10.110  17.735  0.00  0.00    +0.000 OA
ATOM     22  N   UNL     1      -0.091   9.818  19.893  0.00  0.00    +0.000 N 
ATOM     23  H   UNL     1      -0.897   9.792  20.526  0.00  0.00    +0.000 HD
BRANCH  22  24
ATOM     24  C   UNL     1       1.196   9.418  20.418  0.00  0.00    +0.000 C 
BRANCH  24  25
ATOM     25  C   UNL     1       1.150   8.027  21.051  0.00  0.00    +0.000 C 
BRANCH  25  26
ATOM     26  C   UNL     1       1.808   6.989  20.180  0.00  0.00    +0.000 A 
ATOM     27  C   UNL     1       2.395   7.365  18.964  0.00  0.00    +0.000 A 
ATOM     28  C   UNL     1       2.986   6.407  18.142  0.00  0.00    +0.000 A 
ATOM     29  C   UNL     1       2.996   5.067  18.528  0.00  0.00    +0.000 A 
ATOM     30  C   UNL     1       2.414   4.686  19.736  0.00  0.00    +0.000 A 
ATOM     31  C   UNL     1       1.820   5.643  20.560  0.00  0.00    +0.000 A 
ENDBRANCH  25  26
ENDBRANCH  24  25
ENDBRANCH  22  24
ENDBRANCH   1  20
BRANCH   1  33
ATOM     32  N   UNL     1      -2.661   9.452  15.834  0.00  0.00    +0.000 NA
ATOM     33  C   UNL     1      -2.222   9.954  16.905  0.00  0.00    +0.000 C 
ENDBRANCH   1  33
TORSDOF 6
ENDMDL
MODEL 8
REMARK VINA RESULT:      -7.1      4.631      8.411
REMARK  Name = 
REMARK  6 active torsions:
REMARK  status: ('A' for Active; 'I' for Inactive)
REMARK    1  A    between atoms: C_2  and  C_3
REMARK    2  A    between atoms: C_3  and  C_4
REMARK    3  A    between atoms: N_6  and  C_7
REMARK    4  A    between atoms: C_7  and  C_8
REMARK    5  A    between atoms: C_8  and  C_9
REMARK    6  A    between atoms: C_19  and  C_21
REMARK                            x       y       z     vdW  Elec       q    Type
REMARK                         _______ _______ _______ _____ _____    ______ ____
ROOT
ATOM      1  C   UNL     1      -1.630  10.843  17.981  0.00  0.00    +0.000 C 
ATOM      2  C   UNL     1      -2.445  11.506  18.832  0.00  0.00    +0.000 C 
ATOM      3  N   UNL     1      -1.985  12.103  20.004  0.00  0.00    +0.000 NA
ATOM      4  C   UNL     1      -2.998  12.662  20.587  0.00  0.00    +0.000 C 
ATOM      5  N   UNL     1      -2.945  13.353  21.771  0.00  0.00    +0.000 N 
ATOM      6  C   UNL     1      -1.803  13.570  22.540  0.00  0.00    +0.000 C 
ATOM      7  O   UNL     1      -0.699  13.107  22.265  0.00  0.00    +0.000 OA
ATOM      8  C   UNL     1      -4.247  12.495  19.857  0.00  0.00    +0.000 A 
ATOM      9  C   UNL     1      -5.536  12.927  20.117  0.00  0.00    +0.000 A 
ATOM     10  C   UNL     1      -6.524  12.578  19.195  0.00  0.00    +0.000 A 
ATOM     11  C   UNL     1      -6.203  11.815  18.061  0.00  0.00    +0.000 A 
ATOM     12  C   UNL     1      -4.889  11.392  17.824  0.00  0.00    +0.000 A 
ATOM     13  C   UNL     1      -3.901  11.742  18.730  0.00  0.00    +0.000 A 
ATOM     14  H   UNL     1      -3.792  13.769  22.126  0.00  0.00    +0.000 HD
ENDROOT
BRANCH   6  15
ATOM     15  C   UNL     1      -2.004  14.403  23.729  0.00  0.00    +0.000 A 
ATOM     16  C   UNL     1      -3.052  14.319  24.631  0.00  0.00    +0.000 A 
ATOM     17  C   UNL     1      -2.938  15.255  25.700  0.00  0.00    +0.000 A 
ATOM     18  C   UNL     1      -1.809  16.033  25.580  0.00  0.00    +0.000 A 
ATOM     19  S   UNL     1      -0.905  15.640  24.183  0.00  0.00    +0.000 S 
ENDBRANCH   6  15
BRANCH   1  20
ATOM     20  C   UNL     1      -0.161  10.654  18.215  0.00  0.00    +0.000 C 
ATOM     21  O   UNL     1       0.465  11.469  18.885  0.00  0.00    +0.000 OA
ATOM     22  N   UNL     1       0.422   9.542  17.667  0.00  0.00    +0.000 N 
ATOM     23  H   UNL     1      -0.145   8.947  17.056  0.00  0.00    +0.000 HD
BRANCH  22  24
ATOM     24  C   UNL     1       1.822   9.214  17.825  0.00  0.00    +0.000 C 
BRANCH  24  25
ATOM     25  C   UNL     1       2.036   8.088  18.838  0.00  0.00    +0.000 C 
BRANCH  25  26
ATOM     26  C   UNL     1       2.777   6.923  18.237  0.00  0.00    +0.000 A 
ATOM     27  C   UNL     1       3.931   7.144  17.472  0.00  0.00    +0.000 A 
ATOM     28  C   UNL     1       4.609   6.072  16.895  0.00  0.00    +0.000 A 
ATOM     29  C   UNL     1       4.140   4.771  17.075  0.00  0.00    +0.000 A 
ATOM     30  C   UNL     1       2.994   4.544  17.834  0.00  0.00    +0.000 A 
ATOM     31  C   UNL     1       2.312   5.615  18.412  0.00  0.00    +0.000 A 
ENDBRANCH  25  26
ENDBRANCH  24  25
ENDBRANCH  22  24
ENDBRANCH   1  20
BRANCH   1  33
ATOM     32  N   UNL     1      -2.632   9.653  15.676  0.00  0.00    +0.000 NA
ATOM     33  C   UNL     1      -2.177  10.192  16.721  0.00  0.00    +0.000 C 
ENDBRANCH   1  33
TORSDOF 6
ENDMDL
MODEL 9
REMARK VINA RESULT:      -7.0      4.516      8.356
REMARK  Name = 
REMARK  6 active torsions:
REMARK  status: ('A' for Active; 'I' for Inactive)
REMARK    1  A    between atoms: C_2  and  C_3
REMARK    2  A    between atoms: C_3  and  C_4
REMARK    3  A    between atoms: N_6  and  C_7
REMARK    4  A    between atoms: C_7  and  C_8
REMARK    5  A    between atoms: C_8  and  C_9
REMARK    6  A    between atoms: C_19  and  C_21
REMARK                            x       y       z     vdW  Elec       q    Type
REMARK                         _______ _______ _______ _____ _____    ______ ____
ROOT
ATOM      1  C   UNL     1      -1.306  10.762  18.228  0.00  0.00    +0.000 C 
ATOM      2  C   UNL     1      -2.019  11.567  19.047  0.00  0.00    +0.000 C 
ATOM      3  N   UNL     1      -1.452  12.222  20.139  0.00  0.00    +0.000 NA
ATOM      4  C   UNL     1      -2.383  12.918  20.711  0.00  0.00    +0.000 C 
ATOM      5  N   UNL     1      -2.213  13.704  21.822  0.00  0.00    +0.000 N 
ATOM      6  C   UNL     1      -1.019  13.887  22.518  0.00  0.00    +0.000 C 
ATOM      7  O   UNL     1       0.026  13.305  22.240  0.00  0.00    +0.000 OA
ATOM      8  C   UNL     1      -3.677  12.797  20.053  0.00  0.00    +0.000 A 
ATOM      9  C   UNL     1      -4.911  13.363  20.326  0.00  0.00    +0.000 A 
ATOM     10  C   UNL     1      -5.969  13.022  19.484  0.00  0.00    +0.000 A 
ATOM     11  C   UNL     1      -5.771  12.136  18.412  0.00  0.00    +0.000 A 
ATOM     12  C   UNL     1      -4.511  11.580  18.160  0.00  0.00    +0.000 A 
ATOM     13  C   UNL     1      -3.452  11.921  18.987  0.00  0.00    +0.000 A 
ATOM     14  H   UNL     1      -3.003  14.222  22.173  0.00  0.00    +0.000 HD
ENDROOT
BRANCH   6  15
ATOM     15  C   UNL     1      -1.090  14.836  23.632  0.00  0.00    +0.000 A 
ATOM     16  C   UNL     1      -1.874  14.722  24.768  0.00  0.00    +0.000 A 
ATOM     17  C   UNL     1      -1.687  15.802  25.679  0.00  0.00    +0.000 A 
ATOM     18  C   UNL     1      -0.771  16.715  25.210  0.00  0.00    +0.000 A 
ATOM     19  S   UNL     1      -0.151  16.272  23.679  0.00  0.00    +0.000 S 
ENDBRANCH   6  15
BRANCH   1  20
ATOM     20  C   UNL     1       0.152  10.466  18.415  0.00  0.00    +0.000 C 
ATOM     21  O   UNL     1       0.813  11.114  19.220  0.00  0.00    +0.000 OA
ATOM     22  N   UNL     1       0.685   9.449  17.669  0.00  0.00    +0.000 N 
ATOM     23  H   UNL     1       0.093   9.002  16.962  0.00  0.00    +0.000 HD
BRANCH  22  24
ATOM     24  C   UNL     1       2.068   9.032  17.756  0.00  0.00    +0.000 C 
BRANCH  24  25
ATOM     25  C   UNL     1       2.261   7.891  18.755  0.00  0.00    +0.000 C 
BRANCH  25  26
ATOM     26  C   UNL     1       2.896   6.685  18.116  0.00  0.00    +0.000 A 
ATOM     27  C   UNL     1       2.254   5.440  18.173  0.00  0.00    +0.000 A 
ATOM     28  C   UNL     1       2.846   4.315  17.602  0.00  0.00    +0.000 A 
ATOM     29  C   UNL     1       4.085   4.423  16.972  0.00  0.00    +0.000 A 
ATOM     30  C   UNL     1       4.730   5.657  16.911  0.00  0.00    +0.000 A 
ATOM     31  C   UNL     1       4.140   6.785  17.482  0.00  0.00    +0.000 A 
ENDBRANCH  25  26
ENDBRANCH  24  25
ENDBRANCH  22  24
ENDBRANCH   1  20
BRANCH   1  33
ATOM     32  N   UNL     1      -2.519   9.466  16.087  0.00  0.00    +0.000 NA
ATOM     33  C   UNL     1      -1.969  10.054  17.058  0.00  0.00    +0.000 C 
ENDBRANCH   1  33
TORSDOF 6
ENDMDL
