MODEL 1
REMARK VINA RESULT:      -8.0      0.000      0.000
REMARK  Name = 
REMARK  6 active torsions:
REMARK  status: ('A' for Active; 'I' for Inactive)
REMARK    1  A    between atoms: C_1  and  C_2
REMARK    2  A    between atoms: C_2  and  C_3
REMARK    3  A    between atoms: N_5  and  S_6
REMARK    4  A    between atoms: S_6  and  C_9
REMARK    5  A    between atoms: C_19  and  C_21
REMARK    6  A    between atoms: C_21  and  C_22
REMARK                            x       y       z     vdW  Elec       q    Type
REMARK                         _______ _______ _______ _____ _____    ______ ____
ROOT
ATOM      1  C   UNL     1       6.258   4.676  18.909  0.00  0.00    +0.000 C 
ATOM      2  O   UNL     1       6.346   4.977  20.094  0.00  0.00    +0.000 OA
ATOM      3  N   UNL     1       5.410   3.644  18.466  0.00  0.00    +0.000 N 
ATOM      4  H   UNL     1       5.312   3.420  17.479  0.00  0.00    +0.000 HD
ENDROOT
BRANCH   1   6
ATOM      5  C   UNL     1       8.065   4.372  17.019  0.00  0.00    +0.000 C 
ATOM      6  C   UNL     1       7.116   5.331  17.733  0.00  0.00    +0.000 C 
ATOM      7  C   UNL     1       7.825   6.666  18.112  0.00  0.00    +0.000 C 
ATOM      8  C   UNL     1       6.662   7.411  17.453  0.00  0.00    +0.000 C 
ATOM      9  N   UNL     1       6.361   6.159  16.779  0.00  0.00    +0.000 N 
ATOM     10  C   UNL     1       5.489   5.969  15.743  0.00  0.00    +0.000 C 
ATOM     11  O   UNL     1       4.987   6.939  15.166  0.00  0.00    +0.000 OA
BRANCH  10  12
ATOM     12  C   UNL     1       5.150   4.549  15.321  0.00  0.00    +0.000 C 
BRANCH  12  13
ATOM     13  C   UNL     1       5.731   4.231  13.968  0.00  0.00    +0.000 A 
ATOM     14  C   UNL     1       5.201   3.439  12.965  0.00  0.00    +0.000 A 
ATOM     15  C   UNL     1       6.065   3.329  11.836  0.00  0.00    +0.000 A 
ATOM     16  C   UNL     1       7.233   4.035  12.014  0.00  0.00    +0.000 A 
ATOM     17  S   UNL     1       7.283   4.817  13.532  0.00  0.00    +0.000 S 
ENDBRANCH  12  13
ENDBRANCH  10  12
ENDBRANCH   1   6
BRANCH   3  18
ATOM     18  S   UNL     1       4.222   2.916  19.385  0.00  0.00    +0.000 S 
ATOM     19  O   UNL     1       3.459   2.011  18.557  0.00  0.00    +0.000 OA
ATOM     20  O   UNL     1       4.893   2.407  20.566  0.00  0.00    +0.000 OA
BRANCH  18  21
ATOM     21  C   UNL     1       3.183   4.262  19.882  0.00  0.00    +0.000 A 
ATOM     22  C   UNL     1       3.379   5.514  19.279  0.00  0.00    +0.000 A 
ATOM     23  C   UNL     1       2.506   6.572  19.549  0.00  0.00    +0.000 A 
ATOM     24  C   UNL     1       1.429   6.382  20.412  0.00  0.00    +0.000 A 
ATOM     25  C   UNL     1       1.238   5.142  21.022  0.00  0.00    +0.000 A 
ATOM     26  C   UNL     1       2.118   4.079  20.769  0.00  0.00    +0.000 A 
ATOM     27 CL   UNL     1       1.827   2.618  21.643  0.00  0.00    +0.000 Cl
ENDBRANCH  18  21
ENDBRANCH   3  18
TORSDOF 5
ENDMDL
MODEL 2
REMARK VINA RESULT:      -7.8      1.158      1.357
REMARK  Name = 
REMARK  6 active torsions:
REMARK  status: ('A' for Active; 'I' for Inactive)
REMARK    1  A    between atoms: C_1  and  C_2
REMARK    2  A    between atoms: C_2  and  C_3
REMARK    3  A    between atoms: N_5  and  S_6
REMARK    4  A    between atoms: S_6  and  C_9
REMARK    5  A    between atoms: C_19  and  C_21
REMARK    6  A    between atoms: C_21  and  C_22
REMARK                            x       y       z     vdW  Elec       q    Type
REMARK                         _______ _______ _______ _____ _____    ______ ____
ROOT
ATOM      1  C   UNL     1       5.877   4.686  18.994  0.00  0.00    +0.000 C 
ATOM      2  O   UNL     1       5.440   5.295  19.964  0.00  0.00    +0.000 OA
ATOM      3  N   UNL     1       5.585   3.326  18.778  0.00  0.00    +0.000 N 
ATOM      4  H   UNL     1       5.920   2.833  17.954  0.00  0.00    +0.000 HD
ENDROOT
BRANCH   1   6
ATOM      5  C   UNL     1       7.866   4.299  17.314  0.00  0.00    +0.000 C 
ATOM      6  C   UNL     1       6.870   5.295  17.904  0.00  0.00    +0.000 C 
ATOM      7  C   UNL     1       7.568   6.622  18.329  0.00  0.00    +0.000 C 
ATOM      8  C   UNL     1       6.501   7.378  17.536  0.00  0.00    +0.000 C 
ATOM      9  N   UNL     1       6.241   6.118  16.858  0.00  0.00    +0.000 N 
ATOM     10  C   UNL     1       5.479   5.925  15.740  0.00  0.00    +0.000 C 
ATOM     11  O   UNL     1       5.066   6.893  15.093  0.00  0.00    +0.000 OA
BRANCH  10  12
ATOM     12  C   UNL     1       5.152   4.504  15.311  0.00  0.00    +0.000 C 
BRANCH  12  13
ATOM     13  C   UNL     1       5.738   4.195  13.959  0.00  0.00    +0.000 A 
ATOM     14  C   UNL     1       5.193   3.446  12.932  0.00  0.00    +0.000 A 
ATOM     15  C   UNL     1       6.066   3.330  11.811  0.00  0.00    +0.000 A 
ATOM     16  C   UNL     1       7.256   3.988  12.018  0.00  0.00    +0.000 A 
ATOM     17  S   UNL     1       7.316   4.733  13.554  0.00  0.00    +0.000 S 
ENDBRANCH  12  13
ENDBRANCH  10  12
ENDBRANCH   1   6
BRANCH   3  18
ATOM     18  S   UNL     1       4.413   2.455  19.587  0.00  0.00    +0.000 S 
ATOM     19  O   UNL     1       4.012   1.324  18.782  0.00  0.00    +0.000 OA
ATOM     20  O   UNL     1       4.937   2.230  20.920  0.00  0.00    +0.000 OA
BRANCH  18  21
ATOM     21  C   UNL     1       3.055   3.585  19.714  0.00  0.00    +0.000 A 
ATOM     22  C   UNL     1       2.743   4.114  20.977  0.00  0.00    +0.000 A 
ATOM     23  C   UNL     1       1.760   5.100  21.105  0.00  0.00    +0.000 A 
ATOM     24  C   UNL     1       1.094   5.569  19.976  0.00  0.00    +0.000 A 
ATOM     25  C   UNL     1       1.393   5.037  18.722  0.00  0.00    +0.000 A 
ATOM     26  C   UNL     1       2.366   4.037  18.584  0.00  0.00    +0.000 A 
ATOM     27 CL   UNL     1       2.593   3.399  16.995  0.00  0.00    +0.000 Cl
ENDBRANCH  18  21
ENDBRANCH   3  18
TORSDOF 5
ENDMDL
MODEL 3
REMARK VINA RESULT:      -7.7      3.083      7.181
REMARK  Name = 
REMARK  6 active torsions:
REMARK  status: ('A' for Active; 'I' for Inactive)
REMARK    1  A    between atoms: C_1  and  C_2
REMARK    2  A    between atoms: C_2  and  C_3
REMARK    3  A    between atoms: N_5  and  S_6
REMARK    4  A    between atoms: S_6  and  C_9
REMARK    5  A    between atoms: C_19  and  C_21
REMARK    6  A    between atoms: C_21  and  C_22
REMARK                            x       y       z     vdW  Elec       q    Type
REMARK                         _______ _______ _______ _____ _____    ______ ____
ROOT
ATOM      1  C   UNL     1       5.199   4.239  18.177  0.00  0.00    +0.000 C 
ATOM      2  O   UNL     1       5.554   5.228  18.807  0.00  0.00    +0.000 OA
ATOM      3  N   UNL     1       5.542   4.057  16.824  0.00  0.00    +0.000 N 
ATOM      4  H   UNL     1       5.276   3.218  16.314  0.00  0.00    +0.000 HD
ENDROOT
BRANCH   1   6
ATOM      5  C   UNL     1       4.652   2.558  20.128  0.00  0.00    +0.000 C 
ATOM      6  C   UNL     1       4.261   3.080  18.747  0.00  0.00    +0.000 C 
ATOM      7  C   UNL     1       3.986   1.915  17.749  0.00  0.00    +0.000 C 
ATOM      8  C   UNL     1       2.658   2.592  17.404  0.00  0.00    +0.000 C 
ATOM      9  N   UNL     1       2.813   3.326  18.649  0.00  0.00    +0.000 N 
ATOM     10  C   UNL     1       1.873   4.097  19.275  0.00  0.00    +0.000 C 
ATOM     11  O   UNL     1       0.701   4.089  18.884  0.00  0.00    +0.000 OA
BRANCH  10  12
ATOM     12  C   UNL     1       2.296   4.959  20.453  0.00  0.00    +0.000 C 
BRANCH  12  13
ATOM     13  C   UNL     1       2.046   6.418  20.175  0.00  0.00    +0.000 A 
ATOM     14  C   UNL     1       1.400   7.349  20.968  0.00  0.00    +0.000 A 
ATOM     15  C   UNL     1       1.310   8.631  20.350  0.00  0.00    +0.000 A 
ATOM     16  C   UNL     1       1.883   8.638  19.099  0.00  0.00    +0.000 A 
ATOM     17  S   UNL     1       2.519   7.110  18.678  0.00  0.00    +0.000 S 
ENDBRANCH  12  13
ENDBRANCH  10  12
ENDBRANCH   1   6
BRANCH   3  18
ATOM     18  S   UNL     1       6.684   4.948  15.995  0.00  0.00    +0.000 S 
ATOM     19  O   UNL     1       6.324   6.346  16.033  0.00  0.00    +0.000 OA
ATOM     20  O   UNL     1       7.970   4.529  16.518  0.00  0.00    +0.000 OA
BRANCH  18  21
ATOM     21  C   UNL     1       6.552   4.362  14.328  0.00  0.00    +0.000 A 
ATOM     22  C   UNL     1       5.497   3.493  14.007  0.00  0.00    +0.000 A 
ATOM     23  C   UNL     1       5.282   3.103  12.682  0.00  0.00    +0.000 A 
ATOM     24  C   UNL     1       6.110   3.586  11.672  0.00  0.00    +0.000 A 
ATOM     25  C   UNL     1       7.167   4.440  11.989  0.00  0.00    +0.000 A 
ATOM     26  C   UNL     1       7.400   4.824  13.317  0.00  0.00    +0.000 A 
ATOM     27 CL   UNL     1       8.784   5.820  13.596  0.00  0.00    +0.000 Cl
ENDBRANCH  18  21
ENDBRANCH   3  18
TORSDOF 5
ENDMDL
MODEL 4
REMARK VINA RESULT:      -7.6      3.285      6.974
REMARK  Name = 
REMARK  6 active torsions:
REMARK  status: ('A' for Active; 'I' for Inactive)
REMARK    1  A    between atoms: C_1  and  C_2
REMARK    2  A    between atoms: C_2  and  C_3
REMARK    3  A    between atoms: N_5  and  S_6
REMARK    4  A    between atoms: S_6  and  C_9
REMARK    5  A    between atoms: C_19  and  C_21
REMARK    6  A    between atoms: C_21  and  C_22
REMARK                            x       y       z     vdW  Elec       q    Type
REMARK                         _______ _______ _______ _____ _____    ______ ____
ROOT
ATOM      1  C   UNL     1       5.554   4.126  18.275  0.00  0.00    +0.000 C 
ATOM      2  O   UNL     1       6.482   4.405  19.027  0.00  0.00    +0.000 OA
ATOM      3  N   UNL     1       5.561   4.498  16.918  0.00  0.00    +0.000 N 
ATOM      4  H   UNL     1       4.807   4.235  16.288  0.00  0.00    +0.000 HD
ENDROOT
BRANCH   1   6
ATOM      5  C   UNL     1       4.084   3.124  20.215  0.00  0.00    +0.000 C 
ATOM      6  C   UNL     1       4.208   3.392  18.717  0.00  0.00    +0.000 C 
ATOM      7  C   UNL     1       3.849   2.131  17.875  0.00  0.00    +0.000 C 
ATOM      8  C   UNL     1       2.903   3.010  17.055  0.00  0.00    +0.000 C 
ATOM      9  N   UNL     1       2.965   3.951  18.161  0.00  0.00    +0.000 N 
ATOM     10  C   UNL     1       2.173   5.049  18.355  0.00  0.00    +0.000 C 
ATOM     11  O   UNL     1       1.181   5.235  17.643  0.00  0.00    +0.000 OA
BRANCH  10  12
ATOM     12  C   UNL     1       2.537   6.031  19.456  0.00  0.00    +0.000 C 
BRANCH  12  13
ATOM     13  C   UNL     1       2.161   7.439  19.075  0.00  0.00    +0.000 A 
ATOM     14  C   UNL     1       2.447   8.123  17.908  0.00  0.00    +0.000 A 
ATOM     15  C   UNL     1       1.967   9.465  17.925  0.00  0.00    +0.000 A 
ATOM     16  C   UNL     1       1.335   9.769  19.109  0.00  0.00    +0.000 A 
ATOM     17  S   UNL     1       1.329   8.445  20.188  0.00  0.00    +0.000 S 
ENDBRANCH  12  13
ENDBRANCH  10  12
ENDBRANCH   1   6
BRANCH   3  18
ATOM     18  S   UNL     1       6.891   5.068  16.085  0.00  0.00    +0.000 S 
ATOM     19  O   UNL     1       6.871   6.513  16.076  0.00  0.00    +0.000 OA
ATOM     20  O   UNL     1       8.035   4.374  16.644  0.00  0.00    +0.000 OA
BRANCH  18  21
ATOM     21  C   UNL     1       6.643   4.477  14.433  0.00  0.00    +0.000 A 
ATOM     22  C   UNL     1       5.525   3.668  14.174  0.00  0.00    +0.000 A 
ATOM     23  C   UNL     1       5.224   3.280  12.865  0.00  0.00    +0.000 A 
ATOM     24  C   UNL     1       6.027   3.706  11.811  0.00  0.00    +0.000 A 
ATOM     25  C   UNL     1       7.146   4.499  12.066  0.00  0.00    +0.000 A 
ATOM     26  C   UNL     1       7.466   4.881  13.377  0.00  0.00    +0.000 A 
ATOM     27 CL   UNL     1       8.917   5.796  13.578  0.00  0.00    +0.000 Cl
ENDBRANCH  18  21
ENDBRANCH   3  18
TORSDOF 5
ENDMDL
MODEL 5
REMARK VINA RESULT:      -7.4      3.791      6.442
REMARK  Name = 
REMARK  6 active torsions:
REMARK  status: ('A' for Active; 'I' for Inactive)
REMARK    1  A    between atoms: C_1  and  C_2
REMARK    2  A    between atoms: C_2  and  C_3
REMARK    3  A    between atoms: N_5  and  S_6
REMARK    4  A    between atoms: S_6  and  C_9
REMARK    5  A    between atoms: C_19  and  C_21
REMARK    6  A    between atoms: C_21  and  C_22
REMARK                            x       y       z     vdW  Elec       q    Type
REMARK                         _______ _______ _______ _____ _____    ______ ____
ROOT
ATOM      1  C   UNL     1       3.317   7.416  17.623  0.00  0.00    +0.000 C 
ATOM      2  O   UNL     1       3.460   7.914  16.512  0.00  0.00    +0.000 OA
ATOM      3  N   UNL     1       2.541   8.037  18.620  0.00  0.00    +0.000 N 
ATOM      4  H   UNL     1       2.395   7.604  19.529  0.00  0.00    +0.000 HD
ENDROOT
BRANCH   1   6
ATOM      5  C   UNL     1       3.931   5.821  19.624  0.00  0.00    +0.000 C 
ATOM      6  C   UNL     1       4.022   6.075  18.122  0.00  0.00    +0.000 C 
ATOM      7  C   UNL     1       5.472   5.866  17.590  0.00  0.00    +0.000 C 
ATOM      8  C   UNL     1       4.889   4.959  16.505  0.00  0.00    +0.000 C 
ATOM      9  N   UNL     1       3.708   4.864  17.347  0.00  0.00    +0.000 N 
ATOM     10  C   UNL     1       2.658   4.000  17.199  0.00  0.00    +0.000 C 
ATOM     11  O   UNL     1       2.723   3.073  16.386  0.00  0.00    +0.000 OA
BRANCH  10  12
ATOM     12  C   UNL     1       1.416   4.203  18.051  0.00  0.00    +0.000 C 
BRANCH  12  13
ATOM     13  C   UNL     1       1.586   3.588  19.416  0.00  0.00    +0.000 A 
ATOM     14  C   UNL     1       1.016   3.976  20.615  0.00  0.00    +0.000 A 
ATOM     15  C   UNL     1       1.451   3.179  21.714  0.00  0.00    +0.000 A 
ATOM     16  C   UNL     1       2.347   2.211  21.323  0.00  0.00    +0.000 A 
ATOM     17  S   UNL     1       2.660   2.270  19.644  0.00  0.00    +0.000 S 
ENDBRANCH  12  13
ENDBRANCH  10  12
ENDBRANCH   1   6
BRANCH   3  18
ATOM     18  S   UNL     1       1.496   9.315  18.368  0.00  0.00    +0.000 S 
ATOM     19  O   UNL     1       2.252  10.491  18.006  0.00  0.00    +0.000 OA
ATOM     20  O   UNL     1       0.474   8.819  17.467  0.00  0.00    +0.000 OA
BRANCH  18  21
ATOM     21  C   UNL     1       0.750   9.572  19.955  0.00  0.00    +0.000 A 
ATOM     22  C   UNL     1       1.177   8.779  21.031  0.00  0.00    +0.000 A 
ATOM     23  C   UNL     1       0.706   9.028  22.322  0.00  0.00    +0.000 A 
ATOM     24  C   UNL     1      -0.183  10.076  22.548  0.00  0.00    +0.000 A 
ATOM     25  C   UNL     1      -0.620  10.859  21.479  0.00  0.00    +0.000 A 
ATOM     26  C   UNL     1      -0.164  10.606  20.177  0.00  0.00    +0.000 A 
ATOM     27 CL   UNL     1      -0.835  11.590  18.925  0.00  0.00    +0.000 Cl
ENDBRANCH  18  21
ENDBRANCH   3  18
TORSDOF 5
ENDMDL
MODEL 6
REMARK VINA RESULT:      -7.4      2.554      4.327
REMARK  Name = 
REMARK  6 active torsions:
REMARK  status: ('A' for Active; 'I' for Inactive)
REMARK    1  A    between atoms: C_1  and  C_2
REMARK    2  A    between atoms: C_2  and  C_3
REMARK    3  A    between atoms: N_5  and  S_6
REMARK    4  A    between atoms: S_6  and  C_9
REMARK    5  A    between atoms: C_19  and  C_21
REMARK    6  A    between atoms: C_21  and  C_22
REMARK                            x       y       z     vdW  Elec       q    Type
REMARK                         _______ _______ _______ _____ _____    ______ ____
ROOT
ATOM      1  C   UNL     1       5.471   4.026  18.805  0.00  0.00    +0.000 C 
ATOM      2  O   UNL     1       5.167   4.657  19.811  0.00  0.00    +0.000 OA
ATOM      3  N   UNL     1       5.343   2.626  18.740  0.00  0.00    +0.000 N 
ATOM      4  H   UNL     1       5.563   2.108  17.892  0.00  0.00    +0.000 HD
ENDROOT
BRANCH   1   6
ATOM      5  C   UNL     1       5.548   4.111  16.175  0.00  0.00    +0.000 C 
ATOM      6  C   UNL     1       6.108   4.659  17.486  0.00  0.00    +0.000 C 
ATOM      7  C   UNL     1       7.666   4.702  17.472  0.00  0.00    +0.000 C 
ATOM      8  C   UNL     1       7.578   6.160  17.928  0.00  0.00    +0.000 C 
ATOM      9  N   UNL     1       6.201   6.128  17.465  0.00  0.00    +0.000 N 
ATOM     10  C   UNL     1       5.359   7.193  17.308  0.00  0.00    +0.000 C 
ATOM     11  O   UNL     1       5.790   8.347  17.400  0.00  0.00    +0.000 OA
BRANCH  10  12
ATOM     12  C   UNL     1       3.889   6.930  17.022  0.00  0.00    +0.000 C 
BRANCH  12  13
ATOM     13  C   UNL     1       3.016   7.465  18.127  0.00  0.00    +0.000 A 
ATOM     14  C   UNL     1       2.741   6.901  19.359  0.00  0.00    +0.000 A 
ATOM     15  C   UNL     1       1.825   7.678  20.128  0.00  0.00    +0.000 A 
ATOM     16  C   UNL     1       1.422   8.809  19.457  0.00  0.00    +0.000 A 
ATOM     17  S   UNL     1       2.141   8.926  17.911  0.00  0.00    +0.000 S 
ENDBRANCH  12  13
ENDBRANCH  10  12
ENDBRANCH   1   6
BRANCH   3  18
ATOM     18  S   UNL     1       4.513   1.685  19.841  0.00  0.00    +0.000 S 
ATOM     19  O   UNL     1       4.291   0.371  19.282  0.00  0.00    +0.000 OA
ATOM     20  O   UNL     1       5.231   1.814  21.094  0.00  0.00    +0.000 OA
BRANCH  18  21
ATOM     21  C   UNL     1       2.954   2.509  20.014  0.00  0.00    +0.000 A 
ATOM     22  C   UNL     1       2.554   2.918  21.296  0.00  0.00    +0.000 A 
ATOM     23  C   UNL     1       1.393   3.677  21.464  0.00  0.00    +0.000 A 
ATOM     24  C   UNL     1       0.633   4.042  20.356  0.00  0.00    +0.000 A 
ATOM     25  C   UNL     1       1.021   3.627  19.081  0.00  0.00    +0.000 A 
ATOM     26  C   UNL     1       2.176   2.851  18.904  0.00  0.00    +0.000 A 
ATOM     27 CL   UNL     1       2.511   2.331  17.291  0.00  0.00    +0.000 Cl
ENDBRANCH  18  21
ENDBRANCH   3  18
TORSDOF 5
ENDMDL
MODEL 7
REMARK VINA RESULT:      -7.3      3.330      7.343
REMARK  Name = 
REMARK  6 active torsions:
REMARK  status: ('A' for Active; 'I' for Inactive)
REMARK    1  A    between atoms: C_1  and  C_2
REMARK    2  A    between atoms: C_2  and  C_3
REMARK    3  A    between atoms: N_5  and  S_6
REMARK    4  A    between atoms: S_6  and  C_9
REMARK    5  A    between atoms: C_19  and  C_21
REMARK    6  A    between atoms: C_21  and  C_22
REMARK                            x       y       z     vdW  Elec       q    Type
REMARK                         _______ _______ _______ _____ _____    ______ ____
ROOT
ATOM      1  C   UNL     1       4.458   4.521  17.379  0.00  0.00    +0.000 C 
ATOM      2  O   UNL     1       3.848   5.551  17.110  0.00  0.00    +0.000 OA
ATOM      3  N   UNL     1       5.651   4.172  16.719  0.00  0.00    +0.000 N 
ATOM      4  H   UNL     1       6.174   3.336  16.969  0.00  0.00    +0.000 HD
ENDROOT
BRANCH   1   6
ATOM      5  C   UNL     1       4.917   3.194  19.605  0.00  0.00    +0.000 C 
ATOM      6  C   UNL     1       3.974   3.419  18.425  0.00  0.00    +0.000 C 
ATOM      7  C   UNL     1       3.520   2.071  17.787  0.00  0.00    +0.000 C 
ATOM      8  C   UNL     1       2.076   2.565  17.893  0.00  0.00    +0.000 C 
ATOM      9  N   UNL     1       2.573   3.527  18.863  0.00  0.00    +0.000 N 
ATOM     10  C   UNL     1       1.829   4.324  19.689  0.00  0.00    +0.000 C 
ATOM     11  O   UNL     1       0.610   4.152  19.789  0.00  0.00    +0.000 OA
BRANCH  10  12
ATOM     12  C   UNL     1       2.529   5.420  20.476  0.00  0.00    +0.000 C 
BRANCH  12  13
ATOM     13  C   UNL     1       2.091   6.785  20.013  0.00  0.00    +0.000 A 
ATOM     14  C   UNL     1       2.350   7.413  18.808  0.00  0.00    +0.000 A 
ATOM     15  C   UNL     1       1.810   8.731  18.746  0.00  0.00    +0.000 A 
ATOM     16  C   UNL     1       1.162   9.074  19.910  0.00  0.00    +0.000 A 
ATOM     17  S   UNL     1       1.211   7.816  21.065  0.00  0.00    +0.000 S 
ENDBRANCH  12  13
ENDBRANCH  10  12
ENDBRANCH   1   6
BRANCH   3  18
ATOM     18  S   UNL     1       6.545   5.192  15.746  0.00  0.00    +0.000 S 
ATOM     19  O   UNL     1       5.907   6.486  15.689  0.00  0.00    +0.000 OA
ATOM     20  O   UNL     1       7.913   5.092  16.219  0.00  0.00    +0.000 OA
BRANCH  18  21
ATOM     21  C   UNL     1       6.461   4.434  14.146  0.00  0.00    +0.000 A 
ATOM     22  C   UNL     1       5.404   3.549  13.881  0.00  0.00    +0.000 A 
ATOM     23  C   UNL     1       5.229   3.024  12.598  0.00  0.00    +0.000 A 
ATOM     24  C   UNL     1       6.099   3.387  11.573  0.00  0.00    +0.000 A 
ATOM     25  C   UNL     1       7.158   4.257  11.836  0.00  0.00    +0.000 A 
ATOM     26  C   UNL     1       7.351   4.777  13.124  0.00  0.00    +0.000 A 
ATOM     27 CL   UNL     1       8.741   5.779  13.346  0.00  0.00    +0.000 Cl
ENDBRANCH  18  21
ENDBRANCH   3  18
TORSDOF 5
ENDMDL
MODEL 8
REMARK VINA RESULT:      -7.1      7.302      9.850
REMARK  Name = 
REMARK  6 active torsions:
REMARK  status: ('A' for Active; 'I' for Inactive)
REMARK    1  A    between atoms: C_1  and  C_2
REMARK    2  A    between atoms: C_2  and  C_3
REMARK    3  A    between atoms: N_5  and  S_6
REMARK    4  A    between atoms: S_6  and  C_9
REMARK    5  A    between atoms: C_19  and  C_21
REMARK    6  A    between atoms: C_21  and  C_22
REMARK                            x       y       z     vdW  Elec       q    Type
REMARK                         _______ _______ _______ _____ _____    ______ ____
ROOT
ATOM      1  C   UNL     1      -0.840  11.258  22.503  0.00  0.00    +0.000 C 
ATOM      2  O   UNL     1      -1.057  10.758  23.602  0.00  0.00    +0.000 OA
ATOM      3  N   UNL     1      -0.016  10.629  21.551  0.00  0.00    +0.000 N 
ATOM      4  H   UNL     1       0.134  11.029  20.628  0.00  0.00    +0.000 HD
ENDROOT
BRANCH   1   6
ATOM      5  C   UNL     1      -0.320  13.588  21.395  0.00  0.00    +0.000 C 
ATOM      6  C   UNL     1      -1.375  12.684  22.026  0.00  0.00    +0.000 C 
ATOM      7  C   UNL     1      -2.228  13.446  23.084  0.00  0.00    +0.000 C 
ATOM      8  C   UNL     1      -3.480  12.924  22.377  0.00  0.00    +0.000 C 
ATOM      9  N   UNL     1      -2.617  12.666  21.236  0.00  0.00    +0.000 N 
ATOM     10  C   UNL     1      -3.005  12.337  19.967  0.00  0.00    +0.000 C 
ATOM     11  O   UNL     1      -4.195  12.401  19.643  0.00  0.00    +0.000 OA
BRANCH  10  12
ATOM     12  C   UNL     1      -1.948  11.891  18.969  0.00  0.00    +0.000 C 
BRANCH  12  13
ATOM     13  C   UNL     1      -2.580  11.279  17.746  0.00  0.00    +0.000 A 
ATOM     14  C   UNL     1      -3.751  11.641  17.106  0.00  0.00    +0.000 A 
ATOM     15  C   UNL     1      -4.059  10.794  16.001  0.00  0.00    +0.000 A 
ATOM     16  C   UNL     1      -3.118   9.804  15.835  0.00  0.00    +0.000 A 
ATOM     17  S   UNL     1      -1.878   9.898  17.007  0.00  0.00    +0.000 S 
ENDBRANCH  12  13
ENDBRANCH  10  12
ENDBRANCH   1   6
BRANCH   3  18
ATOM     18  S   UNL     1       0.515   9.049  21.634  0.00  0.00    +0.000 S 
ATOM     19  O   UNL     1       1.548   8.939  22.638  0.00  0.00    +0.000 OA
ATOM     20  O   UNL     1      -0.680   8.236  21.749  0.00  0.00    +0.000 OA
BRANCH  18  21
ATOM     21  C   UNL     1       1.227   8.756  20.038  0.00  0.00    +0.000 A 
ATOM     22  C   UNL     1       1.247   9.810  19.112  0.00  0.00    +0.000 A 
ATOM     23  C   UNL     1       1.905   9.662  17.888  0.00  0.00    +0.000 A 
ATOM     24  C   UNL     1       2.555   8.467  17.588  0.00  0.00    +0.000 A 
ATOM     25  C   UNL     1       2.526   7.412  18.501  0.00  0.00    +0.000 A 
ATOM     26  C   UNL     1       1.855   7.547  19.725  0.00  0.00    +0.000 A 
ATOM     27 CL   UNL     1       1.820   6.148  20.738  0.00  0.00    +0.000 Cl
ENDBRANCH  18  21
ENDBRANCH   3  18
TORSDOF 5
ENDMDL
MODEL 9
REMARK VINA RESULT:      -7.0      3.830      5.992
REMARK  Name = 
REMARK  6 active torsions:
REMARK  status: ('A' for Active; 'I' for Inactive)
REMARK    1  A    between atoms: C_1  and  C_2
REMARK    2  A    between atoms: C_2  and  C_3
REMARK    3  A    between atoms: N_5  and  S_6
REMARK    4  A    between atoms: S_6  and  C_9
REMARK    5  A    between atoms: C_19  and  C_21
REMARK    6  A    between atoms: C_21  and  C_22
REMARK                            x       y       z     vdW  Elec       q    Type
REMARK                         _______ _______ _______ _____ _____    ______ ____
ROOT
ATOM      1  C   UNL     1       2.477   6.432  19.054  0.00  0.00    +0.000 C 
ATOM      2  O   UNL     1       3.544   6.908  19.429  0.00  0.00    +0.000 OA
ATOM      3  N   UNL     1       1.388   7.247  18.692  0.00  0.00    +0.000 N 
ATOM      4  H   UNL     1       0.517   6.850  18.348  0.00  0.00    +0.000 HD
ENDROOT
BRANCH   1   6
ATOM      5  C   UNL     1       1.567   4.392  17.663  0.00  0.00    +0.000 C 
ATOM      6  C   UNL     1       2.143   4.873  18.992  0.00  0.00    +0.000 C 
ATOM      7  C   UNL     1       1.322   4.336  20.203  0.00  0.00    +0.000 C 
ATOM      8  C   UNL     1       2.638   3.859  20.819  0.00  0.00    +0.000 C 
ATOM      9  N   UNL     1       3.200   3.975  19.483  0.00  0.00    +0.000 N 
ATOM     10  C   UNL     1       4.413   3.510  19.056  0.00  0.00    +0.000 C 
ATOM     11  O   UNL     1       5.087   2.770  19.780  0.00  0.00    +0.000 OA
BRANCH  10  12
ATOM     12  C   UNL     1       4.913   3.922  17.681  0.00  0.00    +0.000 C 
BRANCH  12  13
ATOM     13  C   UNL     1       5.920   5.039  17.781  0.00  0.00    +0.000 A 
ATOM     14  C   UNL     1       6.968   5.179  18.673  0.00  0.00    +0.000 A 
ATOM     15  C   UNL     1       7.683   6.399  18.495  0.00  0.00    +0.000 A 
ATOM     16  C   UNL     1       7.154   7.160  17.478  0.00  0.00    +0.000 A 
ATOM     17  S   UNL     1       5.805   6.405  16.750  0.00  0.00    +0.000 S 
ENDBRANCH  12  13
ENDBRANCH  10  12
ENDBRANCH   1   6
BRANCH   3  18
ATOM     18  S   UNL     1       1.465   8.893  18.429  0.00  0.00    +0.000 S 
ATOM     19  O   UNL     1       2.846   9.298  18.310  0.00  0.00    +0.000 OA
ATOM     20  O   UNL     1       0.547   9.162  17.338  0.00  0.00    +0.000 OA
BRANCH  18  21
ATOM     21  C   UNL     1       0.781   9.593  19.906  0.00  0.00    +0.000 A 
ATOM     22  C   UNL     1       0.448   8.729  20.961  0.00  0.00    +0.000 A 
ATOM     23  C   UNL     1       0.021   9.246  22.188  0.00  0.00    +0.000 A 
ATOM     24  C   UNL     1      -0.064  10.624  22.371  0.00  0.00    +0.000 A 
ATOM     25  C   UNL     1       0.256  11.485  21.320  0.00  0.00    +0.000 A 
ATOM     26  C   UNL     1       0.669  10.975  20.081  0.00  0.00    +0.000 A 
ATOM     27 CL   UNL     1       0.960  12.134  18.833  0.00  0.00    +0.000 Cl
ENDBRANCH  18  21
ENDBRANCH   3  18
TORSDOF 5
ENDMDL
