MODEL 1
REMARK VINA RESULT:      -7.0      0.000      0.000
REMARK  Name = 
REMARK  17 active torsions:
REMARK  status: ('A' for Active; 'I' for Inactive)
REMARK    1  A    between atoms: C_1  and  O_2
REMARK    2  A    between atoms: O_2  and  C_3
REMARK    3  A    between atoms: C_8  and  C_9
REMARK    4  A    between atoms: C_10  and  C_11
REMARK    5  A    between atoms: C_11  and  O_13
REMARK    6  A    between atoms: O_13  and  C_14
REMARK    7  A    between atoms: C_14  and  C_15
REMARK    8  A    between atoms: C_15  and  C_16
REMARK    9  A    between atoms: C_15  and  C_17
REMARK   10  A    between atoms: C_18  and  C_19
REMARK   11  A    between atoms: C_21  and  C_22
REMARK   12  A    between atoms: C_24  and  O_25
REMARK   13  A    between atoms: C_24  and  O_26
REMARK   14  A    between atoms: O_26  and  C_27
REMARK   15  A    between atoms: C_27  and  C_28
REMARK   16  A    between atoms: C_28  and  C_29
REMARK   17  A    between atoms: C_28  and  C_30
REMARK                            x       y       z     vdW  Elec       q    Type
REMARK                         _______ _______ _______ _____ _____    ______ ____
ROOT
ATOM      1  C   UNL     1       4.030   5.314  17.309  0.00  0.00    +0.000 C 
ATOM      2  C   UNL     1       5.545   5.420  17.226  0.00  0.00    +0.000 C 
ATOM      3  C   UNL     1       6.332   4.563  17.912  0.00  0.00    +0.000 C 
ATOM      4  C   UNL     1       7.850   4.518  17.943  0.00  0.00    +0.000 C 
ATOM      5  N   UNL     1       5.842   3.589  18.737  0.00  0.00    +0.000 NA
ATOM      6  C   UNL     1       4.568   3.357  18.842  0.00  0.00    +0.000 C 
ATOM      7  C   UNL     1       4.229   2.220  19.793  0.00  0.00    +0.000 C 
ATOM      8  C   UNL     1       3.497   4.115  18.111  0.00  0.00    +0.000 C 
ATOM      9  C   UNL     1       2.185   3.786  18.200  0.00  0.00    +0.000 C 
ENDROOT
BRANCH   1  15
ATOM     10  C   UNL     1       0.599   9.134  19.322  0.00  0.00    +0.000 C 
ATOM     11  O   UNL     1      -0.068   9.872  18.606  0.00  0.00    +0.000 OA
ATOM     12  N   UNL     1       1.835   8.599  18.973  0.00  0.00    +0.000 N 
ATOM     13  C   UNL     1       2.494   7.707  19.804  0.00  0.00    +0.000 C 
ATOM     14  C   UNL     1       3.266   6.744  19.294  0.00  0.00    +0.000 C 
ATOM     15  C   UNL     1       3.406   6.602  17.851  0.00  0.00    +0.000 C 
ATOM     16  C   UNL     1       2.997   7.625  17.070  0.00  0.00    +0.000 C 
ATOM     17  C   UNL     1       2.399   8.875  17.652  0.00  0.00    +0.000 C 
BRANCH  10  19
ATOM     18  C   UNL     1      -0.346   9.662  21.430  0.00  0.00    +0.000 C 
ATOM     19  O   UNL     1       0.186   8.686  20.543  0.00  0.00    +0.000 OA
ENDBRANCH  10  19
ENDBRANCH   1  15
BRANCH   2  20
ATOM     20  C   UNL     1       6.147   6.479  16.351  0.00  0.00    +0.000 C 
ATOM     21  O   UNL     1       6.621   7.528  16.753  0.00  0.00    +0.000 OA
BRANCH  20  22
ATOM     22  O   UNL     1       6.035   6.175  15.034  0.00  0.00    +0.000 OA
BRANCH  22  23
ATOM     23  C   UNL     1       7.064   5.323  14.494  0.00  0.00    +0.000 C 
BRANCH  23  24
ATOM     24  C   UNL     1       6.518   4.075  13.789  0.00  0.00    +0.000 C 
ATOM     25  C   UNL     1       5.002   3.992  13.927  0.00  0.00    +0.000 C 
ATOM     26  C   UNL     1       6.897   4.012  12.311  0.00  0.00    +0.000 C 
ENDBRANCH  23  24
ENDBRANCH  22  23
ENDBRANCH  20  22
ENDBRANCH   2  20
BRANCH   9  27
ATOM     27  O   UNL     1       1.191   4.440  17.500  0.00  0.00    +0.000 OA
ATOM     28  H   UNL     1       0.348   4.373  17.967  0.00  0.00    +0.000 HD
ENDBRANCH   9  27
BRANCH   9  29
ATOM     29  O   UNL     1       1.758   2.786  19.050  0.00  0.00    +0.000 OA
BRANCH  29  30
ATOM     30  C   UNL     1       0.631   3.144  19.854  0.00  0.00    +0.000 C 
BRANCH  30  31
ATOM     31  C   UNL     1       1.093   3.330  21.304  0.00  0.00    +0.000 C 
ATOM     32  C   UNL     1       1.730   2.052  21.854  0.00  0.00    +0.000 C 
ATOM     33  C   UNL     1       2.074   4.496  21.395  0.00  0.00    +0.000 C 
ENDBRANCH  30  31
ENDBRANCH  29  30
ENDBRANCH   9  29
TORSDOF 10
ENDMDL
MODEL 2
REMARK VINA RESULT:      -6.5      3.578      8.769
REMARK  Name = 
REMARK  17 active torsions:
REMARK  status: ('A' for Active; 'I' for Inactive)
REMARK    1  A    between atoms: C_1  and  O_2
REMARK    2  A    between atoms: O_2  and  C_3
REMARK    3  A    between atoms: C_8  and  C_9
REMARK    4  A    between atoms: C_10  and  C_11
REMARK    5  A    between atoms: C_11  and  O_13
REMARK    6  A    between atoms: O_13  and  C_14
REMARK    7  A    between atoms: C_14  and  C_15
REMARK    8  A    between atoms: C_15  and  C_16
REMARK    9  A    between atoms: C_15  and  C_17
REMARK   10  A    between atoms: C_18  and  C_19
REMARK   11  A    between atoms: C_21  and  C_22
REMARK   12  A    between atoms: C_24  and  O_25
REMARK   13  A    between atoms: C_24  and  O_26
REMARK   14  A    between atoms: O_26  and  C_27
REMARK   15  A    between atoms: C_27  and  C_28
REMARK   16  A    between atoms: C_28  and  C_29
REMARK   17  A    between atoms: C_28  and  C_30
REMARK                            x       y       z     vdW  Elec       q    Type
REMARK                         _______ _______ _______ _____ _____    ______ ____
ROOT
ATOM      1  C   UNL     1       0.543  10.439  19.918  0.00  0.00    +0.000 C 
ATOM      2  C   UNL     1       0.178  10.565  21.390  0.00  0.00    +0.000 C 
ATOM      3  C   UNL     1       0.419   9.549  22.247  0.00  0.00    +0.000 C 
ATOM      4  C   UNL     1       0.129   9.502  23.737  0.00  0.00    +0.000 C 
ATOM      5  N   UNL     1       0.959   8.353  21.861  0.00  0.00    +0.000 NA
ATOM      6  C   UNL     1       1.371   8.147  20.647  0.00  0.00    +0.000 C 
ATOM      7  C   UNL     1       1.958   6.762  20.427  0.00  0.00    +0.000 C 
ATOM      8  C   UNL     1       1.294   9.153  19.535  0.00  0.00    +0.000 C 
ATOM      9  C   UNL     1       1.805   8.914  18.302  0.00  0.00    +0.000 C 
ENDROOT
BRANCH   1  15
ATOM     10  C   UNL     1      -4.524  11.329  17.929  0.00  0.00    +0.000 C 
ATOM     11  O   UNL     1      -5.370  10.446  17.846  0.00  0.00    +0.000 OA
ATOM     12  N   UNL     1      -3.151  11.118  17.851  0.00  0.00    +0.000 N 
ATOM     13  C   UNL     1      -2.251  12.156  18.033  0.00  0.00    +0.000 C 
ATOM     14  C   UNL     1      -1.054  11.932  18.581  0.00  0.00    +0.000 C 
ATOM     15  C   UNL     1      -0.687  10.593  19.019  0.00  0.00    +0.000 C 
ATOM     16  C   UNL     1      -1.438   9.556  18.591  0.00  0.00    +0.000 C 
ATOM     17  C   UNL     1      -2.632   9.758  17.700  0.00  0.00    +0.000 C 
BRANCH  10  19
ATOM     18  C   UNL     1      -6.140  12.922  18.613  0.00  0.00    +0.000 C 
ATOM     19  O   UNL     1      -4.817  12.639  18.173  0.00  0.00    +0.000 OA
ENDBRANCH  10  19
ENDBRANCH   1  15
BRANCH   2  20
ATOM     20  C   UNL     1      -0.434  11.846  21.873  0.00  0.00    +0.000 C 
ATOM     21  O   UNL     1       0.189  12.863  22.125  0.00  0.00    +0.000 OA
BRANCH  20  22
ATOM     22  O   UNL     1      -1.770  11.727  22.078  0.00  0.00    +0.000 OA
BRANCH  22  23
ATOM     23  C   UNL     1      -2.255  12.178  23.356  0.00  0.00    +0.000 C 
BRANCH  23  24
ATOM     24  C   UNL     1      -3.588  12.932  23.275  0.00  0.00    +0.000 C 
ATOM     25  C   UNL     1      -4.255  12.711  21.922  0.00  0.00    +0.000 C 
ATOM     26  C   UNL     1      -4.559  12.549  24.389  0.00  0.00    +0.000 C 
ENDBRANCH  23  24
ENDBRANCH  22  23
ENDBRANCH  20  22
ENDBRANCH   2  20
BRANCH   9  27
ATOM     27  O   UNL     1       1.786   9.842  17.281  0.00  0.00    +0.000 OA
ATOM     28  H   UNL     1       2.663   9.928  16.883  0.00  0.00    +0.000 HD
ENDBRANCH   9  27
BRANCH   9  29
ATOM     29  O   UNL     1       2.342   7.684  17.980  0.00  0.00    +0.000 OA
BRANCH  29  30
ATOM     30  C   UNL     1       3.585   7.754  17.277  0.00  0.00    +0.000 C 
BRANCH  30  31
ATOM     31  C   UNL     1       4.386   6.476  17.553  0.00  0.00    +0.000 C 
ATOM     32  C   UNL     1       3.477   5.245  17.581  0.00  0.00    +0.000 C 
ATOM     33  C   UNL     1       5.479   6.306  16.500  0.00  0.00    +0.000 C 
ENDBRANCH  30  31
ENDBRANCH  29  30
ENDBRANCH   9  29
TORSDOF 10
ENDMDL
MODEL 3
REMARK VINA RESULT:      -6.4      1.177      1.685
REMARK  Name = 
REMARK  17 active torsions:
REMARK  status: ('A' for Active; 'I' for Inactive)
REMARK    1  A    between atoms: C_1  and  O_2
REMARK    2  A    between atoms: O_2  and  C_3
REMARK    3  A    between atoms: C_8  and  C_9
REMARK    4  A    between atoms: C_10  and  C_11
REMARK    5  A    between atoms: C_11  and  O_13
REMARK    6  A    between atoms: O_13  and  C_14
REMARK    7  A    between atoms: C_14  and  C_15
REMARK    8  A    between atoms: C_15  and  C_16
REMARK    9  A    between atoms: C_15  and  C_17
REMARK   10  A    between atoms: C_18  and  C_19
REMARK   11  A    between atoms: C_21  and  C_22
REMARK   12  A    between atoms: C_24  and  O_25
REMARK   13  A    between atoms: C_24  and  O_26
REMARK   14  A    between atoms: O_26  and  C_27
REMARK   15  A    between atoms: C_27  and  C_28
REMARK   16  A    between atoms: C_28  and  C_29
REMARK   17  A    between atoms: C_28  and  C_30
REMARK                            x       y       z     vdW  Elec       q    Type
REMARK                         _______ _______ _______ _____ _____    ______ ____
ROOT
ATOM      1  C   UNL     1       3.999   5.514  17.710  0.00  0.00    +0.000 C 
ATOM      2  C   UNL     1       5.445   5.944  17.908  0.00  0.00    +0.000 C 
ATOM      3  C   UNL     1       6.285   5.200  18.660  0.00  0.00    +0.000 C 
ATOM      4  C   UNL     1       7.750   5.471  18.959  0.00  0.00    +0.000 C 
ATOM      5  N   UNL     1       5.902   4.060  19.311  0.00  0.00    +0.000 NA
ATOM      6  C   UNL     1       4.714   3.556  19.167  0.00  0.00    +0.000 C 
ATOM      7  C   UNL     1       4.493   2.276  19.957  0.00  0.00    +0.000 C 
ATOM      8  C   UNL     1       3.630   4.149  18.314  0.00  0.00    +0.000 C 
ATOM      9  C   UNL     1       2.428   3.545  18.141  0.00  0.00    +0.000 C 
ENDROOT
BRANCH   1  15
ATOM     10  C   UNL     1       1.629  10.194  19.414  0.00  0.00    +0.000 C 
ATOM     11  O   UNL     1       1.632  10.552  20.586  0.00  0.00    +0.000 OA
ATOM     12  N   UNL     1       1.657   8.868  18.993  0.00  0.00    +0.000 N 
ATOM     13  C   UNL     1       1.732   8.541  17.648  0.00  0.00    +0.000 C 
ATOM     14  C   UNL     1       2.371   7.439  17.249  0.00  0.00    +0.000 C 
ATOM     15  C   UNL     1       3.022   6.575  18.224  0.00  0.00    +0.000 C 
ATOM     16  C   UNL     1       2.713   6.742  19.527  0.00  0.00    +0.000 C 
ATOM     17  C   UNL     1       1.738   7.793  19.981  0.00  0.00    +0.000 C 
BRANCH  10  19
ATOM     18  C   UNL     1       1.717  12.443  18.672  0.00  0.00    +0.000 C 
ATOM     19  O   UNL     1       1.660  11.057  18.357  0.00  0.00    +0.000 OA
ENDBRANCH  10  19
ENDBRANCH   1  15
BRANCH   2  20
ATOM     20  C   UNL     1       5.923   7.196  17.235  0.00  0.00    +0.000 C 
ATOM     21  O   UNL     1       5.873   8.311  17.723  0.00  0.00    +0.000 OA
BRANCH  20  22
ATOM     22  O   UNL     1       6.356   6.960  15.971  0.00  0.00    +0.000 OA
BRANCH  22  23
ATOM     23  C   UNL     1       5.570   6.034  15.197  0.00  0.00    +0.000 C 
BRANCH  23  24
ATOM     24  C   UNL     1       6.375   4.839  14.670  0.00  0.00    +0.000 C 
ATOM     25  C   UNL     1       5.480   3.887  13.885  0.00  0.00    +0.000 C 
ATOM     26  C   UNL     1       7.560   5.255  13.801  0.00  0.00    +0.000 C 
ENDBRANCH  23  24
ENDBRANCH  22  23
ENDBRANCH  20  22
ENDBRANCH   2  20
BRANCH   9  27
ATOM     27  O   UNL     1       1.437   4.049  17.324  0.00  0.00    +0.000 OA
ATOM     28  H   UNL     1       0.926   4.726  17.788  0.00  0.00    +0.000 HD
ENDBRANCH   9  27
BRANCH   9  29
ATOM     29  O   UNL     1       2.108   2.390  18.825  0.00  0.00    +0.000 OA
BRANCH  29  30
ATOM     30  C   UNL     1       0.759   2.346  19.299  0.00  0.00    +0.000 C 
BRANCH  30  31
ATOM     31  C   UNL     1       0.705   2.950  20.707  0.00  0.00    +0.000 C 
ATOM     32  C   UNL     1       1.797   2.365  21.606  0.00  0.00    +0.000 C 
ATOM     33  C   UNL     1       0.835   4.469  20.630  0.00  0.00    +0.000 C 
ENDBRANCH  30  31
ENDBRANCH  29  30
ENDBRANCH   9  29
TORSDOF 10
ENDMDL
MODEL 4
REMARK VINA RESULT:      -6.4      3.647      8.123
REMARK  Name = 
REMARK  17 active torsions:
REMARK  status: ('A' for Active; 'I' for Inactive)
REMARK    1  A    between atoms: C_1  and  O_2
REMARK    2  A    between atoms: O_2  and  C_3
REMARK    3  A    between atoms: C_8  and  C_9
REMARK    4  A    between atoms: C_10  and  C_11
REMARK    5  A    between atoms: C_11  and  O_13
REMARK    6  A    between atoms: O_13  and  C_14
REMARK    7  A    between atoms: C_14  and  C_15
REMARK    8  A    between atoms: C_15  and  C_16
REMARK    9  A    between atoms: C_15  and  C_17
REMARK   10  A    between atoms: C_18  and  C_19
REMARK   11  A    between atoms: C_21  and  C_22
REMARK   12  A    between atoms: C_24  and  O_25
REMARK   13  A    between atoms: C_24  and  O_26
REMARK   14  A    between atoms: O_26  and  C_27
REMARK   15  A    between atoms: C_27  and  C_28
REMARK   16  A    between atoms: C_28  and  C_29
REMARK   17  A    between atoms: C_28  and  C_30
REMARK                            x       y       z     vdW  Elec       q    Type
REMARK                         _______ _______ _______ _____ _____    ______ ____
ROOT
ATOM      1  C   UNL     1       0.479  10.460  19.890  0.00  0.00    +0.000 C 
ATOM      2  C   UNL     1       0.101  10.594  21.357  0.00  0.00    +0.000 C 
ATOM      3  C   UNL     1       0.361   9.595  22.228  0.00  0.00    +0.000 C 
ATOM      4  C   UNL     1       0.061   9.558  23.716  0.00  0.00    +0.000 C 
ATOM      5  N   UNL     1       0.931   8.407  21.860  0.00  0.00    +0.000 NA
ATOM      6  C   UNL     1       1.356   8.197  20.651  0.00  0.00    +0.000 C 
ATOM      7  C   UNL     1       1.977   6.824  20.451  0.00  0.00    +0.000 C 
ATOM      8  C   UNL     1       1.264   9.188  19.526  0.00  0.00    +0.000 C 
ATOM      9  C   UNL     1       1.788   8.946  18.300  0.00  0.00    +0.000 C 
ENDROOT
BRANCH   1  15
ATOM     10  C   UNL     1      -4.583  11.249  17.849  0.00  0.00    +0.000 C 
ATOM     11  O   UNL     1      -5.424  10.360  17.794  0.00  0.00    +0.000 OA
ATOM     12  N   UNL     1      -3.209  11.043  17.784  0.00  0.00    +0.000 N 
ATOM     13  C   UNL     1      -2.315  12.092  17.932  0.00  0.00    +0.000 C 
ATOM     14  C   UNL     1      -1.120  11.895  18.493  0.00  0.00    +0.000 C 
ATOM     15  C   UNL     1      -0.747  10.574  18.981  0.00  0.00    +0.000 C 
ATOM     16  C   UNL     1      -1.491   9.519  18.587  0.00  0.00    +0.000 C 
ATOM     17  C   UNL     1      -2.682   9.682  17.685  0.00  0.00    +0.000 C 
BRANCH  10  19
ATOM     18  C   UNL     1      -6.168  12.994  17.607  0.00  0.00    +0.000 C 
ATOM     19  O   UNL     1      -4.884  12.566  18.044  0.00  0.00    +0.000 OA
ENDBRANCH  10  19
ENDBRANCH   1  15
BRANCH   2  20
ATOM     20  C   UNL     1      -0.544  11.866  21.821  0.00  0.00    +0.000 C 
ATOM     21  O   UNL     1      -1.744  12.030  21.954  0.00  0.00    +0.000 OA
BRANCH  20  22
ATOM     22  O   UNL     1       0.363  12.858  22.007  0.00  0.00    +0.000 OA
BRANCH  22  23
ATOM     23  C   UNL     1       0.140  14.066  21.256  0.00  0.00    +0.000 C 
BRANCH  23  24
ATOM     24  C   UNL     1       1.363  14.521  20.449  0.00  0.00    +0.000 C 
ATOM     25  C   UNL     1       2.515  13.535  20.607  0.00  0.00    +0.000 C 
ATOM     26  C   UNL     1       1.059  14.713  18.964  0.00  0.00    +0.000 C 
ENDBRANCH  23  24
ENDBRANCH  22  23
ENDBRANCH  20  22
ENDBRANCH   2  20
BRANCH   9  27
ATOM     27  O   UNL     1       1.755   9.862  17.268  0.00  0.00    +0.000 OA
ATOM     28  H   UNL     1       1.745   9.411  16.413  0.00  0.00    +0.000 HD
ENDBRANCH   9  27
BRANCH   9  29
ATOM     29  O   UNL     1       2.356   7.726  17.996  0.00  0.00    +0.000 OA
BRANCH  29  30
ATOM     30  C   UNL     1       3.600   7.817  17.297  0.00  0.00    +0.000 C 
BRANCH  30  31
ATOM     31  C   UNL     1       4.407   6.537  17.547  0.00  0.00    +0.000 C 
ATOM     32  C   UNL     1       3.507   5.299  17.523  0.00  0.00    +0.000 C 
ATOM     33  C   UNL     1       5.518   6.408  16.507  0.00  0.00    +0.000 C 
ENDBRANCH  30  31
ENDBRANCH  29  30
ENDBRANCH   9  29
TORSDOF 10
ENDMDL
MODEL 5
REMARK VINA RESULT:      -6.4      1.820      6.617
REMARK  Name = 
REMARK  17 active torsions:
REMARK  status: ('A' for Active; 'I' for Inactive)
REMARK    1  A    between atoms: C_1  and  O_2
REMARK    2  A    between atoms: O_2  and  C_3
REMARK    3  A    between atoms: C_8  and  C_9
REMARK    4  A    between atoms: C_10  and  C_11
REMARK    5  A    between atoms: C_11  and  O_13
REMARK    6  A    between atoms: O_13  and  C_14
REMARK    7  A    between atoms: C_14  and  C_15
REMARK    8  A    between atoms: C_15  and  C_16
REMARK    9  A    between atoms: C_15  and  C_17
REMARK   10  A    between atoms: C_18  and  C_19
REMARK   11  A    between atoms: C_21  and  C_22
REMARK   12  A    between atoms: C_24  and  O_25
REMARK   13  A    between atoms: C_24  and  O_26
REMARK   14  A    between atoms: O_26  and  C_27
REMARK   15  A    between atoms: C_27  and  C_28
REMARK   16  A    between atoms: C_28  and  C_29
REMARK   17  A    between atoms: C_28  and  C_30
REMARK                            x       y       z     vdW  Elec       q    Type
REMARK                         _______ _______ _______ _____ _____    ______ ____
ROOT
ATOM      1  C   UNL     1       2.360   5.877  18.221  0.00  0.00    +0.000 C 
ATOM      2  C   UNL     1       1.951   4.548  18.839  0.00  0.00    +0.000 C 
ATOM      3  C   UNL     1       1.369   4.507  20.057  0.00  0.00    +0.000 C 
ATOM      4  C   UNL     1       0.895   3.282  20.819  0.00  0.00    +0.000 C 
ATOM      5  N   UNL     1       1.144   5.620  20.819  0.00  0.00    +0.000 NA
ATOM      6  C   UNL     1       1.388   6.816  20.376  0.00  0.00    +0.000 C 
ATOM      7  C   UNL     1       1.049   7.918  21.367  0.00  0.00    +0.000 C 
ATOM      8  C   UNL     1       1.953   7.127  19.019  0.00  0.00    +0.000 C 
ATOM      9  C   UNL     1       2.123   8.397  18.576  0.00  0.00    +0.000 C 
ENDROOT
BRANCH   1  15
ATOM     10  C   UNL     1       7.503   4.796  16.549  0.00  0.00    +0.000 C 
ATOM     11  O   UNL     1       8.303   4.162  17.227  0.00  0.00    +0.000 OA
ATOM     12  N   UNL     1       6.477   5.582  17.064  0.00  0.00    +0.000 N 
ATOM     13  C   UNL     1       5.561   6.207  16.234  0.00  0.00    +0.000 C 
ATOM     14  C   UNL     1       4.301   6.397  16.630  0.00  0.00    +0.000 C 
ATOM     15  C   UNL     1       3.863   5.926  17.937  0.00  0.00    +0.000 C 
ATOM     16  C   UNL     1       4.809   5.578  18.835  0.00  0.00    +0.000 C 
ATOM     17  C   UNL     1       6.275   5.653  18.512  0.00  0.00    +0.000 C 
BRANCH  10  19
ATOM     18  C   UNL     1       6.506   3.910  14.589  0.00  0.00    +0.000 C 
ATOM     19  O   UNL     1       7.474   4.766  15.185  0.00  0.00    +0.000 OA
ENDBRANCH  10  19
ENDBRANCH   1  15
BRANCH   2  20
ATOM     20  C   UNL     1       2.188   3.288  18.060  0.00  0.00    +0.000 C 
ATOM     21  O   UNL     1       2.059   3.182  16.853  0.00  0.00    +0.000 OA
BRANCH  20  22
ATOM     22  O   UNL     1       2.492   2.241  18.867  0.00  0.00    +0.000 OA
BRANCH  22  23
ATOM     23  C   UNL     1       3.734   1.569  18.587  0.00  0.00    +0.000 C 
BRANCH  23  24
ATOM     24  C   UNL     1       4.768   1.699  19.713  0.00  0.00    +0.000 C 
ATOM     25  C   UNL     1       4.207   2.512  20.874  0.00  0.00    +0.000 C 
ATOM     26  C   UNL     1       5.260   0.348  20.229  0.00  0.00    +0.000 C 
ENDBRANCH  23  24
ENDBRANCH  22  23
ENDBRANCH  20  22
ENDBRANCH   2  20
BRANCH   9  27
ATOM     27  O   UNL     1       2.596   8.703  17.316  0.00  0.00    +0.000 OA
ATOM     28  H   UNL     1       3.090   7.958  16.949  0.00  0.00    +0.000 HD
ENDBRANCH   9  27
BRANCH   9  29
ATOM     29  O   UNL     1       1.870   9.476  19.397  0.00  0.00    +0.000 OA
BRANCH  29  30
ATOM     30  C   UNL     1       1.062  10.492  18.796  0.00  0.00    +0.000 C 
BRANCH  30  31
ATOM     31  C   UNL     1      -0.410  10.217  19.124  0.00  0.00    +0.000 C 
ATOM     32  C   UNL     1      -0.944  11.209  20.159  0.00  0.00    +0.000 C 
ATOM     33  C   UNL     1      -1.249  10.273  17.849  0.00  0.00    +0.000 C 
ENDBRANCH  30  31
ENDBRANCH  29  30
ENDBRANCH   9  29
TORSDOF 10
ENDMDL
MODEL 6
REMARK VINA RESULT:      -6.2      4.814     10.505
REMARK  Name = 
REMARK  17 active torsions:
REMARK  status: ('A' for Active; 'I' for Inactive)
REMARK    1  A    between atoms: C_1  and  O_2
REMARK    2  A    between atoms: O_2  and  C_3
REMARK    3  A    between atoms: C_8  and  C_9
REMARK    4  A    between atoms: C_10  and  C_11
REMARK    5  A    between atoms: C_11  and  O_13
REMARK    6  A    between atoms: O_13  and  C_14
REMARK    7  A    between atoms: C_14  and  C_15
REMARK    8  A    between atoms: C_15  and  C_16
REMARK    9  A    between atoms: C_15  and  C_17
REMARK   10  A    between atoms: C_18  and  C_19
REMARK   11  A    between atoms: C_21  and  C_22
REMARK   12  A    between atoms: C_24  and  O_25
REMARK   13  A    between atoms: C_24  and  O_26
REMARK   14  A    between atoms: O_26  and  C_27
REMARK   15  A    between atoms: C_27  and  C_28
REMARK   16  A    between atoms: C_28  and  C_29
REMARK   17  A    between atoms: C_28  and  C_30
REMARK                            x       y       z     vdW  Elec       q    Type
REMARK                         _______ _______ _______ _____ _____    ______ ____
ROOT
ATOM      1  C   UNL     1      -1.953  11.860  19.877  0.00  0.00    +0.000 C 
ATOM      2  C   UNL     1      -3.399  12.252  19.616  0.00  0.00    +0.000 C 
ATOM      3  C   UNL     1      -4.043  11.807  18.515  0.00  0.00    +0.000 C 
ATOM      4  C   UNL     1      -5.477  12.089  18.100  0.00  0.00    +0.000 C 
ATOM      5  N   UNL     1      -3.450  11.026  17.562  0.00  0.00    +0.000 NA
ATOM      6  C   UNL     1      -2.242  10.572  17.702  0.00  0.00    +0.000 C 
ATOM      7  C   UNL     1      -1.774   9.706  16.544  0.00  0.00    +0.000 C 
ATOM      8  C   UNL     1      -1.354  10.853  18.881  0.00  0.00    +0.000 C 
ATOM      9  C   UNL     1      -0.125  10.297  19.013  0.00  0.00    +0.000 C 
ENDROOT
BRANCH   1  15
ATOM     10  C   UNL     1       2.326  15.338  19.780  0.00  0.00    +0.000 C 
ATOM     11  O   UNL     1       3.040  15.542  20.756  0.00  0.00    +0.000 OA
ATOM     12  N   UNL     1       0.983  14.985  19.844  0.00  0.00    +0.000 N 
ATOM     13  C   UNL     1       0.259  14.693  18.698  0.00  0.00    +0.000 C 
ATOM     14  C   UNL     1      -0.729  13.795  18.726  0.00  0.00    +0.000 C 
ATOM     15  C   UNL     1      -1.044  13.090  19.960  0.00  0.00    +0.000 C 
ATOM     16  C   UNL     1      -0.537  13.571  21.114  0.00  0.00    +0.000 C 
ATOM     17  C   UNL     1       0.343  14.790  21.145  0.00  0.00    +0.000 C 
BRANCH  10  19
ATOM     18  C   UNL     1       3.958  14.632  18.213  0.00  0.00    +0.000 C 
ATOM     19  O   UNL     1       2.776  15.372  18.492  0.00  0.00    +0.000 OA
ENDBRANCH  10  19
ENDBRANCH   1  15
BRANCH   2  20
ATOM     20  C   UNL     1      -4.102  13.122  20.615  0.00  0.00    +0.000 C 
ATOM     21  O   UNL     1      -4.084  14.340  20.611  0.00  0.00    +0.000 OA
BRANCH  20  22
ATOM     22  O   UNL     1      -4.708  12.394  21.587  0.00  0.00    +0.000 OA
BRANCH  22  23
ATOM     23  C   UNL     1      -5.035  13.104  22.795  0.00  0.00    +0.000 C 
BRANCH  23  24
ATOM     24  C   UNL     1      -3.984  12.950  23.901  0.00  0.00    +0.000 C 
ATOM     25  C   UNL     1      -4.624  12.461  25.196  0.00  0.00    +0.000 C 
ATOM     26  C   UNL     1      -2.844  12.011  23.512  0.00  0.00    +0.000 C 
ENDBRANCH  23  24
ENDBRANCH  22  23
ENDBRANCH  20  22
ENDBRANCH   2  20
BRANCH   9  27
ATOM     27  O   UNL     1       0.687  10.504  20.110  0.00  0.00    +0.000 OA
ATOM     28  H   UNL     1       1.557  10.109  19.969  0.00  0.00    +0.000 HD
ENDBRANCH   9  27
BRANCH   9  29
ATOM     29  O   UNL     1       0.413   9.511  18.014  0.00  0.00    +0.000 OA
BRANCH  29  30
ATOM     30  C   UNL     1       1.831   9.346  18.099  0.00  0.00    +0.000 C 
BRANCH  30  31
ATOM     31  C   UNL     1       2.152   7.851  18.213  0.00  0.00    +0.000 C 
ATOM     32  C   UNL     1       3.486   7.515  17.544  0.00  0.00    +0.000 C 
ATOM     33  C   UNL     1       2.171   7.431  19.681  0.00  0.00    +0.000 C 
ENDBRANCH  30  31
ENDBRANCH  29  30
ENDBRANCH   9  29
TORSDOF 10
ENDMDL
MODEL 7
REMARK VINA RESULT:      -6.2      7.639     10.855
REMARK  Name = 
REMARK  17 active torsions:
REMARK  status: ('A' for Active; 'I' for Inactive)
REMARK    1  A    between atoms: C_1  and  O_2
REMARK    2  A    between atoms: O_2  and  C_3
REMARK    3  A    between atoms: C_8  and  C_9
REMARK    4  A    between atoms: C_10  and  C_11
REMARK    5  A    between atoms: C_11  and  O_13
REMARK    6  A    between atoms: O_13  and  C_14
REMARK    7  A    between atoms: C_14  and  C_15
REMARK    8  A    between atoms: C_15  and  C_16
REMARK    9  A    between atoms: C_15  and  C_17
REMARK   10  A    between atoms: C_18  and  C_19
REMARK   11  A    between atoms: C_21  and  C_22
REMARK   12  A    between atoms: C_24  and  O_25
REMARK   13  A    between atoms: C_24  and  O_26
REMARK   14  A    between atoms: O_26  and  C_27
REMARK   15  A    between atoms: C_27  and  C_28
REMARK   16  A    between atoms: C_28  and  C_29
REMARK   17  A    between atoms: C_28  and  C_30
REMARK                            x       y       z     vdW  Elec       q    Type
REMARK                         _______ _______ _______ _____ _____    ______ ____
ROOT
ATOM      1  C   UNL     1      -1.886  12.598  20.903  0.00  0.00    +0.000 C 
ATOM      2  C   UNL     1      -1.011  11.437  21.353  0.00  0.00    +0.000 C 
ATOM      3  C   UNL     1      -1.171  10.892  22.578  0.00  0.00    +0.000 C 
ATOM      4  C   UNL     1      -0.398   9.735  23.188  0.00  0.00    +0.000 C 
ATOM      5  N   UNL     1      -2.077  11.353  23.493  0.00  0.00    +0.000 NA
ATOM      6  C   UNL     1      -2.923  12.295  23.205  0.00  0.00    +0.000 C 
ATOM      7  C   UNL     1      -3.859  12.648  24.350  0.00  0.00    +0.000 C 
ATOM      8  C   UNL     1      -3.004  12.996  21.879  0.00  0.00    +0.000 C 
ATOM      9  C   UNL     1      -3.954  13.924  21.605  0.00  0.00    +0.000 C 
ENDROOT
BRANCH   1  15
ATOM     10  C   UNL     1       2.165  16.062  19.486  0.00  0.00    +0.000 C 
ATOM     11  O   UNL     1       2.929  16.562  20.304  0.00  0.00    +0.000 OA
ATOM     12  N   UNL     1       0.852  15.691  19.755  0.00  0.00    +0.000 N 
ATOM     13  C   UNL     1       0.072  15.058  18.800  0.00  0.00    +0.000 C 
ATOM     14  C   UNL     1      -0.857  14.169  19.159  0.00  0.00    +0.000 C 
ATOM     15  C   UNL     1      -1.048  13.834  20.563  0.00  0.00    +0.000 C 
ATOM     16  C   UNL     1      -0.493  14.643  21.490  0.00  0.00    +0.000 C 
ATOM     17  C   UNL     1       0.314  15.852  21.105  0.00  0.00    +0.000 C 
BRANCH  10  19
ATOM     18  C   UNL     1       3.116  16.784  17.439  0.00  0.00    +0.000 C 
ATOM     19  O   UNL     1       2.525  15.744  18.208  0.00  0.00    +0.000 OA
ENDBRANCH  10  19
ENDBRANCH   1  15
BRANCH   2  20
ATOM     20  C   UNL     1       0.015  10.897  20.402  0.00  0.00    +0.000 C 
ATOM     21  O   UNL     1       1.178  11.255  20.356  0.00  0.00    +0.000 OA
BRANCH  20  22
ATOM     22  O   UNL     1      -0.520  10.005  19.530  0.00  0.00    +0.000 OA
BRANCH  22  23
ATOM     23  C   UNL     1      -0.847  10.518  18.224  0.00  0.00    +0.000 C 
BRANCH  23  24
ATOM     24  C   UNL     1      -2.285  10.210  17.788  0.00  0.00    +0.000 C 
ATOM     25  C   UNL     1      -3.197  11.405  18.041  0.00  0.00    +0.000 C 
ATOM     26  C   UNL     1      -2.387   9.795  16.322  0.00  0.00    +0.000 C 
ENDBRANCH  23  24
ENDBRANCH  22  23
ENDBRANCH  20  22
ENDBRANCH   2  20
BRANCH   9  27
ATOM     27  O   UNL     1      -4.075  14.545  20.379  0.00  0.00    +0.000 OA
ATOM     28  H   UNL     1      -3.383  14.243  19.776  0.00  0.00    +0.000 HD
ENDBRANCH   9  27
BRANCH   9  29
ATOM     29  O   UNL     1      -4.844  14.340  22.575  0.00  0.00    +0.000 OA
BRANCH  29  30
ATOM     30  C   UNL     1      -4.910  15.760  22.737  0.00  0.00    +0.000 C 
BRANCH  30  31
ATOM     31  C   UNL     1      -3.676  16.230  23.517  0.00  0.00    +0.000 C 
ATOM     32  C   UNL     1      -2.925  17.328  22.759  0.00  0.00    +0.000 C 
ATOM     33  C   UNL     1      -4.089  16.725  24.901  0.00  0.00    +0.000 C 
ENDBRANCH  30  31
ENDBRANCH  29  30
ENDBRANCH   9  29
TORSDOF 10
ENDMDL
MODEL 8
REMARK VINA RESULT:      -6.2      2.040      6.316
REMARK  Name = 
REMARK  17 active torsions:
REMARK  status: ('A' for Active; 'I' for Inactive)
REMARK    1  A    between atoms: C_1  and  O_2
REMARK    2  A    between atoms: O_2  and  C_3
REMARK    3  A    between atoms: C_8  and  C_9
REMARK    4  A    between atoms: C_10  and  C_11
REMARK    5  A    between atoms: C_11  and  O_13
REMARK    6  A    between atoms: O_13  and  C_14
REMARK    7  A    between atoms: C_14  and  C_15
REMARK    8  A    between atoms: C_15  and  C_16
REMARK    9  A    between atoms: C_15  and  C_17
REMARK   10  A    between atoms: C_18  and  C_19
REMARK   11  A    between atoms: C_21  and  C_22
REMARK   12  A    between atoms: C_24  and  O_25
REMARK   13  A    between atoms: C_24  and  O_26
REMARK   14  A    between atoms: O_26  and  C_27
REMARK   15  A    between atoms: C_27  and  C_28
REMARK   16  A    between atoms: C_28  and  C_29
REMARK   17  A    between atoms: C_28  and  C_30
REMARK                            x       y       z     vdW  Elec       q    Type
REMARK                         _______ _______ _______ _____ _____    ______ ____
ROOT
ATOM      1  C   UNL     1       2.413   5.449  18.191  0.00  0.00    +0.000 C 
ATOM      2  C   UNL     1       1.975   4.162  18.873  0.00  0.00    +0.000 C 
ATOM      3  C   UNL     1       1.400   4.193  20.095  0.00  0.00    +0.000 C 
ATOM      4  C   UNL     1       0.900   3.018  20.916  0.00  0.00    +0.000 C 
ATOM      5  N   UNL     1       1.208   5.346  20.805  0.00  0.00    +0.000 NA
ATOM      6  C   UNL     1       1.479   6.513  20.304  0.00  0.00    +0.000 C 
ATOM      7  C   UNL     1       1.175   7.668  21.244  0.00  0.00    +0.000 C 
ATOM      8  C   UNL     1       2.043   6.745  18.932  0.00  0.00    +0.000 C 
ATOM      9  C   UNL     1       2.242   7.988  18.429  0.00  0.00    +0.000 C 
ENDROOT
BRANCH   1  15
ATOM     10  C   UNL     1       7.684   6.851  17.374  0.00  0.00    +0.000 C 
ATOM     11  O   UNL     1       8.122   7.181  16.279  0.00  0.00    +0.000 OA
ATOM     12  N   UNL     1       6.622   5.974  17.570  0.00  0.00    +0.000 N 
ATOM     13  C   UNL     1       6.130   5.710  18.839  0.00  0.00    +0.000 C 
ATOM     14  C   UNL     1       4.836   5.441  19.025  0.00  0.00    +0.000 C 
ATOM     15  C   UNL     1       3.915   5.446  17.897  0.00  0.00    +0.000 C 
ATOM     16  C   UNL     1       4.437   5.426  16.652  0.00  0.00    +0.000 C 
ATOM     17  C   UNL     1       5.921   5.413  16.415  0.00  0.00    +0.000 C 
BRANCH  10  19
ATOM     18  C   UNL     1       8.532   8.722  18.557  0.00  0.00    +0.000 C 
ATOM     19  O   UNL     1       8.144   7.353  18.557  0.00  0.00    +0.000 OA
ENDBRANCH  10  19
ENDBRANCH   1  15
BRANCH   2  20
ATOM     20  C   UNL     1       2.174   2.861  18.153  0.00  0.00    +0.000 C 
ATOM     21  O   UNL     1       1.276   2.163  17.716  0.00  0.00    +0.000 OA
BRANCH  20  22
ATOM     22  O   UNL     1       3.481   2.500  18.108  0.00  0.00    +0.000 OA
BRANCH  22  23
ATOM     23  C   UNL     1       3.825   1.287  18.804  0.00  0.00    +0.000 C 
BRANCH  23  24
ATOM     24  C   UNL     1       4.837   1.496  19.937  0.00  0.00    +0.000 C 
ATOM     25  C   UNL     1       4.210   2.274  21.089  0.00  0.00    +0.000 C 
ATOM     26  C   UNL     1       5.419   0.187  20.466  0.00  0.00    +0.000 C 
ENDBRANCH  23  24
ENDBRANCH  22  23
ENDBRANCH  20  22
ENDBRANCH   2  20
BRANCH   9  27
ATOM     27  O   UNL     1       2.714   8.223  17.154  0.00  0.00    +0.000 OA
ATOM     28  H   UNL     1       3.265   7.487  16.855  0.00  0.00    +0.000 HD
ENDBRANCH   9  27
BRANCH   9  29
ATOM     29  O   UNL     1       2.022   9.111  19.200  0.00  0.00    +0.000 OA
BRANCH  29  30
ATOM     30  C   UNL     1       1.328  10.161  18.520  0.00  0.00    +0.000 C 
BRANCH  30  31
ATOM     31  C   UNL     1      -0.134  10.173  18.984  0.00  0.00    +0.000 C 
ATOM     32  C   UNL     1      -0.441  11.417  19.821  0.00  0.00    +0.000 C 
ATOM     33  C   UNL     1      -1.066  10.099  17.777  0.00  0.00    +0.000 C 
ENDBRANCH  30  31
ENDBRANCH  29  30
ENDBRANCH   9  29
TORSDOF 10
ENDMDL
MODEL 9
REMARK VINA RESULT:      -6.2      7.595     10.531
REMARK  Name = 
REMARK  17 active torsions:
REMARK  status: ('A' for Active; 'I' for Inactive)
REMARK    1  A    between atoms: C_1  and  O_2
REMARK    2  A    between atoms: O_2  and  C_3
REMARK    3  A    between atoms: C_8  and  C_9
REMARK    4  A    between atoms: C_10  and  C_11
REMARK    5  A    between atoms: C_11  and  O_13
REMARK    6  A    between atoms: O_13  and  C_14
REMARK    7  A    between atoms: C_14  and  C_15
REMARK    8  A    between atoms: C_15  and  C_16
REMARK    9  A    between atoms: C_15  and  C_17
REMARK   10  A    between atoms: C_18  and  C_19
REMARK   11  A    between atoms: C_21  and  C_22
REMARK   12  A    between atoms: C_24  and  O_25
REMARK   13  A    between atoms: C_24  and  O_26
REMARK   14  A    between atoms: O_26  and  C_27
REMARK   15  A    between atoms: C_27  and  C_28
REMARK   16  A    between atoms: C_28  and  C_29
REMARK   17  A    between atoms: C_28  and  C_30
REMARK                            x       y       z     vdW  Elec       q    Type
REMARK                         _______ _______ _______ _____ _____    ______ ____
ROOT
ATOM      1  C   UNL     1      -1.937  12.527  20.817  0.00  0.00    +0.000 C 
ATOM      2  C   UNL     1      -1.025  11.391  21.253  0.00  0.00    +0.000 C 
ATOM      3  C   UNL     1      -1.145  10.847  22.484  0.00  0.00    +0.000 C 
ATOM      4  C   UNL     1      -0.331   9.713  23.082  0.00  0.00    +0.000 C 
ATOM      5  N   UNL     1      -2.043  11.290  23.416  0.00  0.00    +0.000 NA
ATOM      6  C   UNL     1      -2.918  12.209  23.141  0.00  0.00    +0.000 C 
ATOM      7  C   UNL     1      -3.839  12.544  24.304  0.00  0.00    +0.000 C 
ATOM      8  C   UNL     1      -3.045  12.902  21.815  0.00  0.00    +0.000 C 
ATOM      9  C   UNL     1      -4.023  13.805  21.557  0.00  0.00    +0.000 C 
ENDROOT
BRANCH   1  15
ATOM     10  C   UNL     1       2.022  16.096  19.400  0.00  0.00    +0.000 C 
ATOM     11  O   UNL     1       2.732  16.662  20.223  0.00  0.00    +0.000 OA
ATOM     12  N   UNL     1       0.715  15.682  19.636  0.00  0.00    +0.000 N 
ATOM     13  C   UNL     1      -0.001  14.977  18.682  0.00  0.00    +0.000 C 
ATOM     14  C   UNL     1      -0.906  14.066  19.045  0.00  0.00    +0.000 C 
ATOM     15  C   UNL     1      -1.137  13.782  20.454  0.00  0.00    +0.000 C 
ATOM     16  C   UNL     1      -0.652  14.652  21.365  0.00  0.00    +0.000 C 
ATOM     17  C   UNL     1       0.119  15.876  20.958  0.00  0.00    +0.000 C 
BRANCH  10  19
ATOM     18  C   UNL     1       3.065  16.759  17.378  0.00  0.00    +0.000 C 
ATOM     19  O   UNL     1       2.443  15.740  18.152  0.00  0.00    +0.000 OA
ENDBRANCH  10  19
ENDBRANCH   1  15
BRANCH   2  20
ATOM     20  C   UNL     1      -0.006  10.871  20.283  0.00  0.00    +0.000 C 
ATOM     21  O   UNL     1       1.166  11.205  20.259  0.00  0.00    +0.000 OA
BRANCH  20  22
ATOM     22  O   UNL     1      -0.555  10.033  19.368  0.00  0.00    +0.000 OA
BRANCH  22  23
ATOM     23  C   UNL     1      -0.764  10.583  18.054  0.00  0.00    +0.000 C 
BRANCH  23  24
ATOM     24  C   UNL     1      -1.958   9.966  17.314  0.00  0.00    +0.000 C 
ATOM     25  C   UNL     1      -3.144   9.784  18.255  0.00  0.00    +0.000 C 
ATOM     26  C   UNL     1      -2.393  10.783  16.100  0.00  0.00    +0.000 C 
ENDBRANCH  23  24
ENDBRANCH  22  23
ENDBRANCH  20  22
ENDBRANCH   2  20
BRANCH   9  27
ATOM     27  O   UNL     1      -4.184  14.417  20.331  0.00  0.00    +0.000 OA
ATOM     28  H   UNL     1      -4.543  15.308  20.441  0.00  0.00    +0.000 HD
ENDBRANCH   9  27
BRANCH   9  29
ATOM     29  O   UNL     1      -4.902  14.203  22.544  0.00  0.00    +0.000 OA
BRANCH  29  30
ATOM     30  C   UNL     1      -6.276  14.173  22.149  0.00  0.00    +0.000 C 
BRANCH  30  31
ATOM     31  C   UNL     1      -6.749  12.715  22.101  0.00  0.00    +0.000 C 
ATOM     32  C   UNL     1      -7.649  12.381  23.292  0.00  0.00    +0.000 C 
ATOM     33  C   UNL     1      -7.481  12.446  20.788  0.00  0.00    +0.000 C 
ENDBRANCH  30  31
ENDBRANCH  29  30
ENDBRANCH   9  29
TORSDOF 10
ENDMDL
