MODEL 1
REMARK VINA RESULT:      -8.5      0.000      0.000
REMARK  Name = 
REMARK  7 active torsions:
REMARK  status: ('A' for Active; 'I' for Inactive)
REMARK    1  A    between atoms: C_1  and  O_2
REMARK    2  A    between atoms: O_2  and  C_3
REMARK    3  A    between atoms: C_5  and  C_6
REMARK    4  A    between atoms: C_14  and  C_15
REMARK    5  A    between atoms: C_16  and  N_17
REMARK    6  A    between atoms: N_17  and  C_18
REMARK    7  A    between atoms: C_22  and  C_23
REMARK                            x       y       z     vdW  Elec       q    Type
REMARK                         _______ _______ _______ _____ _____    ______ ____
ROOT
ATOM      1  C   UNL     1       2.607   3.597  18.853  0.00  0.00    +0.000 C 
ATOM      2  C   UNL     1       3.822   3.005  18.754  0.00  0.00    +0.000 C 
ATOM      3  C   UNL     1       3.616   1.691  18.093  0.00  0.00    +0.000 C 
ATOM      4  O   UNL     1       4.514   0.970  17.697  0.00  0.00    +0.000 OA
ATOM      5  N   UNL     1       2.292   1.495  17.985  0.00  0.00    +0.000 N 
ATOM      6  C   UNL     1       1.623   2.627  18.299  0.00  0.00    +0.000 C 
ATOM      7  O   UNL     1       0.446   2.816  18.061  0.00  0.00    +0.000 OA
ATOM      8  H   UNL     1       1.873   0.722  17.497  0.00  0.00    +0.000 HD
ENDROOT
BRANCH   1  14
ATOM      9  C   UNL     1       1.649   5.325  20.462  0.00  0.00    +0.000 A 
ATOM     10  C   UNL     1       1.439   6.674  20.783  0.00  0.00    +0.000 A 
ATOM     11  C   UNL     1       1.781   7.720  19.914  0.00  0.00    +0.000 A 
ATOM     12  C   UNL     1       2.466   7.379  18.749  0.00  0.00    +0.000 A 
ATOM     13  C   UNL     1       2.728   6.041  18.444  0.00  0.00    +0.000 A 
ATOM     14  C   UNL     1       2.329   4.981  19.285  0.00  0.00    +0.000 A 
BRANCH  11  15
ATOM     15  C   UNL     1       1.354   9.096  20.205  0.00  0.00    +0.000 A 
ATOM     16  C   UNL     1       1.166  10.026  19.167  0.00  0.00    +0.000 A 
ATOM     17  C   UNL     1       0.780  11.333  19.439  0.00  0.00    +0.000 A 
ATOM     18  C   UNL     1       0.600  11.690  20.761  0.00  0.00    +0.000 A 
ATOM     19  N   UNL     1       0.775  10.848  21.799  0.00  0.00    +0.000 NA
ATOM     20  C   UNL     1       1.143   9.577  21.496  0.00  0.00    +0.000 A 
ENDBRANCH  11  15
BRANCH   9  22
ATOM     21  C   UNL     1       2.307   3.590  21.898  0.00  0.00    +0.000 C 
ATOM     22  O   UNL     1       1.227   4.347  21.331  0.00  0.00    +0.000 OA
ENDBRANCH   9  22
ENDBRANCH   1  14
BRANCH   2  23
ATOM     23  N   UNL     1       5.107   3.418  19.037  0.00  0.00    +0.000 N 
ATOM     24  H   UNL     1       5.277   3.486  20.044  0.00  0.00    +0.000 HD
BRANCH  23  25
ATOM     25  C   UNL     1       5.844   4.392  18.320  0.00  0.00    +0.000 A 
ATOM     26  C   UNL     1       6.455   5.432  19.036  0.00  0.00    +0.000 A 
ATOM     27  C   UNL     1       7.245   6.389  18.389  0.00  0.00    +0.000 A 
ATOM     28  C   UNL     1       7.444   6.312  17.013  0.00  0.00    +0.000 A 
ATOM     29  C   UNL     1       6.856   5.277  16.285  0.00  0.00    +0.000 A 
ATOM     30  C   UNL     1       6.064   4.322  16.938  0.00  0.00    +0.000 A 
BRANCH  29  31
ATOM     31  C   UNL     1       7.054   5.190  14.868  0.00  0.00    +0.000 C 
ATOM     32  N   UNL     1       7.211   5.114  13.719  0.00  0.00    +0.000 NA
ENDBRANCH  29  31
ENDBRANCH  23  25
ENDBRANCH   2  23
TORSDOF 6
ENDMDL
MODEL 2
REMARK VINA RESULT:      -8.3      1.188      1.619
REMARK  Name = 
REMARK  7 active torsions:
REMARK  status: ('A' for Active; 'I' for Inactive)
REMARK    1  A    between atoms: C_1  and  O_2
REMARK    2  A    between atoms: O_2  and  C_3
REMARK    3  A    between atoms: C_5  and  C_6
REMARK    4  A    between atoms: C_14  and  C_15
REMARK    5  A    between atoms: C_16  and  N_17
REMARK    6  A    between atoms: N_17  and  C_18
REMARK    7  A    between atoms: C_22  and  C_23
REMARK                            x       y       z     vdW  Elec       q    Type
REMARK                         _______ _______ _______ _____ _____    ______ ____
ROOT
ATOM      1  C   UNL     1       2.648   3.691  18.777  0.00  0.00    +0.000 C 
ATOM      2  C   UNL     1       3.857   3.097  18.628  0.00  0.00    +0.000 C 
ATOM      3  C   UNL     1       3.610   1.720  18.132  0.00  0.00    +0.000 C 
ATOM      4  O   UNL     1       4.478   0.964  17.733  0.00  0.00    +0.000 OA
ATOM      5  N   UNL     1       2.285   1.507  18.168  0.00  0.00    +0.000 N 
ATOM      6  C   UNL     1       1.631   2.663  18.422  0.00  0.00    +0.000 C 
ATOM      7  O   UNL     1       0.435   2.821  18.275  0.00  0.00    +0.000 OA
ATOM      8  H   UNL     1       1.834   0.685  17.805  0.00  0.00    +0.000 HD
ENDROOT
BRANCH   1  14
ATOM      9  C   UNL     1       1.766   5.572  20.252  0.00  0.00    +0.000 A 
ATOM     10  C   UNL     1       1.571   6.947  20.449  0.00  0.00    +0.000 A 
ATOM     11  C   UNL     1       1.876   7.902  19.468  0.00  0.00    +0.000 A 
ATOM     12  C   UNL     1       2.507   7.446  18.312  0.00  0.00    +0.000 A 
ATOM     13  C   UNL     1       2.754   6.083  18.128  0.00  0.00    +0.000 A 
ATOM     14  C   UNL     1       2.392   5.112  19.085  0.00  0.00    +0.000 A 
BRANCH  11  15
ATOM     15  C   UNL     1       1.464   9.302  19.643  0.00  0.00    +0.000 A 
ATOM     16  C   UNL     1       1.564  10.219  18.582  0.00  0.00    +0.000 A 
ATOM     17  C   UNL     1       1.192  11.548  18.748  0.00  0.00    +0.000 A 
ATOM     18  C   UNL     1       0.735  11.939  19.992  0.00  0.00    +0.000 A 
ATOM     19  N   UNL     1       0.627  11.110  21.049  0.00  0.00    +0.000 NA
ATOM     20  C   UNL     1       0.989   9.817  20.848  0.00  0.00    +0.000 A 
ENDBRANCH  11  15
BRANCH   9  22
ATOM     21  C   UNL     1       2.483   3.964  21.802  0.00  0.00    +0.000 C 
ATOM     22  O   UNL     1       1.382   4.685  21.229  0.00  0.00    +0.000 OA
ENDBRANCH   9  22
ENDBRANCH   1  14
BRANCH   2  23
ATOM     23  N   UNL     1       5.157   3.544  18.746  0.00  0.00    +0.000 N 
ATOM     24  H   UNL     1       5.403   3.762  19.715  0.00  0.00    +0.000 HD
BRANCH  23  25
ATOM     25  C   UNL     1       5.829   4.394  17.836  0.00  0.00    +0.000 A 
ATOM     26  C   UNL     1       5.807   4.067  16.472  0.00  0.00    +0.000 A 
ATOM     27  C   UNL     1       6.402   4.901  15.518  0.00  0.00    +0.000 A 
ATOM     28  C   UNL     1       7.020   6.083  15.917  0.00  0.00    +0.000 A 
ATOM     29  C   UNL     1       7.041   6.432  17.267  0.00  0.00    +0.000 A 
ATOM     30  C   UNL     1       6.444   5.593  18.218  0.00  0.00    +0.000 A 
BRANCH  29  31
ATOM     31  C   UNL     1       7.676   7.647  17.687  0.00  0.00    +0.000 C 
ATOM     32  N   UNL     1       8.194   8.628  18.031  0.00  0.00    +0.000 NA
ENDBRANCH  29  31
ENDBRANCH  23  25
ENDBRANCH   2  23
TORSDOF 6
ENDMDL
MODEL 3
REMARK VINA RESULT:      -8.2      1.857      7.095
REMARK  Name = 
REMARK  7 active torsions:
REMARK  status: ('A' for Active; 'I' for Inactive)
REMARK    1  A    between atoms: C_1  and  O_2
REMARK    2  A    between atoms: O_2  and  C_3
REMARK    3  A    between atoms: C_5  and  C_6
REMARK    4  A    between atoms: C_14  and  C_15
REMARK    5  A    between atoms: C_16  and  N_17
REMARK    6  A    between atoms: N_17  and  C_18
REMARK    7  A    between atoms: C_22  and  C_23
REMARK                            x       y       z     vdW  Elec       q    Type
REMARK                         _______ _______ _______ _____ _____    ______ ____
ROOT
ATOM      1  C   UNL     1       3.802   2.945  19.652  0.00  0.00    +0.000 C 
ATOM      2  C   UNL     1       2.610   3.466  20.031  0.00  0.00    +0.000 C 
ATOM      3  C   UNL     1       2.347   2.995  21.415  0.00  0.00    +0.000 C 
ATOM      4  O   UNL     1       1.446   3.405  22.123  0.00  0.00    +0.000 OA
ATOM      5  N   UNL     1       3.296   2.097  21.725  0.00  0.00    +0.000 N 
ATOM      6  C   UNL     1       4.267   2.098  20.785  0.00  0.00    +0.000 C 
ATOM      7  O   UNL     1       5.355   1.572  20.922  0.00  0.00    +0.000 OA
ATOM      8  H   UNL     1       3.408   1.684  22.634  0.00  0.00    +0.000 HD
ENDROOT
BRANCH   1  14
ATOM      9  C   UNL     1       5.615   4.187  18.362  0.00  0.00    +0.000 A 
ATOM     10  C   UNL     1       6.271   4.419  17.144  0.00  0.00    +0.000 A 
ATOM     11  C   UNL     1       5.846   3.850  15.936  0.00  0.00    +0.000 A 
ATOM     12  C   UNL     1       4.803   2.928  16.000  0.00  0.00    +0.000 A 
ATOM     13  C   UNL     1       4.176   2.649  17.217  0.00  0.00    +0.000 A 
ATOM     14  C   UNL     1       4.559   3.267  18.426  0.00  0.00    +0.000 A 
BRANCH  11  15
ATOM     15  C   UNL     1       6.438   4.285  14.663  0.00  0.00    +0.000 A 
ATOM     16  C   UNL     1       6.022   3.718  13.445  0.00  0.00    +0.000 A 
ATOM     17  C   UNL     1       6.592   4.114  12.240  0.00  0.00    +0.000 A 
ATOM     18  C   UNL     1       7.586   5.071  12.282  0.00  0.00    +0.000 A 
ATOM     19  N   UNL     1       8.034   5.644  13.417  0.00  0.00    +0.000 NA
ATOM     20  C   UNL     1       7.449   5.241  14.574  0.00  0.00    +0.000 A 
ENDBRANCH  11  15
BRANCH   9  22
ATOM     21  C   UNL     1       7.251   5.581  19.300  0.00  0.00    +0.000 C 
ATOM     22  O   UNL     1       6.044   4.831  19.498  0.00  0.00    +0.000 OA
ENDBRANCH   9  22
ENDBRANCH   1  14
BRANCH   2  23
ATOM     23  N   UNL     1       1.733   4.358  19.449  0.00  0.00    +0.000 N 
ATOM     24  H   UNL     1       1.356   4.005  18.566  0.00  0.00    +0.000 HD
BRANCH  23  25
ATOM     25  C   UNL     1       1.873   5.766  19.429  0.00  0.00    +0.000 A 
ATOM     26  C   UNL     1       2.267   6.384  18.233  0.00  0.00    +0.000 A 
ATOM     27  C   UNL     1       2.363   7.777  18.135  0.00  0.00    +0.000 A 
ATOM     28  C   UNL     1       2.056   8.574  19.235  0.00  0.00    +0.000 A 
ATOM     29  C   UNL     1       1.650   7.979  20.430  0.00  0.00    +0.000 A 
ATOM     30  C   UNL     1       1.556   6.583  20.522  0.00  0.00    +0.000 A 
BRANCH  29  31
ATOM     31  C   UNL     1       1.332   8.791  21.568  0.00  0.00    +0.000 C 
ATOM     32  N   UNL     1       1.074   9.455  22.485  0.00  0.00    +0.000 NA
ENDBRANCH  29  31
ENDBRANCH  23  25
ENDBRANCH   2  23
TORSDOF 6
ENDMDL
MODEL 4
REMARK VINA RESULT:      -8.2      2.279      2.789
REMARK  Name = 
REMARK  7 active torsions:
REMARK  status: ('A' for Active; 'I' for Inactive)
REMARK    1  A    between atoms: C_1  and  O_2
REMARK    2  A    between atoms: O_2  and  C_3
REMARK    3  A    between atoms: C_5  and  C_6
REMARK    4  A    between atoms: C_14  and  C_15
REMARK    5  A    between atoms: C_16  and  N_17
REMARK    6  A    between atoms: N_17  and  C_18
REMARK    7  A    between atoms: C_22  and  C_23
REMARK                            x       y       z     vdW  Elec       q    Type
REMARK                         _______ _______ _______ _____ _____    ______ ____
ROOT
ATOM      1  C   UNL     1       3.302   5.245  17.660  0.00  0.00    +0.000 C 
ATOM      2  C   UNL     1       4.383   5.384  16.855  0.00  0.00    +0.000 C 
ATOM      3  C   UNL     1       4.468   4.157  16.022  0.00  0.00    +0.000 C 
ATOM      4  O   UNL     1       5.221   4.017  15.075  0.00  0.00    +0.000 OA
ATOM      5  N   UNL     1       3.550   3.291  16.481  0.00  0.00    +0.000 N 
ATOM      6  C   UNL     1       2.734   3.901  17.369  0.00  0.00    +0.000 C 
ATOM      7  O   UNL     1       1.679   3.439  17.759  0.00  0.00    +0.000 OA
ATOM      8  H   UNL     1       3.333   2.413  16.043  0.00  0.00    +0.000 HD
ENDROOT
BRANCH   1  14
ATOM      9  C   UNL     1       2.478   6.107  19.911  0.00  0.00    +0.000 A 
ATOM     10  C   UNL     1       1.918   7.153  20.661  0.00  0.00    +0.000 A 
ATOM     11  C   UNL     1       1.471   8.346  20.076  0.00  0.00    +0.000 A 
ATOM     12  C   UNL     1       1.717   8.518  18.715  0.00  0.00    +0.000 A 
ATOM     13  C   UNL     1       2.322   7.504  17.969  0.00  0.00    +0.000 A 
ATOM     14  C   UNL     1       2.717   6.276  18.540  0.00  0.00    +0.000 A 
BRANCH  11  15
ATOM     15  C   UNL     1       0.708   9.320  20.869  0.00  0.00    +0.000 A 
ATOM     16  C   UNL     1      -0.095  10.289  20.242  0.00  0.00    +0.000 A 
ATOM     17  C   UNL     1      -0.805  11.223  20.988  0.00  0.00    +0.000 A 
ATOM     18  C   UNL     1      -0.683  11.176  22.363  0.00  0.00    +0.000 A 
ATOM     19  N   UNL     1       0.078  10.279  23.021  0.00  0.00    +0.000 NA
ATOM     20  C   UNL     1       0.749   9.376  22.262  0.00  0.00    +0.000 A 
ENDBRANCH  11  15
BRANCH   9  22
ATOM     21  C   UNL     1       1.706   4.202  21.043  0.00  0.00    +0.000 C 
ATOM     22  O   UNL     1       2.832   4.937  20.539  0.00  0.00    +0.000 OA
ENDBRANCH   9  22
ENDBRANCH   1  14
BRANCH   2  23
ATOM     23  N   UNL     1       5.271   6.414  16.622  0.00  0.00    +0.000 N 
ATOM     24  H   UNL     1       5.514   6.496  15.632  0.00  0.00    +0.000 HD
BRANCH  23  25
ATOM     25  C   UNL     1       6.355   6.780  17.456  0.00  0.00    +0.000 A 
ATOM     26  C   UNL     1       6.919   5.802  18.290  0.00  0.00    +0.000 A 
ATOM     27  C   UNL     1       8.030   6.089  19.091  0.00  0.00    +0.000 A 
ATOM     28  C   UNL     1       8.600   7.359  19.062  0.00  0.00    +0.000 A 
ATOM     29  C   UNL     1       8.062   8.340  18.229  0.00  0.00    +0.000 A 
ATOM     30  C   UNL     1       6.948   8.048  17.429  0.00  0.00    +0.000 A 
BRANCH  29  31
ATOM     31  C   UNL     1       8.642   9.651  18.192  0.00  0.00    +0.000 C 
ATOM     32  N   UNL     1       9.119  10.710  18.164  0.00  0.00    +0.000 NA
ENDBRANCH  29  31
ENDBRANCH  23  25
ENDBRANCH   2  23
TORSDOF 6
ENDMDL
MODEL 5
REMARK VINA RESULT:      -8.1      4.267      9.284
REMARK  Name = 
REMARK  7 active torsions:
REMARK  status: ('A' for Active; 'I' for Inactive)
REMARK    1  A    between atoms: C_1  and  O_2
REMARK    2  A    between atoms: O_2  and  C_3
REMARK    3  A    between atoms: C_5  and  C_6
REMARK    4  A    between atoms: C_14  and  C_15
REMARK    5  A    between atoms: C_16  and  N_17
REMARK    6  A    between atoms: N_17  and  C_18
REMARK    7  A    between atoms: C_22  and  C_23
REMARK                            x       y       z     vdW  Elec       q    Type
REMARK                         _______ _______ _______ _____ _____    ______ ____
ROOT
ATOM      1  C   UNL     1       1.087  12.016  19.139  0.00  0.00    +0.000 C 
ATOM      2  C   UNL     1      -0.082  12.682  19.296  0.00  0.00    +0.000 C 
ATOM      3  C   UNL     1       0.141  14.074  18.831  0.00  0.00    +0.000 C 
ATOM      4  O   UNL     1      -0.741  14.900  18.677  0.00  0.00    +0.000 OA
ATOM      5  N   UNL     1       1.453  14.213  18.581  0.00  0.00    +0.000 N 
ATOM      6  C   UNL     1       2.067  13.009  18.620  0.00  0.00    +0.000 C 
ATOM      7  O   UNL     1       3.189  12.798  18.202  0.00  0.00    +0.000 OA
ATOM      8  H   UNL     1       1.867  15.032  18.170  0.00  0.00    +0.000 HD
ENDROOT
BRANCH   1  14
ATOM      9  C   UNL     1       1.166   9.874  20.516  0.00  0.00    +0.000 A 
ATOM     10  C   UNL     1       1.400   8.491  20.567  0.00  0.00    +0.000 A 
ATOM     11  C   UNL     1       1.889   7.767  19.471  0.00  0.00    +0.000 A 
ATOM     12  C   UNL     1       2.023   8.453  18.265  0.00  0.00    +0.000 A 
ATOM     13  C   UNL     1       1.742   9.819  18.190  0.00  0.00    +0.000 A 
ATOM     14  C   UNL     1       1.310  10.566  19.306  0.00  0.00    +0.000 A 
BRANCH  11  15
ATOM     15  C   UNL     1       2.311   6.369  19.635  0.00  0.00    +0.000 A 
ATOM     16  C   UNL     1       1.755   5.562  20.644  0.00  0.00    +0.000 A 
ATOM     17  C   UNL     1       2.164   4.244  20.813  0.00  0.00    +0.000 A 
ATOM     18  C   UNL     1       3.142   3.760  19.967  0.00  0.00    +0.000 A 
ATOM     19  N   UNL     1       3.719   4.486  18.989  0.00  0.00    +0.000 NA
ATOM     20  C   UNL     1       3.289   5.765  18.846  0.00  0.00    +0.000 A 
ENDBRANCH  11  15
BRANCH   9  22
ATOM     21  C   UNL     1       0.076   9.680  22.584  0.00  0.00    +0.000 C 
ATOM     22  O   UNL     1       0.750  10.534  21.648  0.00  0.00    +0.000 OA
ENDBRANCH   9  22
ENDBRANCH   1  14
BRANCH   2  23
ATOM     23  N   UNL     1      -1.351  12.298  19.678  0.00  0.00    +0.000 N 
ATOM     24  H   UNL     1      -1.344  11.744  20.538  0.00  0.00    +0.000 HD
BRANCH  23  25
ATOM     25  C   UNL     1      -2.394  11.895  18.809  0.00  0.00    +0.000 A 
ATOM     26  C   UNL     1      -3.721  12.081  19.224  0.00  0.00    +0.000 A 
ATOM     27  C   UNL     1      -4.793  11.758  18.384  0.00  0.00    +0.000 A 
ATOM     28  C   UNL     1      -4.550  11.252  17.109  0.00  0.00    +0.000 A 
ATOM     29  C   UNL     1      -3.237  11.073  16.674  0.00  0.00    +0.000 A 
ATOM     30  C   UNL     1      -2.167  11.397  17.520  0.00  0.00    +0.000 A 
BRANCH  29  31
ATOM     31  C   UNL     1      -2.978  10.552  15.364  0.00  0.00    +0.000 C 
ATOM     32  N   UNL     1      -2.774  10.132  14.300  0.00  0.00    +0.000 NA
ENDBRANCH  29  31
ENDBRANCH  23  25
ENDBRANCH   2  23
TORSDOF 6
ENDMDL
MODEL 6
REMARK VINA RESULT:      -8.0      4.254      9.171
REMARK  Name = 
REMARK  7 active torsions:
REMARK  status: ('A' for Active; 'I' for Inactive)
REMARK    1  A    between atoms: C_1  and  O_2
REMARK    2  A    between atoms: O_2  and  C_3
REMARK    3  A    between atoms: C_5  and  C_6
REMARK    4  A    between atoms: C_14  and  C_15
REMARK    5  A    between atoms: C_16  and  N_17
REMARK    6  A    between atoms: N_17  and  C_18
REMARK    7  A    between atoms: C_22  and  C_23
REMARK                            x       y       z     vdW  Elec       q    Type
REMARK                         _______ _______ _______ _____ _____    ______ ____
ROOT
ATOM      1  C   UNL     1       1.145  11.776  18.932  0.00  0.00    +0.000 C 
ATOM      2  C   UNL     1      -0.045  12.386  19.149  0.00  0.00    +0.000 C 
ATOM      3  C   UNL     1       0.131  13.821  18.808  0.00  0.00    +0.000 C 
ATOM      4  O   UNL     1      -0.777  14.628  18.728  0.00  0.00    +0.000 OA
ATOM      5  N   UNL     1       1.437  14.024  18.570  0.00  0.00    +0.000 N 
ATOM      6  C   UNL     1       2.090  12.842  18.502  0.00  0.00    +0.000 C 
ATOM      7  O   UNL     1       3.217  12.706  18.065  0.00  0.00    +0.000 OA
ATOM      8  H   UNL     1       1.823  14.889  18.232  0.00  0.00    +0.000 HD
ENDROOT
BRANCH   1  14
ATOM      9  C   UNL     1       1.292   9.523  20.113  0.00  0.00    +0.000 A 
ATOM     10  C   UNL     1       1.571   8.150  20.041  0.00  0.00    +0.000 A 
ATOM     11  C   UNL     1       2.087   7.543  18.888  0.00  0.00    +0.000 A 
ATOM     12  C   UNL     1       2.201   8.337  17.749  0.00  0.00    +0.000 A 
ATOM     13  C   UNL     1       1.876   9.695  17.794  0.00  0.00    +0.000 A 
ATOM     14  C   UNL     1       1.416  10.325  18.970  0.00  0.00    +0.000 A 
BRANCH  11  15
ATOM     15  C   UNL     1       2.555   6.150  18.929  0.00  0.00    +0.000 A 
ATOM     16  C   UNL     1       3.391   5.641  17.919  0.00  0.00    +0.000 A 
ATOM     17  C   UNL     1       3.821   4.319  17.945  0.00  0.00    +0.000 A 
ATOM     18  C   UNL     1       3.389   3.522  18.986  0.00  0.00    +0.000 A 
ATOM     19  N   UNL     1       2.580   3.948  19.976  0.00  0.00    +0.000 NA
ATOM     20  C   UNL     1       2.187   5.246  19.924  0.00  0.00    +0.000 A 
ENDBRANCH  11  15
BRANCH   9  22
ATOM     21  C   UNL     1       0.125   9.131  22.110  0.00  0.00    +0.000 C 
ATOM     22  O   UNL     1       0.852  10.065  21.297  0.00  0.00    +0.000 OA
ENDBRANCH   9  22
ENDBRANCH   1  14
BRANCH   2  23
ATOM     23  N   UNL     1      -1.299  11.930  19.497  0.00  0.00    +0.000 N 
ATOM     24  H   UNL     1      -1.263  11.256  20.266  0.00  0.00    +0.000 HD
BRANCH  23  25
ATOM     25  C   UNL     1      -2.355  11.639  18.600  0.00  0.00    +0.000 A 
ATOM     26  C   UNL     1      -3.670  11.921  19.000  0.00  0.00    +0.000 A 
ATOM     27  C   UNL     1      -4.750  11.711  18.135  0.00  0.00    +0.000 A 
ATOM     28  C   UNL     1      -4.527  11.225  16.849  0.00  0.00    +0.000 A 
ATOM     29  C   UNL     1      -3.225  10.952  16.428  0.00  0.00    +0.000 A 
ATOM     30  C   UNL     1      -2.147  11.163  17.299  0.00  0.00    +0.000 A 
BRANCH  29  31
ATOM     31  C   UNL     1      -2.986  10.452  15.106  0.00  0.00    +0.000 C 
ATOM     32  N   UNL     1      -2.796  10.051  14.032  0.00  0.00    +0.000 NA
ENDBRANCH  29  31
ENDBRANCH  23  25
ENDBRANCH   2  23
TORSDOF 6
ENDMDL
MODEL 7
REMARK VINA RESULT:      -8.0      4.216      9.295
REMARK  Name = 
REMARK  7 active torsions:
REMARK  status: ('A' for Active; 'I' for Inactive)
REMARK    1  A    between atoms: C_1  and  O_2
REMARK    2  A    between atoms: O_2  and  C_3
REMARK    3  A    between atoms: C_5  and  C_6
REMARK    4  A    between atoms: C_14  and  C_15
REMARK    5  A    between atoms: C_16  and  N_17
REMARK    6  A    between atoms: N_17  and  C_18
REMARK    7  A    between atoms: C_22  and  C_23
REMARK                            x       y       z     vdW  Elec       q    Type
REMARK                         _______ _______ _______ _____ _____    ______ ____
ROOT
ATOM      1  C   UNL     1       0.746  11.777  19.503  0.00  0.00    +0.000 C 
ATOM      2  C   UNL     1      -0.521  12.207  19.713  0.00  0.00    +0.000 C 
ATOM      3  C   UNL     1      -0.480  13.691  19.743  0.00  0.00    +0.000 C 
ATOM      4  O   UNL     1      -1.463  14.409  19.747  0.00  0.00    +0.000 OA
ATOM      5  N   UNL     1       0.811  14.062  19.718  0.00  0.00    +0.000 N 
ATOM      6  C   UNL     1       1.599  12.996  19.452  0.00  0.00    +0.000 C 
ATOM      7  O   UNL     1       2.770  13.072  19.134  0.00  0.00    +0.000 OA
ATOM      8  H   UNL     1       1.125  15.014  19.643  0.00  0.00    +0.000 HD
ENDROOT
BRANCH   1  14
ATOM      9  C   UNL     1       1.259   9.379  20.197  0.00  0.00    +0.000 A 
ATOM     10  C   UNL     1       1.679   8.091  19.832  0.00  0.00    +0.000 A 
ATOM     11  C   UNL     1       2.138   7.783  18.544  0.00  0.00    +0.000 A 
ATOM     12  C   UNL     1       2.047   8.785  17.580  0.00  0.00    +0.000 A 
ATOM     13  C   UNL     1       1.580  10.058  17.920  0.00  0.00    +0.000 A 
ATOM     14  C   UNL     1       1.176  10.391  19.230  0.00  0.00    +0.000 A 
BRANCH  11  15
ATOM     15  C   UNL     1       2.757   6.478  18.269  0.00  0.00    +0.000 A 
ATOM     16  C   UNL     1       2.173   5.290  18.743  0.00  0.00    +0.000 A 
ATOM     17  C   UNL     1       2.765   4.056  18.500  0.00  0.00    +0.000 A 
ATOM     18  C   UNL     1       3.950   4.038  17.792  0.00  0.00    +0.000 A 
ATOM     19  N   UNL     1       4.563   5.143  17.322  0.00  0.00    +0.000 NA
ATOM     20  C   UNL     1       3.953   6.330  17.568  0.00  0.00    +0.000 A 
ENDBRANCH  11  15
BRANCH   9  22
ATOM     21  C   UNL     1      -0.212   8.814  21.934  0.00  0.00    +0.000 C 
ATOM     22  O   UNL     1       0.885   9.629  21.496  0.00  0.00    +0.000 OA
ENDBRANCH   9  22
ENDBRANCH   1  14
BRANCH   2  23
ATOM     23  N   UNL     1      -1.742  11.570  19.790  0.00  0.00    +0.000 N 
ATOM     24  H   UNL     1      -1.694  10.712  20.347  0.00  0.00    +0.000 HD
BRANCH  23  25
ATOM     25  C   UNL     1      -2.688  11.457  18.744  0.00  0.00    +0.000 A 
ATOM     26  C   UNL     1      -3.992  11.924  18.965  0.00  0.00    +0.000 A 
ATOM     27  C   UNL     1      -4.954  11.894  17.948  0.00  0.00    +0.000 A 
ATOM     28  C   UNL     1      -4.619  11.403  16.689  0.00  0.00    +0.000 A 
ATOM     29  C   UNL     1      -3.324  10.946  16.445  0.00  0.00    +0.000 A 
ATOM     30  C   UNL     1      -2.365  10.978  17.467  0.00  0.00    +0.000 A 
BRANCH  29  31
ATOM     31  C   UNL     1      -2.971  10.439  15.152  0.00  0.00    +0.000 C 
ATOM     32  N   UNL     1      -2.681  10.022  14.106  0.00  0.00    +0.000 NA
ENDBRANCH  29  31
ENDBRANCH  23  25
ENDBRANCH   2  23
TORSDOF 6
ENDMDL
MODEL 8
REMARK VINA RESULT:      -8.0      0.999      1.742
REMARK  Name = 
REMARK  7 active torsions:
REMARK  status: ('A' for Active; 'I' for Inactive)
REMARK    1  A    between atoms: C_1  and  O_2
REMARK    2  A    between atoms: O_2  and  C_3
REMARK    3  A    between atoms: C_5  and  C_6
REMARK    4  A    between atoms: C_14  and  C_15
REMARK    5  A    between atoms: C_16  and  N_17
REMARK    6  A    between atoms: N_17  and  C_18
REMARK    7  A    between atoms: C_22  and  C_23
REMARK                            x       y       z     vdW  Elec       q    Type
REMARK                         _______ _______ _______ _____ _____    ______ ____
ROOT
ATOM      1  C   UNL     1       2.547   3.670  19.330  0.00  0.00    +0.000 C 
ATOM      2  C   UNL     1       3.804   3.165  19.346  0.00  0.00    +0.000 C 
ATOM      3  C   UNL     1       3.708   1.740  18.938  0.00  0.00    +0.000 C 
ATOM      4  O   UNL     1       4.663   1.029  18.685  0.00  0.00    +0.000 OA
ATOM      5  N   UNL     1       2.404   1.427  18.863  0.00  0.00    +0.000 N 
ATOM      6  C   UNL     1       1.648   2.543  18.961  0.00  0.00    +0.000 C 
ATOM      7  O   UNL     1       0.464   2.595  18.688  0.00  0.00    +0.000 OA
ATOM      8  H   UNL     1       2.052   0.548  18.524  0.00  0.00    +0.000 HD
ENDROOT
BRANCH   1  14
ATOM      9  C   UNL     1       2.489   6.111  18.603  0.00  0.00    +0.000 A 
ATOM     10  C   UNL     1       2.069   7.426  18.856  0.00  0.00    +0.000 A 
ATOM     11  C   UNL     1       1.419   7.797  20.042  0.00  0.00    +0.000 A 
ATOM     12  C   UNL     1       1.083   6.775  20.928  0.00  0.00    +0.000 A 
ATOM     13  C   UNL     1       1.450   5.453  20.661  0.00  0.00    +0.000 A 
ATOM     14  C   UNL     1       2.160   5.085  19.499  0.00  0.00    +0.000 A 
BRANCH  11  15
ATOM     15  C   UNL     1       1.186   9.215  20.347  0.00  0.00    +0.000 A 
ATOM     16  C   UNL     1       1.263  10.191  19.339  0.00  0.00    +0.000 A 
ATOM     17  C   UNL     1       1.060  11.536  19.628  0.00  0.00    +0.000 A 
ATOM     18  C   UNL     1       0.794  11.881  20.938  0.00  0.00    +0.000 A 
ATOM     19  N   UNL     1       0.718  10.993  21.949  0.00  0.00    +0.000 NA
ATOM     20  C   UNL     1       0.911   9.688  21.630  0.00  0.00    +0.000 A 
ENDBRANCH  11  15
BRANCH   9  22
ATOM     21  C   UNL     1       3.892   6.964  16.928  0.00  0.00    +0.000 C 
ATOM     22  O   UNL     1       3.182   5.831  17.450  0.00  0.00    +0.000 OA
ENDBRANCH   9  22
ENDBRANCH   1  14
BRANCH   2  23
ATOM     23  N   UNL     1       5.050   3.719  19.553  0.00  0.00    +0.000 N 
ATOM     24  H   UNL     1       5.141   4.125  20.488  0.00  0.00    +0.000 HD
BRANCH  23  25
ATOM     25  C   UNL     1       5.807   4.440  18.599  0.00  0.00    +0.000 A 
ATOM     26  C   UNL     1       6.618   5.495  19.044  0.00  0.00    +0.000 A 
ATOM     27  C   UNL     1       7.435   6.205  18.156  0.00  0.00    +0.000 A 
ATOM     28  C   UNL     1       7.458   5.861  16.807  0.00  0.00    +0.000 A 
ATOM     29  C   UNL     1       6.670   4.807  16.347  0.00  0.00    +0.000 A 
ATOM     30  C   UNL     1       5.853   4.099  17.240  0.00  0.00    +0.000 A 
BRANCH  29  31
ATOM     31  C   UNL     1       6.687   4.446  14.959  0.00  0.00    +0.000 C 
ATOM     32  N   UNL     1       6.709   4.152  13.835  0.00  0.00    +0.000 NA
ENDBRANCH  29  31
ENDBRANCH  23  25
ENDBRANCH   2  23
TORSDOF 6
ENDMDL
MODEL 9
REMARK VINA RESULT:      -7.9      4.227      9.467
REMARK  Name = 
REMARK  7 active torsions:
REMARK  status: ('A' for Active; 'I' for Inactive)
REMARK    1  A    between atoms: C_1  and  O_2
REMARK    2  A    between atoms: O_2  and  C_3
REMARK    3  A    between atoms: C_5  and  C_6
REMARK    4  A    between atoms: C_14  and  C_15
REMARK    5  A    between atoms: C_16  and  N_17
REMARK    6  A    between atoms: N_17  and  C_18
REMARK    7  A    between atoms: C_22  and  C_23
REMARK                            x       y       z     vdW  Elec       q    Type
REMARK                         _______ _______ _______ _____ _____    ______ ____
ROOT
ATOM      1  C   UNL     1       1.164  11.607  18.991  0.00  0.00    +0.000 C 
ATOM      2  C   UNL     1      -0.055  12.158  19.201  0.00  0.00    +0.000 C 
ATOM      3  C   UNL     1       0.078  13.618  18.961  0.00  0.00    +0.000 C 
ATOM      4  O   UNL     1      -0.858  14.395  18.899  0.00  0.00    +0.000 OA
ATOM      5  N   UNL     1       1.382  13.883  18.788  0.00  0.00    +0.000 N 
ATOM      6  C   UNL     1       2.083  12.733  18.668  0.00  0.00    +0.000 C 
ATOM      7  O   UNL     1       3.228  12.667  18.267  0.00  0.00    +0.000 OA
ATOM      8  H   UNL     1       1.746  14.782  18.522  0.00  0.00    +0.000 HD
ENDROOT
BRANCH   1  14
ATOM      9  C   UNL     1       1.339   9.284  20.024  0.00  0.00    +0.000 A 
ATOM     10  C   UNL     1       1.675   7.930  19.874  0.00  0.00    +0.000 A 
ATOM     11  C   UNL     1       2.271   7.423  18.711  0.00  0.00    +0.000 A 
ATOM     12  C   UNL     1       2.411   8.298  17.636  0.00  0.00    +0.000 A 
ATOM     13  C   UNL     1       2.031   9.638  17.756  0.00  0.00    +0.000 A 
ATOM     14  C   UNL     1       1.489  10.167  18.945  0.00  0.00    +0.000 A 
BRANCH  11  15
ATOM     15  C   UNL     1       2.790   6.048  18.682  0.00  0.00    +0.000 A 
ATOM     16  C   UNL     1       2.151   5.053  17.922  0.00  0.00    +0.000 A 
ATOM     17  C   UNL     1       2.628   3.748  17.906  0.00  0.00    +0.000 A 
ATOM     18  C   UNL     1       3.741   3.459  18.671  0.00  0.00    +0.000 A 
ATOM     19  N   UNL     1       4.391   4.366  19.427  0.00  0.00    +0.000 NA
ATOM     20  C   UNL     1       3.903   5.633  19.412  0.00  0.00    +0.000 A 
ENDBRANCH  11  15
BRANCH   9  22
ATOM     21  C   UNL     1      -0.213   8.874  21.735  0.00  0.00    +0.000 C 
ATOM     22  O   UNL     1       0.820   9.727  21.217  0.00  0.00    +0.000 OA
ENDBRANCH   9  22
ENDBRANCH   1  14
BRANCH   2  23
ATOM     23  N   UNL     1      -1.303  11.635  19.471  0.00  0.00    +0.000 N 
ATOM     24  H   UNL     1      -1.282  10.974  20.251  0.00  0.00    +0.000 HD
BRANCH  23  25
ATOM     25  C   UNL     1      -2.276  11.273  18.509  0.00  0.00    +0.000 A 
ATOM     26  C   UNL     1      -1.970  10.254  17.595  0.00  0.00    +0.000 A 
ATOM     27  C   UNL     1      -2.914   9.812  16.661  0.00  0.00    +0.000 A 
ATOM     28  C   UNL     1      -4.185  10.379  16.635  0.00  0.00    +0.000 A 
ATOM     29  C   UNL     1      -4.514  11.384  17.545  0.00  0.00    +0.000 A 
ATOM     30  C   UNL     1      -3.564  11.824  18.478  0.00  0.00    +0.000 A 
BRANCH  29  31
ATOM     31  C   UNL     1      -5.820  11.974  17.525  0.00  0.00    +0.000 C 
ATOM     32  N   UNL     1      -6.877  12.457  17.505  0.00  0.00    +0.000 NA
ENDBRANCH  29  31
ENDBRANCH  23  25
ENDBRANCH   2  23
TORSDOF 6
ENDMDL
