MODEL 1
REMARK VINA RESULT:      -8.3      0.000      0.000
REMARK  Name = 
REMARK  12 active torsions:
REMARK  status: ('A' for Active; 'I' for Inactive)
REMARK    1  A    between atoms: C_1  and  O_2
REMARK    2  A    between atoms: O_2  and  C_3
REMARK    3  A    between atoms: C_8  and  N_9
REMARK    4  A    between atoms: C_14  and  C_15
REMARK    5  A    between atoms: C_19  and  N_20
REMARK    6  A    between atoms: C_21  and  C_23
REMARK    7  A    between atoms: C_23  and  C_24
REMARK    8  A    between atoms: C_24  and  C_25
REMARK    9  A    between atoms: C_25  and  C_26
REMARK   10  A    between atoms: C_26  and  C_27
REMARK   11  A    between atoms: C_27  and  C_28
REMARK   12  A    between atoms: N_30  and  O_31
REMARK                            x       y       z     vdW  Elec       q    Type
REMARK                         _______ _______ _______ _____ _____    ______ ____
ROOT
ATOM      1  C   UNL     1       2.303   5.668  19.332  0.00  0.00    +0.000 A 
ATOM      2  C   UNL     1       2.549   6.313  18.109  0.00  0.00    +0.000 A 
ATOM      3  C   UNL     1       2.401   7.692  17.985  0.00  0.00    +0.000 A 
ATOM      4  C   UNL     1       2.006   8.456  19.080  0.00  0.00    +0.000 A 
ATOM      5  C   UNL     1       1.726   7.853  20.308  0.00  0.00    +0.000 A 
ATOM      6  C   UNL     1       1.846   6.457  20.413  0.00  0.00    +0.000 A 
ENDROOT
BRANCH   1  12
ATOM      7  N   UNL     1       3.994   3.721  19.456  0.00  0.00    +0.000 N 
ATOM      8  C   UNL     1       4.232   2.540  20.166  0.00  0.00    +0.000 C 
ATOM      9  O   UNL     1       5.135   1.734  19.958  0.00  0.00    +0.000 OA
ATOM     10  C   UNL     1       3.276   2.369  21.325  0.00  0.00    +0.000 C 
ATOM     11  S   UNL     1       1.971   3.588  21.137  0.00  0.00    +0.000 S 
ATOM     12  C   UNL     1       2.619   4.192  19.540  0.00  0.00    +0.000 C 
BRANCH   7  18
ATOM     13  C   UNL     1       5.950   4.757  18.423  0.00  0.00    +0.000 A 
ATOM     14  C   UNL     1       6.688   5.107  17.286  0.00  0.00    +0.000 A 
ATOM     15  C   UNL     1       6.313   4.622  16.035  0.00  0.00    +0.000 A 
ATOM     16  C   UNL     1       5.197   3.796  15.916  0.00  0.00    +0.000 A 
ATOM     17  C   UNL     1       4.414   3.504  17.038  0.00  0.00    +0.000 A 
ATOM     18  C   UNL     1       4.763   4.019  18.295  0.00  0.00    +0.000 A 
BRANCH  13  20
ATOM     19  C   UNL     1       7.671   5.606  19.796  0.00  0.00    +0.000 C 
ATOM     20  O   UNL     1       6.361   5.057  19.697  0.00  0.00    +0.000 OA
ENDBRANCH  13  20
ENDBRANCH   7  18
ENDBRANCH   1  12
BRANCH   5  21
ATOM     21  N   UNL     1       1.411   8.590  21.475  0.00  0.00    +0.000 N 
ATOM     22  C   UNL     1       0.155   8.758  22.035  0.00  0.00    +0.000 C 
ATOM     23  O   UNL     1      -0.862   8.128  21.755  0.00  0.00    +0.000 OA
ATOM     24  H   UNL     1       2.179   9.076  21.918  0.00  0.00    +0.000 HD
BRANCH  22  25
ATOM     25  C   UNL     1       0.093   9.849  23.091  0.00  0.00    +0.000 C 
BRANCH  25  26
ATOM     26  C   UNL     1      -1.100  10.792  22.920  0.00  0.00    +0.000 C 
BRANCH  26  27
ATOM     27  C   UNL     1      -1.064  11.671  21.662  0.00  0.00    +0.000 C 
BRANCH  27  28
ATOM     28  C   UNL     1       0.246  12.421  21.402  0.00  0.00    +0.000 C 
BRANCH  28  29
ATOM     29  C   UNL     1       0.217  13.274  20.135  0.00  0.00    +0.000 C 
BRANCH  29  30
ATOM     30  C   UNL     1      -0.166  12.473  18.905  0.00  0.00    +0.000 C 
ATOM     31  O   UNL     1       0.340  11.406  18.577  0.00  0.00    +0.000 OA
ATOM     32  N   UNL     1      -1.171  13.063  18.170  0.00  0.00    +0.000 N 
ATOM     33  H   UNL     1      -1.810  13.745  18.562  0.00  0.00    +0.000 HD
BRANCH  32  34
ATOM     34  O   UNL     1      -1.656  12.298  17.084  0.00  0.00    +0.000 OA
ATOM     35  H   UNL     1      -2.216  11.628  17.537  0.00  0.00    +0.000 HD
ENDBRANCH  32  34
ENDBRANCH  29  30
ENDBRANCH  28  29
ENDBRANCH  27  28
ENDBRANCH  26  27
ENDBRANCH  25  26
ENDBRANCH  22  25
ENDBRANCH   5  21
TORSDOF 11
ENDMDL
MODEL 2
REMARK VINA RESULT:      -8.2      1.063      1.161
REMARK  Name = 
REMARK  12 active torsions:
REMARK  status: ('A' for Active; 'I' for Inactive)
REMARK    1  A    between atoms: C_1  and  O_2
REMARK    2  A    between atoms: O_2  and  C_3
REMARK    3  A    between atoms: C_8  and  N_9
REMARK    4  A    between atoms: C_14  and  C_15
REMARK    5  A    between atoms: C_19  and  N_20
REMARK    6  A    between atoms: C_21  and  C_23
REMARK    7  A    between atoms: C_23  and  C_24
REMARK    8  A    between atoms: C_24  and  C_25
REMARK    9  A    between atoms: C_25  and  C_26
REMARK   10  A    between atoms: C_26  and  C_27
REMARK   11  A    between atoms: C_27  and  C_28
REMARK   12  A    between atoms: N_30  and  O_31
REMARK                            x       y       z     vdW  Elec       q    Type
REMARK                         _______ _______ _______ _____ _____    ______ ____
ROOT
ATOM      1  C   UNL     1       2.316   5.641  19.318  0.00  0.00    +0.000 A 
ATOM      2  C   UNL     1       2.564   6.310  18.109  0.00  0.00    +0.000 A 
ATOM      3  C   UNL     1       2.418   7.691  18.012  0.00  0.00    +0.000 A 
ATOM      4  C   UNL     1       2.021   8.434  19.122  0.00  0.00    +0.000 A 
ATOM      5  C   UNL     1       1.738   7.807  20.337  0.00  0.00    +0.000 A 
ATOM      6  C   UNL     1       1.857   6.408  20.414  0.00  0.00    +0.000 A 
ENDROOT
BRANCH   1  12
ATOM      7  N   UNL     1       4.007   3.692  19.414  0.00  0.00    +0.000 N 
ATOM      8  C   UNL     1       4.239   2.496  20.101  0.00  0.00    +0.000 C 
ATOM      9  O   UNL     1       5.144   1.695  19.882  0.00  0.00    +0.000 OA
ATOM     10  C   UNL     1       3.276   2.301  21.249  0.00  0.00    +0.000 C 
ATOM     11  S   UNL     1       1.972   3.524  21.077  0.00  0.00    +0.000 S 
ATOM     12  C   UNL     1       2.631   4.161  19.498  0.00  0.00    +0.000 C 
BRANCH   7  18
ATOM     13  C   UNL     1       5.963   4.760  18.415  0.00  0.00    +0.000 A 
ATOM     14  C   UNL     1       6.708   5.134  17.290  0.00  0.00    +0.000 A 
ATOM     15  C   UNL     1       6.349   4.664  16.028  0.00  0.00    +0.000 A 
ATOM     16  C   UNL     1       5.242   3.831  15.887  0.00  0.00    +0.000 A 
ATOM     17  C   UNL     1       4.450   3.516  16.997  0.00  0.00    +0.000 A 
ATOM     18  C   UNL     1       4.783   4.014  18.265  0.00  0.00    +0.000 A 
BRANCH  13  20
ATOM     19  C   UNL     1       7.657   5.619  19.815  0.00  0.00    +0.000 C 
ATOM     20  O   UNL     1       6.360   5.044  19.696  0.00  0.00    +0.000 OA
ENDBRANCH  13  20
ENDBRANCH   7  18
ENDBRANCH   1  12
BRANCH   5  21
ATOM     21  N   UNL     1       1.420   8.520  21.518  0.00  0.00    +0.000 N 
ATOM     22  C   UNL     1       0.158   8.719  22.051  0.00  0.00    +0.000 C 
ATOM     23  O   UNL     1      -0.874   8.137  21.727  0.00  0.00    +0.000 OA
ATOM     24  H   UNL     1       2.195   8.963  21.994  0.00  0.00    +0.000 HD
BRANCH  22  25
ATOM     25  C   UNL     1       0.110   9.781  23.137  0.00  0.00    +0.000 C 
BRANCH  25  26
ATOM     26  C   UNL     1      -1.050  10.765  22.973  0.00  0.00    +0.000 C 
BRANCH  26  27
ATOM     27  C   UNL     1      -0.710  12.055  22.214  0.00  0.00    +0.000 C 
BRANCH  27  28
ATOM     28  C   UNL     1       0.213  11.899  21.001  0.00  0.00    +0.000 C 
BRANCH  28  29
ATOM     29  C   UNL     1       0.835  13.215  20.537  0.00  0.00    +0.000 C 
BRANCH  29  30
ATOM     30  C   UNL     1       1.861  13.017  19.437  0.00  0.00    +0.000 C 
ATOM     31  O   UNL     1       2.961  13.558  19.400  0.00  0.00    +0.000 OA
ATOM     32  N   UNL     1       1.441  12.143  18.460  0.00  0.00    +0.000 N 
ATOM     33  H   UNL     1       0.710  11.458  18.613  0.00  0.00    +0.000 HD
BRANCH  32  34
ATOM     34  O   UNL     1       2.407  11.824  17.478  0.00  0.00    +0.000 OA
ATOM     35  H   UNL     1       1.953  12.090  16.647  0.00  0.00    +0.000 HD
ENDBRANCH  32  34
ENDBRANCH  29  30
ENDBRANCH  28  29
ENDBRANCH  27  28
ENDBRANCH  26  27
ENDBRANCH  25  26
ENDBRANCH  22  25
ENDBRANCH   5  21
TORSDOF 11
ENDMDL
MODEL 3
REMARK VINA RESULT:      -8.0      0.848      1.097
REMARK  Name = 
REMARK  12 active torsions:
REMARK  status: ('A' for Active; 'I' for Inactive)
REMARK    1  A    between atoms: C_1  and  O_2
REMARK    2  A    between atoms: O_2  and  C_3
REMARK    3  A    between atoms: C_8  and  N_9
REMARK    4  A    between atoms: C_14  and  C_15
REMARK    5  A    between atoms: C_19  and  N_20
REMARK    6  A    between atoms: C_21  and  C_23
REMARK    7  A    between atoms: C_23  and  C_24
REMARK    8  A    between atoms: C_24  and  C_25
REMARK    9  A    between atoms: C_25  and  C_26
REMARK   10  A    between atoms: C_26  and  C_27
REMARK   11  A    between atoms: C_27  and  C_28
REMARK   12  A    between atoms: N_30  and  O_31
REMARK                            x       y       z     vdW  Elec       q    Type
REMARK                         _______ _______ _______ _____ _____    ______ ____
ROOT
ATOM      1  C   UNL     1       2.291   5.801  19.237  0.00  0.00    +0.000 A 
ATOM      2  C   UNL     1       2.627   6.431  18.029  0.00  0.00    +0.000 A 
ATOM      3  C   UNL     1       2.504   7.810  17.883  0.00  0.00    +0.000 A 
ATOM      4  C   UNL     1       2.045   8.590  18.942  0.00  0.00    +0.000 A 
ATOM      5  C   UNL     1       1.675   8.002  20.153  0.00  0.00    +0.000 A 
ATOM      6  C   UNL     1       1.770   6.605  20.278  0.00  0.00    +0.000 A 
ENDROOT
BRANCH   1  12
ATOM      7  N   UNL     1       3.942   3.826  19.438  0.00  0.00    +0.000 N 
ATOM      8  C   UNL     1       4.140   2.654  20.174  0.00  0.00    +0.000 C 
ATOM      9  O   UNL     1       5.033   1.828  20.002  0.00  0.00    +0.000 OA
ATOM     10  C   UNL     1       3.154   2.521  21.312  0.00  0.00    +0.000 C 
ATOM     11  S   UNL     1       1.877   3.761  21.071  0.00  0.00    +0.000 S 
ATOM     12  C   UNL     1       2.574   4.323  19.479  0.00  0.00    +0.000 C 
BRANCH   7  18
ATOM     13  C   UNL     1       5.934   4.819  18.432  0.00  0.00    +0.000 A 
ATOM     14  C   UNL     1       6.704   5.135  17.306  0.00  0.00    +0.000 A 
ATOM     15  C   UNL     1       6.358   4.622  16.058  0.00  0.00    +0.000 A 
ATOM     16  C   UNL     1       5.238   3.803  15.930  0.00  0.00    +0.000 A 
ATOM     17  C   UNL     1       4.423   3.546  17.037  0.00  0.00    +0.000 A 
ATOM     18  C   UNL     1       4.743   4.089  18.291  0.00  0.00    +0.000 A 
BRANCH  13  20
ATOM     19  C   UNL     1       7.668   5.567  19.847  0.00  0.00    +0.000 C 
ATOM     20  O   UNL     1       6.314   5.147  19.708  0.00  0.00    +0.000 OA
ENDBRANCH  13  20
ENDBRANCH   7  18
ENDBRANCH   1  12
BRANCH   5  21
ATOM     21  N   UNL     1       1.290   8.753  21.290  0.00  0.00    +0.000 N 
ATOM     22  C   UNL     1       0.034   8.788  21.873  0.00  0.00    +0.000 C 
ATOM     23  O   UNL     1      -0.898   8.020  21.651  0.00  0.00    +0.000 OA
ATOM     24  H   UNL     1       1.998   9.356  21.688  0.00  0.00    +0.000 HD
BRANCH  22  25
ATOM     25  C   UNL     1      -0.148   9.918  22.874  0.00  0.00    +0.000 C 
BRANCH  25  26
ATOM     26  C   UNL     1      -0.183  11.303  22.226  0.00  0.00    +0.000 C 
BRANCH  26  27
ATOM     27  C   UNL     1      -1.586  11.869  21.969  0.00  0.00    +0.000 C 
BRANCH  27  28
ATOM     28  C   UNL     1      -1.936  12.165  20.507  0.00  0.00    +0.000 C 
BRANCH  28  29
ATOM     29  C   UNL     1      -1.051  11.421  19.507  0.00  0.00    +0.000 C 
BRANCH  29  30
ATOM     30  C   UNL     1      -0.234  12.361  18.642  0.00  0.00    +0.000 C 
ATOM     31  O   UNL     1      -0.640  13.425  18.188  0.00  0.00    +0.000 OA
ATOM     32  N   UNL     1       1.045  11.907  18.411  0.00  0.00    +0.000 N 
ATOM     33  H   UNL     1       1.502  11.227  19.007  0.00  0.00    +0.000 HD
BRANCH  32  34
ATOM     34  O   UNL     1       1.890  12.804  17.717  0.00  0.00    +0.000 OA
ATOM     35  H   UNL     1       2.704  12.266  17.593  0.00  0.00    +0.000 HD
ENDBRANCH  32  34
ENDBRANCH  29  30
ENDBRANCH  28  29
ENDBRANCH  27  28
ENDBRANCH  26  27
ENDBRANCH  25  26
ENDBRANCH  22  25
ENDBRANCH   5  21
TORSDOF 11
ENDMDL
MODEL 4
REMARK VINA RESULT:      -8.0      0.992      1.107
REMARK  Name = 
REMARK  12 active torsions:
REMARK  status: ('A' for Active; 'I' for Inactive)
REMARK    1  A    between atoms: C_1  and  O_2
REMARK    2  A    between atoms: O_2  and  C_3
REMARK    3  A    between atoms: C_8  and  N_9
REMARK    4  A    between atoms: C_14  and  C_15
REMARK    5  A    between atoms: C_19  and  N_20
REMARK    6  A    between atoms: C_21  and  C_23
REMARK    7  A    between atoms: C_23  and  C_24
REMARK    8  A    between atoms: C_24  and  C_25
REMARK    9  A    between atoms: C_25  and  C_26
REMARK   10  A    between atoms: C_26  and  C_27
REMARK   11  A    between atoms: C_27  and  C_28
REMARK   12  A    between atoms: N_30  and  O_31
REMARK                            x       y       z     vdW  Elec       q    Type
REMARK                         _______ _______ _______ _____ _____    ______ ____
ROOT
ATOM      1  C   UNL     1       2.259   5.818  19.277  0.00  0.00    +0.000 A 
ATOM      2  C   UNL     1       2.574   6.476  18.077  0.00  0.00    +0.000 A 
ATOM      3  C   UNL     1       2.441   7.857  17.962  0.00  0.00    +0.000 A 
ATOM      4  C   UNL     1       1.992   8.611  19.044  0.00  0.00    +0.000 A 
ATOM      5  C   UNL     1       1.643   7.996  20.247  0.00  0.00    +0.000 A 
ATOM      6  C   UNL     1       1.748   6.597  20.341  0.00  0.00    +0.000 A 
ENDROOT
BRANCH   1  12
ATOM      7  N   UNL     1       3.923   3.849  19.407  0.00  0.00    +0.000 N 
ATOM      8  C   UNL     1       4.140   2.663  20.116  0.00  0.00    +0.000 C 
ATOM      9  O   UNL     1       5.034   1.846  19.912  0.00  0.00    +0.000 OA
ATOM     10  C   UNL     1       3.175   2.503  21.269  0.00  0.00    +0.000 C 
ATOM     11  S   UNL     1       1.888   3.740  21.075  0.00  0.00    +0.000 S 
ATOM     12  C   UNL     1       2.554   4.338  19.483  0.00  0.00    +0.000 C 
BRANCH   7  18
ATOM     13  C   UNL     1       5.897   4.862  18.388  0.00  0.00    +0.000 A 
ATOM     14  C   UNL     1       6.646   5.205  17.256  0.00  0.00    +0.000 A 
ATOM     15  C   UNL     1       6.274   4.726  16.002  0.00  0.00    +0.000 A 
ATOM     16  C   UNL     1       5.150   3.914  15.875  0.00  0.00    +0.000 A 
ATOM     17  C   UNL     1       4.355   3.630  16.991  0.00  0.00    +0.000 A 
ATOM     18  C   UNL     1       4.702   4.139  18.252  0.00  0.00    +0.000 A 
BRANCH  13  20
ATOM     19  C   UNL     1       7.655   5.592  19.784  0.00  0.00    +0.000 C 
ATOM     20  O   UNL     1       6.304   5.157  19.664  0.00  0.00    +0.000 OA
ENDBRANCH  13  20
ENDBRANCH   7  18
ENDBRANCH   1  12
BRANCH   5  21
ATOM     21  N   UNL     1       1.269   8.721  21.404  0.00  0.00    +0.000 N 
ATOM     22  C   UNL     1       0.004   8.796  21.962  0.00  0.00    +0.000 C 
ATOM     23  O   UNL     1      -0.960   8.085  21.690  0.00  0.00    +0.000 OA
ATOM     24  H   UNL     1       1.997   9.271  21.841  0.00  0.00    +0.000 HD
BRANCH  22  25
ATOM     25  C   UNL     1      -0.145   9.894  23.003  0.00  0.00    +0.000 C 
BRANCH  25  26
ATOM     26  C   UNL     1      -0.305  11.289  22.396  0.00  0.00    +0.000 C 
BRANCH  26  27
ATOM     27  C   UNL     1      -1.685  11.584  21.790  0.00  0.00    +0.000 C 
BRANCH  27  28
ATOM     28  C   UNL     1      -1.694  12.450  20.527  0.00  0.00    +0.000 C 
BRANCH  28  29
ATOM     29  C   UNL     1      -0.916  11.837  19.363  0.00  0.00    +0.000 C 
BRANCH  29  30
ATOM     30  C   UNL     1      -1.821  11.381  18.235  0.00  0.00    +0.000 C 
ATOM     31  O   UNL     1      -2.973  11.762  18.064  0.00  0.00    +0.000 OA
ATOM     32  N   UNL     1      -1.214  10.482  17.387  0.00  0.00    +0.000 N 
ATOM     33  H   UNL     1      -0.207  10.395  17.308  0.00  0.00    +0.000 HD
BRANCH  32  34
ATOM     34  O   UNL     1      -1.967  10.122  16.246  0.00  0.00    +0.000 OA
ATOM     35  H   UNL     1      -2.329   9.245  16.505  0.00  0.00    +0.000 HD
ENDBRANCH  32  34
ENDBRANCH  29  30
ENDBRANCH  28  29
ENDBRANCH  27  28
ENDBRANCH  26  27
ENDBRANCH  25  26
ENDBRANCH  22  25
ENDBRANCH   5  21
TORSDOF 11
ENDMDL
MODEL 5
REMARK VINA RESULT:      -7.9      2.421      2.876
REMARK  Name = 
REMARK  12 active torsions:
REMARK  status: ('A' for Active; 'I' for Inactive)
REMARK    1  A    between atoms: C_1  and  O_2
REMARK    2  A    between atoms: O_2  and  C_3
REMARK    3  A    between atoms: C_8  and  N_9
REMARK    4  A    between atoms: C_14  and  C_15
REMARK    5  A    between atoms: C_19  and  N_20
REMARK    6  A    between atoms: C_21  and  C_23
REMARK    7  A    between atoms: C_23  and  C_24
REMARK    8  A    between atoms: C_24  and  C_25
REMARK    9  A    between atoms: C_25  and  C_26
REMARK   10  A    between atoms: C_26  and  C_27
REMARK   11  A    between atoms: C_27  and  C_28
REMARK   12  A    between atoms: N_30  and  O_31
REMARK                            x       y       z     vdW  Elec       q    Type
REMARK                         _______ _______ _______ _____ _____    ______ ____
ROOT
ATOM      1  C   UNL     1       2.267   5.942  19.220  0.00  0.00    +0.000 A 
ATOM      2  C   UNL     1       2.621   6.597  18.029  0.00  0.00    +0.000 A 
ATOM      3  C   UNL     1       2.503   7.979  17.910  0.00  0.00    +0.000 A 
ATOM      4  C   UNL     1       2.029   8.737  18.978  0.00  0.00    +0.000 A 
ATOM      5  C   UNL     1       1.640   8.125  20.171  0.00  0.00    +0.000 A 
ATOM      6  C   UNL     1       1.731   6.726  20.269  0.00  0.00    +0.000 A 
ENDROOT
BRANCH   1  12
ATOM      7  N   UNL     1       3.909   3.956  19.371  0.00  0.00    +0.000 N 
ATOM      8  C   UNL     1       4.108   2.771  20.087  0.00  0.00    +0.000 C 
ATOM      9  O   UNL     1       4.994   1.943  19.893  0.00  0.00    +0.000 OA
ATOM     10  C   UNL     1       3.133   2.626  21.234  0.00  0.00    +0.000 C 
ATOM     11  S   UNL     1       1.861   3.876  21.025  0.00  0.00    +0.000 S 
ATOM     12  C   UNL     1       2.544   4.460  19.435  0.00  0.00    +0.000 C 
BRANCH   7  18
ATOM     13  C   UNL     1       5.906   4.935  18.363  0.00  0.00    +0.000 A 
ATOM     14  C   UNL     1       6.667   5.264  17.235  0.00  0.00    +0.000 A 
ATOM     15  C   UNL     1       6.293   4.791  15.979  0.00  0.00    +0.000 A 
ATOM     16  C   UNL     1       5.156   3.998  15.846  0.00  0.00    +0.000 A 
ATOM     17  C   UNL     1       4.351   3.729  16.958  0.00  0.00    +0.000 A 
ATOM     18  C   UNL     1       4.699   4.232  18.220  0.00  0.00    +0.000 A 
BRANCH  13  20
ATOM     19  C   UNL     1       7.655   5.675  19.763  0.00  0.00    +0.000 C 
ATOM     20  O   UNL     1       6.310   5.222  19.641  0.00  0.00    +0.000 OA
ENDBRANCH  13  20
ENDBRANCH   7  18
ENDBRANCH   1  12
BRANCH   5  21
ATOM     21  N   UNL     1       1.238   8.853  21.317  0.00  0.00    +0.000 N 
ATOM     22  C   UNL     1      -0.001   8.809  21.935  0.00  0.00    +0.000 C 
ATOM     23  O   UNL     1      -0.886   7.981  21.740  0.00  0.00    +0.000 OA
ATOM     24  H   UNL     1       1.917   9.502  21.694  0.00  0.00    +0.000 HD
BRANCH  22  25
ATOM     25  C   UNL     1      -0.227   9.927  22.939  0.00  0.00    +0.000 C 
BRANCH  25  26
ATOM     26  C   UNL     1      -0.342  11.309  22.292  0.00  0.00    +0.000 C 
BRANCH  26  27
ATOM     27  C   UNL     1      -1.363  12.253  22.942  0.00  0.00    +0.000 C 
BRANCH  27  28
ATOM     28  C   UNL     1      -2.447  12.813  22.016  0.00  0.00    +0.000 C 
BRANCH  28  29
ATOM     29  C   UNL     1      -3.864  12.636  22.562  0.00  0.00    +0.000 C 
BRANCH  29  30
ATOM     30  C   UNL     1      -4.013  13.169  23.974  0.00  0.00    +0.000 C 
ATOM     31  O   UNL     1      -4.267  12.483  24.958  0.00  0.00    +0.000 OA
ATOM     32  N   UNL     1      -3.825  14.530  24.059  0.00  0.00    +0.000 N 
ATOM     33  H   UNL     1      -3.317  15.059  23.359  0.00  0.00    +0.000 HD
BRANCH  32  34
ATOM     34  O   UNL     1      -3.826  15.061  25.369  0.00  0.00    +0.000 OA
ATOM     35  H   UNL     1      -3.074  15.694  25.337  0.00  0.00    +0.000 HD
ENDBRANCH  32  34
ENDBRANCH  29  30
ENDBRANCH  28  29
ENDBRANCH  27  28
ENDBRANCH  26  27
ENDBRANCH  25  26
ENDBRANCH  22  25
ENDBRANCH   5  21
TORSDOF 11
ENDMDL
MODEL 6
REMARK VINA RESULT:      -7.8      2.287      2.644
REMARK  Name = 
REMARK  12 active torsions:
REMARK  status: ('A' for Active; 'I' for Inactive)
REMARK    1  A    between atoms: C_1  and  O_2
REMARK    2  A    between atoms: O_2  and  C_3
REMARK    3  A    between atoms: C_8  and  N_9
REMARK    4  A    between atoms: C_14  and  C_15
REMARK    5  A    between atoms: C_19  and  N_20
REMARK    6  A    between atoms: C_21  and  C_23
REMARK    7  A    between atoms: C_23  and  C_24
REMARK    8  A    between atoms: C_24  and  C_25
REMARK    9  A    between atoms: C_25  and  C_26
REMARK   10  A    between atoms: C_26  and  C_27
REMARK   11  A    between atoms: C_27  and  C_28
REMARK   12  A    between atoms: N_30  and  O_31
REMARK                            x       y       z     vdW  Elec       q    Type
REMARK                         _______ _______ _______ _____ _____    ______ ____
ROOT
ATOM      1  C   UNL     1       2.293   5.666  19.317  0.00  0.00    +0.000 A 
ATOM      2  C   UNL     1       2.548   6.318  18.099  0.00  0.00    +0.000 A 
ATOM      3  C   UNL     1       2.409   7.698  17.984  0.00  0.00    +0.000 A 
ATOM      4  C   UNL     1       2.014   8.458  19.082  0.00  0.00    +0.000 A 
ATOM      5  C   UNL     1       1.724   7.849  20.304  0.00  0.00    +0.000 A 
ATOM      6  C   UNL     1       1.835   6.451  20.401  0.00  0.00    +0.000 A 
ENDROOT
BRANCH   1  12
ATOM      7  N   UNL     1       3.972   3.709  19.437  0.00  0.00    +0.000 N 
ATOM      8  C   UNL     1       4.198   2.521  20.140  0.00  0.00    +0.000 C 
ATOM      9  O   UNL     1       5.098   1.711  19.931  0.00  0.00    +0.000 OA
ATOM     10  C   UNL     1       3.236   2.349  21.293  0.00  0.00    +0.000 C 
ATOM     11  S   UNL     1       1.939   3.577  21.107  0.00  0.00    +0.000 S 
ATOM     12  C   UNL     1       2.599   4.187  19.517  0.00  0.00    +0.000 C 
BRANCH   7  18
ATOM     13  C   UNL     1       5.952   4.715  18.423  0.00  0.00    +0.000 A 
ATOM     14  C   UNL     1       6.699   5.069  17.293  0.00  0.00    +0.000 A 
ATOM     15  C   UNL     1       6.313   4.616  16.032  0.00  0.00    +0.000 A 
ATOM     16  C   UNL     1       5.177   3.820  15.898  0.00  0.00    +0.000 A 
ATOM     17  C   UNL     1       4.387   3.527  17.015  0.00  0.00    +0.000 A 
ATOM     18  C   UNL     1       4.747   4.009  18.282  0.00  0.00    +0.000 A 
BRANCH  13  20
ATOM     19  C   UNL     1       7.616   5.665  19.801  0.00  0.00    +0.000 C 
ATOM     20  O   UNL     1       6.370   4.982  19.702  0.00  0.00    +0.000 OA
ENDBRANCH  13  20
ENDBRANCH   7  18
ENDBRANCH   1  12
BRANCH   5  21
ATOM     21  N   UNL     1       1.408   8.580  21.475  0.00  0.00    +0.000 N 
ATOM     22  C   UNL     1       0.151   8.747  22.033  0.00  0.00    +0.000 C 
ATOM     23  O   UNL     1      -0.866   8.121  21.747  0.00  0.00    +0.000 OA
ATOM     24  H   UNL     1       2.176   9.062  21.922  0.00  0.00    +0.000 HD
BRANCH  22  25
ATOM     25  C   UNL     1       0.089   9.833  23.094  0.00  0.00    +0.000 C 
BRANCH  25  26
ATOM     26  C   UNL     1      -0.547  11.133  22.596  0.00  0.00    +0.000 C 
BRANCH  26  27
ATOM     27  C   UNL     1      -1.994  11.370  23.053  0.00  0.00    +0.000 C 
BRANCH  27  28
ATOM     28  C   UNL     1      -2.356  12.812  23.420  0.00  0.00    +0.000 C 
BRANCH  28  29
ATOM     29  C   UNL     1      -3.737  12.949  24.059  0.00  0.00    +0.000 C 
BRANCH  29  30
ATOM     30  C   UNL     1      -4.829  13.199  23.035  0.00  0.00    +0.000 C 
ATOM     31  O   UNL     1      -5.463  12.323  22.459  0.00  0.00    +0.000 OA
ATOM     32  N   UNL     1      -5.058  14.538  22.809  0.00  0.00    +0.000 N 
ATOM     33  H   UNL     1      -4.796  15.260  23.471  0.00  0.00    +0.000 HD
BRANCH  32  34
ATOM     34  O   UNL     1      -6.150  14.830  21.961  0.00  0.00    +0.000 OA
ATOM     35  H   UNL     1      -6.116  15.812  21.910  0.00  0.00    +0.000 HD
ENDBRANCH  32  34
ENDBRANCH  29  30
ENDBRANCH  28  29
ENDBRANCH  27  28
ENDBRANCH  26  27
ENDBRANCH  25  26
ENDBRANCH  22  25
ENDBRANCH   5  21
TORSDOF 11
ENDMDL
MODEL 7
REMARK VINA RESULT:      -7.8      2.441      3.219
REMARK  Name = 
REMARK  12 active torsions:
REMARK  status: ('A' for Active; 'I' for Inactive)
REMARK    1  A    between atoms: C_1  and  O_2
REMARK    2  A    between atoms: O_2  and  C_3
REMARK    3  A    between atoms: C_8  and  N_9
REMARK    4  A    between atoms: C_14  and  C_15
REMARK    5  A    between atoms: C_19  and  N_20
REMARK    6  A    between atoms: C_21  and  C_23
REMARK    7  A    between atoms: C_23  and  C_24
REMARK    8  A    between atoms: C_24  and  C_25
REMARK    9  A    between atoms: C_25  and  C_26
REMARK   10  A    between atoms: C_26  and  C_27
REMARK   11  A    between atoms: C_27  and  C_28
REMARK   12  A    between atoms: N_30  and  O_31
REMARK                            x       y       z     vdW  Elec       q    Type
REMARK                         _______ _______ _______ _____ _____    ______ ____
ROOT
ATOM      1  C   UNL     1       2.459   5.914  18.833  0.00  0.00    +0.000 A 
ATOM      2  C   UNL     1       2.693   6.761  17.738  0.00  0.00    +0.000 A 
ATOM      3  C   UNL     1       2.520   8.138  17.848  0.00  0.00    +0.000 A 
ATOM      4  C   UNL     1       2.109   8.699  19.055  0.00  0.00    +0.000 A 
ATOM      5  C   UNL     1       1.840   7.892  20.162  0.00  0.00    +0.000 A 
ATOM      6  C   UNL     1       1.986   6.501  20.030  0.00  0.00    +0.000 A 
ENDROOT
BRANCH   1  12
ATOM      7  N   UNL     1       4.080   3.962  19.307  0.00  0.00    +0.000 N 
ATOM      8  C   UNL     1       4.071   2.623  19.710  0.00  0.00    +0.000 C 
ATOM      9  O   UNL     1       5.046   1.881  19.798  0.00  0.00    +0.000 OA
ATOM     10  C   UNL     1       2.692   2.163  20.127  0.00  0.00    +0.000 C 
ATOM     11  S   UNL     1       1.521   3.424  19.613  0.00  0.00    +0.000 S 
ATOM     12  C   UNL     1       2.803   4.431  18.790  0.00  0.00    +0.000 C 
BRANCH   7  18
ATOM     13  C   UNL     1       5.612   4.437  17.466  0.00  0.00    +0.000 A 
ATOM     14  C   UNL     1       6.819   4.960  16.986  0.00  0.00    +0.000 A 
ATOM     15  C   UNL     1       7.642   5.702  17.830  0.00  0.00    +0.000 A 
ATOM     16  C   UNL     1       7.267   5.914  19.155  0.00  0.00    +0.000 A 
ATOM     17  C   UNL     1       6.099   5.330  19.659  0.00  0.00    +0.000 A 
ATOM     18  C   UNL     1       5.284   4.550  18.826  0.00  0.00    +0.000 A 
BRANCH  13  20
ATOM     19  C   UNL     1       4.978   3.901  15.257  0.00  0.00    +0.000 C 
ATOM     20  O   UNL     1       4.681   3.848  16.648  0.00  0.00    +0.000 OA
ENDBRANCH  13  20
ENDBRANCH   7  18
ENDBRANCH   1  12
BRANCH   5  21
ATOM     21  N   UNL     1       1.510   8.415  21.436  0.00  0.00    +0.000 N 
ATOM     22  C   UNL     1       0.240   8.558  21.969  0.00  0.00    +0.000 C 
ATOM     23  O   UNL     1      -0.796   8.061  21.535  0.00  0.00    +0.000 OA
ATOM     24  H   UNL     1       2.282   8.757  21.992  0.00  0.00    +0.000 HD
BRANCH  22  25
ATOM     25  C   UNL     1       0.188   9.433  23.211  0.00  0.00    +0.000 C 
BRANCH  25  26
ATOM     26  C   UNL     1      -0.927  10.479  23.171  0.00  0.00    +0.000 C 
BRANCH  26  27
ATOM     27  C   UNL     1      -0.711  11.628  22.176  0.00  0.00    +0.000 C 
BRANCH  27  28
ATOM     28  C   UNL     1      -1.223  13.003  22.615  0.00  0.00    +0.000 C 
BRANCH  28  29
ATOM     29  C   UNL     1      -2.744  13.134  22.553  0.00  0.00    +0.000 C 
BRANCH  29  30
ATOM     30  C   UNL     1      -3.378  13.197  23.930  0.00  0.00    +0.000 C 
ATOM     31  O   UNL     1      -3.242  14.123  24.722  0.00  0.00    +0.000 OA
ATOM     32  N   UNL     1      -4.151  12.094  24.218  0.00  0.00    +0.000 N 
ATOM     33  H   UNL     1      -4.534  11.490  23.501  0.00  0.00    +0.000 HD
BRANCH  32  34
ATOM     34  O   UNL     1      -4.867  12.159  25.435  0.00  0.00    +0.000 OA
ATOM     35  H   UNL     1      -4.155  12.034  26.102  0.00  0.00    +0.000 HD
ENDBRANCH  32  34
ENDBRANCH  29  30
ENDBRANCH  28  29
ENDBRANCH  27  28
ENDBRANCH  26  27
ENDBRANCH  25  26
ENDBRANCH  22  25
ENDBRANCH   5  21
TORSDOF 11
ENDMDL
MODEL 8
REMARK VINA RESULT:      -7.7      2.376      2.858
REMARK  Name = 
REMARK  12 active torsions:
REMARK  status: ('A' for Active; 'I' for Inactive)
REMARK    1  A    between atoms: C_1  and  O_2
REMARK    2  A    between atoms: O_2  and  C_3
REMARK    3  A    between atoms: C_8  and  N_9
REMARK    4  A    between atoms: C_14  and  C_15
REMARK    5  A    between atoms: C_19  and  N_20
REMARK    6  A    between atoms: C_21  and  C_23
REMARK    7  A    between atoms: C_23  and  C_24
REMARK    8  A    between atoms: C_24  and  C_25
REMARK    9  A    between atoms: C_25  and  C_26
REMARK   10  A    between atoms: C_26  and  C_27
REMARK   11  A    between atoms: C_27  and  C_28
REMARK   12  A    between atoms: N_30  and  O_31
REMARK                            x       y       z     vdW  Elec       q    Type
REMARK                         _______ _______ _______ _____ _____    ______ ____
ROOT
ATOM      1  C   UNL     1       2.454   5.872  18.948  0.00  0.00    +0.000 A 
ATOM      2  C   UNL     1       2.911   6.466  17.761  0.00  0.00    +0.000 A 
ATOM      3  C   UNL     1       2.832   7.843  17.573  0.00  0.00    +0.000 A 
ATOM      4  C   UNL     1       2.295   8.658  18.568  0.00  0.00    +0.000 A 
ATOM      5  C   UNL     1       1.805   8.107  19.753  0.00  0.00    +0.000 A 
ATOM      6  C   UNL     1       1.859   6.712  19.919  0.00  0.00    +0.000 A 
ENDROOT
BRANCH   1  12
ATOM      7  N   UNL     1       4.037   3.864  19.302  0.00  0.00    +0.000 N 
ATOM      8  C   UNL     1       4.160   2.710  20.082  0.00  0.00    +0.000 C 
ATOM      9  O   UNL     1       5.039   1.857  19.987  0.00  0.00    +0.000 OA
ATOM     10  C   UNL     1       3.106   2.637  21.164  0.00  0.00    +0.000 C 
ATOM     11  S   UNL     1       1.880   3.901  20.812  0.00  0.00    +0.000 S 
ATOM     12  C   UNL     1       2.683   4.397  19.249  0.00  0.00    +0.000 C 
BRANCH   7  18
ATOM     13  C   UNL     1       6.141   4.713  18.400  0.00  0.00    +0.000 A 
ATOM     14  C   UNL     1       6.987   4.976  17.316  0.00  0.00    +0.000 A 
ATOM     15  C   UNL     1       6.666   4.493  16.049  0.00  0.00    +0.000 A 
ATOM     16  C   UNL     1       5.498   3.757  15.861  0.00  0.00    +0.000 A 
ATOM     17  C   UNL     1       4.613   3.556  16.927  0.00  0.00    +0.000 A 
ATOM     18  C   UNL     1       4.910   4.071  18.197  0.00  0.00    +0.000 A 
BRANCH  13  20
ATOM     19  C   UNL     1       7.749   5.638  19.860  0.00  0.00    +0.000 C 
ATOM     20  O   UNL     1       6.481   5.010  19.695  0.00  0.00    +0.000 OA
ENDBRANCH  13  20
ENDBRANCH   7  18
ENDBRANCH   1  12
BRANCH   5  21
ATOM     21  N   UNL     1       1.335   8.894  20.833  0.00  0.00    +0.000 N 
ATOM     22  C   UNL     1       0.371   9.886  20.777  0.00  0.00    +0.000 C 
ATOM     23  O   UNL     1      -0.397  10.109  19.844  0.00  0.00    +0.000 OA
ATOM     24  H   UNL     1       1.783   8.739  21.726  0.00  0.00    +0.000 HD
BRANCH  22  25
ATOM     25  C   UNL     1       0.311  10.757  22.020  0.00  0.00    +0.000 C 
BRANCH  25  26
ATOM     26  C   UNL     1      -1.116  11.079  22.468  0.00  0.00    +0.000 C 
BRANCH  26  27
ATOM     27  C   UNL     1      -1.313  12.479  23.067  0.00  0.00    +0.000 C 
BRANCH  27  28
ATOM     28  C   UNL     1      -2.023  13.500  22.172  0.00  0.00    +0.000 C 
BRANCH  28  29
ATOM     29  C   UNL     1      -3.248  14.135  22.827  0.00  0.00    +0.000 C 
BRANCH  29  30
ATOM     30  C   UNL     1      -4.201  13.103  23.401  0.00  0.00    +0.000 C 
ATOM     31  O   UNL     1      -4.865  12.317  22.735  0.00  0.00    +0.000 OA
ATOM     32  N   UNL     1      -4.248  13.121  24.777  0.00  0.00    +0.000 N 
ATOM     33  H   UNL     1      -3.508  13.514  25.347  0.00  0.00    +0.000 HD
BRANCH  32  34
ATOM     34  O   UNL     1      -5.022  12.096  25.369  0.00  0.00    +0.000 OA
ATOM     35  H   UNL     1      -5.525  12.588  26.056  0.00  0.00    +0.000 HD
ENDBRANCH  32  34
ENDBRANCH  29  30
ENDBRANCH  28  29
ENDBRANCH  27  28
ENDBRANCH  26  27
ENDBRANCH  25  26
ENDBRANCH  22  25
ENDBRANCH   5  21
TORSDOF 11
ENDMDL
MODEL 9
REMARK VINA RESULT:      -7.7      1.590      1.707
REMARK  Name = 
REMARK  12 active torsions:
REMARK  status: ('A' for Active; 'I' for Inactive)
REMARK    1  A    between atoms: C_1  and  O_2
REMARK    2  A    between atoms: O_2  and  C_3
REMARK    3  A    between atoms: C_8  and  N_9
REMARK    4  A    between atoms: C_14  and  C_15
REMARK    5  A    between atoms: C_19  and  N_20
REMARK    6  A    between atoms: C_21  and  C_23
REMARK    7  A    between atoms: C_23  and  C_24
REMARK    8  A    between atoms: C_24  and  C_25
REMARK    9  A    between atoms: C_25  and  C_26
REMARK   10  A    between atoms: C_26  and  C_27
REMARK   11  A    between atoms: C_27  and  C_28
REMARK   12  A    between atoms: N_30  and  O_31
REMARK                            x       y       z     vdW  Elec       q    Type
REMARK                         _______ _______ _______ _____ _____    ______ ____
ROOT
ATOM      1  C   UNL     1       2.283   5.709  19.337  0.00  0.00    +0.000 A 
ATOM      2  C   UNL     1       2.566   6.382  18.138  0.00  0.00    +0.000 A 
ATOM      3  C   UNL     1       2.430   7.765  18.044  0.00  0.00    +0.000 A 
ATOM      4  C   UNL     1       2.009   8.505  19.146  0.00  0.00    +0.000 A 
ATOM      5  C   UNL     1       1.692   7.874  20.351  0.00  0.00    +0.000 A 
ATOM      6  C   UNL     1       1.800   6.475  20.424  0.00  0.00    +0.000 A 
ENDROOT
BRANCH   1  12
ATOM      7  N   UNL     1       3.957   3.746  19.440  0.00  0.00    +0.000 N 
ATOM      8  C   UNL     1       4.176   2.548  20.127  0.00  0.00    +0.000 C 
ATOM      9  O   UNL     1       5.075   1.739  19.912  0.00  0.00    +0.000 OA
ATOM     10  C   UNL     1       3.206   2.361  21.271  0.00  0.00    +0.000 C 
ATOM     11  S   UNL     1       1.913   3.595  21.094  0.00  0.00    +0.000 S 
ATOM     12  C   UNL     1       2.584   4.227  19.517  0.00  0.00    +0.000 C 
BRANCH   7  18
ATOM     13  C   UNL     1       5.922   4.804  18.448  0.00  0.00    +0.000 A 
ATOM     14  C   UNL     1       6.675   5.171  17.327  0.00  0.00    +0.000 A 
ATOM     15  C   UNL     1       6.321   4.699  16.064  0.00  0.00    +0.000 A 
ATOM     16  C   UNL     1       5.211   3.870  15.919  0.00  0.00    +0.000 A 
ATOM     17  C   UNL     1       4.413   3.561  17.026  0.00  0.00    +0.000 A 
ATOM     18  C   UNL     1       4.740   4.062  18.294  0.00  0.00    +0.000 A 
BRANCH  13  20
ATOM     19  C   UNL     1       7.625   5.629  19.858  0.00  0.00    +0.000 C 
ATOM     20  O   UNL     1       6.313   5.091  19.731  0.00  0.00    +0.000 OA
ENDBRANCH  13  20
ENDBRANCH   7  18
ENDBRANCH   1  12
BRANCH   5  21
ATOM     21  N   UNL     1       1.349   8.584  21.526  0.00  0.00    +0.000 N 
ATOM     22  C   UNL     1       0.080   8.739  22.061  0.00  0.00    +0.000 C 
ATOM     23  O   UNL     1      -0.928   8.115  21.743  0.00  0.00    +0.000 OA
ATOM     24  H   UNL     1       2.107   9.060  21.998  0.00  0.00    +0.000 HD
BRANCH  22  25
ATOM     25  C   UNL     1      -0.007   9.806  23.139  0.00  0.00    +0.000 C 
BRANCH  25  26
ATOM     26  C   UNL     1      -0.712  11.082  22.674  0.00  0.00    +0.000 C 
BRANCH  26  27
ATOM     27  C   UNL     1      -0.252  11.625  21.313  0.00  0.00    +0.000 C 
BRANCH  27  28
ATOM     28  C   UNL     1      -1.363  12.020  20.336  0.00  0.00    +0.000 C 
BRANCH  28  29
ATOM     29  C   UNL     1      -2.612  12.568  21.024  0.00  0.00    +0.000 C 
BRANCH  29  30
ATOM     30  C   UNL     1      -2.786  14.060  20.810  0.00  0.00    +0.000 C 
ATOM     31  O   UNL     1      -1.901  14.896  20.952  0.00  0.00    +0.000 OA
ATOM     32  N   UNL     1      -4.062  14.403  20.421  0.00  0.00    +0.000 N 
ATOM     33  H   UNL     1      -4.703  13.743  19.997  0.00  0.00    +0.000 HD
BRANCH  32  34
ATOM     34  O   UNL     1      -4.247  15.764  20.085  0.00  0.00    +0.000 OA
ATOM     35  H   UNL     1      -3.338  16.127  20.186  0.00  0.00    +0.000 HD
ENDBRANCH  32  34
ENDBRANCH  29  30
ENDBRANCH  28  29
ENDBRANCH  27  28
ENDBRANCH  26  27
ENDBRANCH  25  26
ENDBRANCH  22  25
ENDBRANCH   5  21
TORSDOF 11
ENDMDL
