MODEL 1
REMARK VINA RESULT:      -4.9      0.000      0.000
REMARK  Name = 
REMARK  12 active torsions:
REMARK  status: ('A' for Active; 'I' for Inactive)
REMARK    1  A    between atoms: C_2  and  C_3
REMARK    2  A    between atoms: C_3  and  C_4
REMARK    3  A    between atoms: C_4  and  N_5
REMARK    4  A    between atoms: N_9  and  C_10
REMARK    5  A    between atoms: C_10  and  C_11
REMARK    6  A    between atoms: C_11  and  C_12
REMARK    7  A    between atoms: N_16  and  C_17
REMARK    8  A    between atoms: C_17  and  C_18
REMARK    9  A    between atoms: C_18  and  C_19
REMARK   10  A    between atoms: N_24  and  C_25
REMARK   11  A    between atoms: C_25  and  C_26
REMARK   12  A    between atoms: C_26  and  C_27
REMARK                            x       y       z     vdW  Elec       q    Type
REMARK                         _______ _______ _______ _____ _____    ______ ____
ROOT
ATOM      1  N   UNL     1      10.518  11.745  18.598  0.00  0.00    +0.000 NA
ATOM      2  C   UNL     1      11.072  11.865  19.986  0.00  0.00    +0.000 C 
ATOM      3  C   UNL     1      10.242  12.316  21.457  0.00  0.00    +0.000 C 
ATOM      4  C   UNL     1       9.289  13.761  22.039  0.00  0.00    +0.000 C 
ATOM      5  N   UNL     1       7.924  14.564  21.529  0.00  0.00    +0.000 NA
ATOM      6  C   UNL     1       7.999  16.097  21.594  0.00  0.00    +0.000 C 
ATOM      7  C   UNL     1       8.767  17.092  20.519  0.00  0.00    +0.000 C 
ATOM      8  N   UNL     1       8.576  17.314  18.991  0.00  0.00    +0.000 NA
ATOM      9  C   UNL     1       9.780  17.932  18.409  0.00  0.00    +0.000 C 
ATOM     10  C   UNL     1      10.195  17.405  17.022  0.00  0.00    +0.000 C 
ATOM     11  C   UNL     1      11.179  16.153  16.919  0.00  0.00    +0.000 C 
ATOM     12  N   UNL     1      10.820  14.785  17.426  0.00  0.00    +0.000 NA
ATOM     13  C   UNL     1      11.459  13.605  16.797  0.00  0.00    +0.000 C 
ATOM     14  C   UNL     1      11.437  12.144  17.459  0.00  0.00    +0.000 C 
ENDROOT
BRANCH   1  15
ATOM     15  C   UNL     1       9.118  11.465  18.186  0.00  0.00    +0.000 C 
BRANCH  15  16
ATOM     16  C   UNL     1       8.274  10.140  17.795  0.00  0.00    +0.000 C 
BRANCH  16  18
ATOM     17  N   UNL     1       7.808   7.404  17.975  0.00  0.00    +0.000 NA
ATOM     18  C   UNL     1       8.019   8.644  17.893  0.00  0.00    +0.000 C 
ENDBRANCH  16  18
ENDBRANCH  15  16
ENDBRANCH   1  15
BRANCH   5  19
ATOM     19  C   UNL     1       6.458  14.059  21.699  0.00  0.00    +0.000 C 
BRANCH  19  20
ATOM     20  C   UNL     1       5.830  13.109  22.950  0.00  0.00    +0.000 C 
BRANCH  20  21
ATOM     21  C   UNL     1       6.245  13.258  24.400  0.00  0.00    +0.000 C 
ATOM     22  N   UNL     1       6.743  13.289  25.493  0.00  0.00    +0.000 NA
ENDBRANCH  20  21
ENDBRANCH  19  20
ENDBRANCH   5  19
BRANCH   8  23
ATOM     23  C   UNL     1       8.041  16.200  18.146  0.00  0.00    +0.000 C 
BRANCH  23  24
ATOM     24  C   UNL     1       6.709  15.287  17.588  0.00  0.00    +0.000 C 
BRANCH  24  25
ATOM     25  C   UNL     1       5.350  14.829  18.092  0.00  0.00    +0.000 C 
ATOM     26  N   UNL     1       4.223  14.449  18.511  0.00  0.00    +0.000 NA
ENDBRANCH  24  25
ENDBRANCH  23  24
ENDBRANCH   8  23
BRANCH  12  27
ATOM     27  C   UNL     1      10.684  14.678  18.833  0.00  0.00    +0.000 C 
BRANCH  27  28
ATOM     28  C   UNL     1      11.775  15.240  19.753  0.00  0.00    +0.000 C 
BRANCH  28  29
ATOM     29  C   UNL     1      12.058  16.323  20.736  0.00  0.00    +0.000 C 
ATOM     30  N   UNL     1      12.332  17.176  21.478  0.00  0.00    +0.000 NA
ENDBRANCH  28  29
ENDBRANCH  27  28
ENDBRANCH  12  27
TORSDOF 12
ENDMDL
MODEL 2
REMARK VINA RESULT:      -4.4      9.213     13.499
REMARK  Name = 
REMARK  12 active torsions:
REMARK  status: ('A' for Active; 'I' for Inactive)
REMARK    1  A    between atoms: C_2  and  C_3
REMARK    2  A    between atoms: C_3  and  C_4
REMARK    3  A    between atoms: C_4  and  N_5
REMARK    4  A    between atoms: N_9  and  C_10
REMARK    5  A    between atoms: C_10  and  C_11
REMARK    6  A    between atoms: C_11  and  C_12
REMARK    7  A    between atoms: N_16  and  C_17
REMARK    8  A    between atoms: C_17  and  C_18
REMARK    9  A    between atoms: C_18  and  C_19
REMARK   10  A    between atoms: N_24  and  C_25
REMARK   11  A    between atoms: C_25  and  C_26
REMARK   12  A    between atoms: C_26  and  C_27
REMARK                            x       y       z     vdW  Elec       q    Type
REMARK                         _______ _______ _______ _____ _____    ______ ____
ROOT
ATOM      1  N   UNL     1      -2.091  17.204  20.817  0.00  0.00    +0.000 NA
ATOM      2  C   UNL     1      -1.923  17.382  22.296  0.00  0.00    +0.000 C 
ATOM      3  C   UNL     1      -1.372  16.218  23.480  0.00  0.00    +0.000 C 
ATOM      4  C   UNL     1      -1.902  14.564  24.044  0.00  0.00    +0.000 C 
ATOM      5  N   UNL     1      -2.130  13.083  23.324  0.00  0.00    +0.000 NA
ATOM      6  C   UNL     1      -3.386  12.320  23.771  0.00  0.00    +0.000 C 
ATOM      7  C   UNL     1      -4.938  12.598  23.273  0.00  0.00    +0.000 C 
ATOM      8  N   UNL     1      -5.598  12.563  21.865  0.00  0.00    +0.000 NA
ATOM      9  C   UNL     1      -6.858  13.328  21.870  0.00  0.00    +0.000 C 
ATOM     10  C   UNL     1      -7.130  14.173  20.611  0.00  0.00    +0.000 C 
ATOM     11  C   UNL     1      -6.592  15.674  20.541  0.00  0.00    +0.000 C 
ATOM     12  N   UNL     1      -5.131  16.022  20.563  0.00  0.00    +0.000 NA
ATOM     13  C   UNL     1      -4.692  17.282  19.916  0.00  0.00    +0.000 C 
ATOM     14  C   UNL     1      -3.250  17.936  20.169  0.00  0.00    +0.000 C 
ENDROOT
BRANCH   1  15
ATOM     15  C   UNL     1      -1.385  16.253  19.918  0.00  0.00    +0.000 C 
BRANCH  15  16
ATOM     16  C   UNL     1      -0.128  16.342  18.902  0.00  0.00    +0.000 C 
BRANCH  16  18
ATOM     17  N   UNL     1       1.984  17.741  17.754  0.00  0.00    +0.000 NA
ATOM     18  C   UNL     1       1.026  17.107  18.274  0.00  0.00    +0.000 C 
ENDBRANCH  16  18
ENDBRANCH  15  16
ENDBRANCH   1  15
BRANCH   5  19
ATOM     19  C   UNL     1      -0.998  12.105  22.882  0.00  0.00    +0.000 C 
BRANCH  19  20
ATOM     20  C   UNL     1      -0.939  10.428  23.095  0.00  0.00    +0.000 C 
BRANCH  20  21
ATOM     21  C   UNL     1      -0.222   9.491  22.145  0.00  0.00    +0.000 C 
ATOM     22  N   UNL     1       0.261   8.603  21.496  0.00  0.00    +0.000 NA
ENDBRANCH  20  21
ENDBRANCH  19  20
ENDBRANCH   5  19
BRANCH   8  23
ATOM     23  C   UNL     1      -4.766  12.845  20.653  0.00  0.00    +0.000 C 
BRANCH  23  24
ATOM     24  C   UNL     1      -3.665  12.298  19.466  0.00  0.00    +0.000 C 
BRANCH  24  25
ATOM     25  C   UNL     1      -2.196  11.920  19.362  0.00  0.00    +0.000 C 
ATOM     26  N   UNL     1      -0.978  11.606  19.276  0.00  0.00    +0.000 NA
ENDBRANCH  24  25
ENDBRANCH  23  24
ENDBRANCH   8  23
BRANCH  12  27
ATOM     27  C   UNL     1      -4.462  15.744  21.781  0.00  0.00    +0.000 C 
BRANCH  27  28
ATOM     28  C   UNL     1      -5.129  16.092  23.119  0.00  0.00    +0.000 C 
BRANCH  28  29
ATOM     29  C   UNL     1      -4.928  16.853  24.383  0.00  0.00    +0.000 C 
ATOM     30  N   UNL     1      -4.720  17.468  25.348  0.00  0.00    +0.000 NA
ENDBRANCH  28  29
ENDBRANCH  27  28
ENDBRANCH  12  27
TORSDOF 12
ENDMDL
MODEL 3
REMARK VINA RESULT:      -4.4      9.727     13.270
REMARK  Name = 
REMARK  12 active torsions:
REMARK  status: ('A' for Active; 'I' for Inactive)
REMARK    1  A    between atoms: C_2  and  C_3
REMARK    2  A    between atoms: C_3  and  C_4
REMARK    3  A    between atoms: C_4  and  N_5
REMARK    4  A    between atoms: N_9  and  C_10
REMARK    5  A    between atoms: C_10  and  C_11
REMARK    6  A    between atoms: C_11  and  C_12
REMARK    7  A    between atoms: N_16  and  C_17
REMARK    8  A    between atoms: C_17  and  C_18
REMARK    9  A    between atoms: C_18  and  C_19
REMARK   10  A    between atoms: N_24  and  C_25
REMARK   11  A    between atoms: C_25  and  C_26
REMARK   12  A    between atoms: C_26  and  C_27
REMARK                            x       y       z     vdW  Elec       q    Type
REMARK                         _______ _______ _______ _____ _____    ______ ____
ROOT
ATOM      1  N   UNL     1      -2.158  17.844  21.527  0.00  0.00    +0.000 NA
ATOM      2  C   UNL     1      -0.949  17.648  22.392  0.00  0.00    +0.000 C 
ATOM      3  C   UNL     1       0.269  16.397  22.298  0.00  0.00    +0.000 C 
ATOM      4  C   UNL     1       0.290  14.573  22.379  0.00  0.00    +0.000 C 
ATOM      5  N   UNL     1      -0.429  13.341  21.525  0.00  0.00    +0.000 NA
ATOM      6  C   UNL     1      -0.964  12.177  22.372  0.00  0.00    +0.000 C 
ATOM      7  C   UNL     1      -2.372  12.154  23.239  0.00  0.00    +0.000 C 
ATOM      8  N   UNL     1      -3.857  12.330  22.812  0.00  0.00    +0.000 NA
ATOM      9  C   UNL     1      -4.685  12.698  23.974  0.00  0.00    +0.000 C 
ATOM     10  C   UNL     1      -5.779  13.750  23.706  0.00  0.00    +0.000 C 
ATOM     11  C   UNL     1      -5.433  15.300  23.867  0.00  0.00    +0.000 C 
ATOM     12  N   UNL     1      -4.423  16.007  23.010  0.00  0.00    +0.000 NA
ATOM     13  C   UNL     1      -4.575  17.465  22.790  0.00  0.00    +0.000 C 
ATOM     14  C   UNL     1      -3.401  18.387  22.204  0.00  0.00    +0.000 C 
ENDROOT
BRANCH   1  15
ATOM     15  C   UNL     1      -2.367  17.401  20.123  0.00  0.00    +0.000 C 
BRANCH  15  16
ATOM     16  C   UNL     1      -1.927  17.945  18.664  0.00  0.00    +0.000 C 
BRANCH  16  18
ATOM     17  N   UNL     1      -0.019  18.318  16.675  0.00  0.00    +0.000 NA
ATOM     18  C   UNL     1      -0.884  18.148  17.576  0.00  0.00    +0.000 C 
ENDBRANCH  16  18
ENDBRANCH  15  16
ENDBRANCH   1  15
BRANCH   5  19
ATOM     19  C   UNL     1      -0.014  12.862  20.099  0.00  0.00    +0.000 C 
BRANCH  19  20
ATOM     20  C   UNL     1      -0.938  12.905  18.683  0.00  0.00    +0.000 C 
BRANCH  20  21
ATOM     21  C   UNL     1      -1.717  11.716  18.159  0.00  0.00    +0.000 C 
ATOM     22  N   UNL     1      -2.166  10.671  17.769  0.00  0.00    +0.000 NA
ENDBRANCH  20  21
ENDBRANCH  19  20
ENDBRANCH   5  19
BRANCH   8  23
ATOM     23  C   UNL     1      -4.183  13.146  21.599  0.00  0.00    +0.000 C 
BRANCH  23  24
ATOM     24  C   UNL     1      -4.995  13.294  20.102  0.00  0.00    +0.000 C 
BRANCH  24  25
ATOM     25  C   UNL     1      -5.320  12.433  18.892  0.00  0.00    +0.000 C 
ATOM     26  N   UNL     1      -5.590  11.720  17.888  0.00  0.00    +0.000 NA
ENDBRANCH  24  25
ENDBRANCH  23  24
ENDBRANCH   8  23
BRANCH  12  27
ATOM     27  C   UNL     1      -3.079  15.596  23.195  0.00  0.00    +0.000 C 
BRANCH  27  28
ATOM     28  C   UNL     1      -2.532  15.377  24.612  0.00  0.00    +0.000 C 
BRANCH  28  29
ATOM     29  C   UNL     1      -1.330  15.585  25.466  0.00  0.00    +0.000 C 
ATOM     30  N   UNL     1      -0.386  15.801  26.109  0.00  0.00    +0.000 NA
ENDBRANCH  28  29
ENDBRANCH  27  28
ENDBRANCH  12  27
TORSDOF 12
ENDMDL
MODEL 4
REMARK VINA RESULT:      -4.4      8.654     11.767
REMARK  Name = 
REMARK  12 active torsions:
REMARK  status: ('A' for Active; 'I' for Inactive)
REMARK    1  A    between atoms: C_2  and  C_3
REMARK    2  A    between atoms: C_3  and  C_4
REMARK    3  A    between atoms: C_4  and  N_5
REMARK    4  A    between atoms: N_9  and  C_10
REMARK    5  A    between atoms: C_10  and  C_11
REMARK    6  A    between atoms: C_11  and  C_12
REMARK    7  A    between atoms: N_16  and  C_17
REMARK    8  A    between atoms: C_17  and  C_18
REMARK    9  A    between atoms: C_18  and  C_19
REMARK   10  A    between atoms: N_24  and  C_25
REMARK   11  A    between atoms: C_25  and  C_26
REMARK   12  A    between atoms: C_26  and  C_27
REMARK                            x       y       z     vdW  Elec       q    Type
REMARK                         _______ _______ _______ _____ _____    ______ ____
ROOT
ATOM      1  N   UNL     1      -1.332  12.189  19.763  0.00  0.00    +0.000 NA
ATOM      2  C   UNL     1      -0.649  11.828  21.048  0.00  0.00    +0.000 C 
ATOM      3  C   UNL     1      -1.230  12.027  22.686  0.00  0.00    +0.000 C 
ATOM      4  C   UNL     1      -1.783  13.423  23.724  0.00  0.00    +0.000 C 
ATOM      5  N   UNL     1      -2.972  14.581  23.617  0.00  0.00    +0.000 NA
ATOM      6  C   UNL     1      -2.552  15.998  24.037  0.00  0.00    +0.000 C 
ATOM      7  C   UNL     1      -1.676  17.073  23.137  0.00  0.00    +0.000 C 
ATOM      8  N   UNL     1      -1.941  17.723  21.749  0.00  0.00    +0.000 NA
ATOM      9  C   UNL     1      -0.684  18.227  21.169  0.00  0.00    +0.000 C 
ATOM     10  C   UNL     1      -0.517  18.016  19.652  0.00  0.00    +0.000 C 
ATOM     11  C   UNL     1       0.151  16.668  19.117  0.00  0.00    +0.000 C 
ATOM     12  N   UNL     1      -0.460  15.312  19.325  0.00  0.00    +0.000 NA
ATOM     13  C   UNL     1      -0.156  14.239  18.349  0.00  0.00    +0.000 C 
ATOM     14  C   UNL     1      -0.447  12.689  18.637  0.00  0.00    +0.000 C 
ENDROOT
BRANCH   1  15
ATOM     15  C   UNL     1      -2.790  12.305  19.495  0.00  0.00    +0.000 C 
BRANCH  15  16
ATOM     16  C   UNL     1      -4.100  12.664  20.376  0.00  0.00    +0.000 C 
BRANCH  16  18
ATOM     17  N   UNL     1      -6.839  13.081  20.612  0.00  0.00    +0.000 NA
ATOM     18  C   UNL     1      -5.597  12.892  20.505  0.00  0.00    +0.000 C 
ENDBRANCH  16  18
ENDBRANCH  15  16
ENDBRANCH   1  15
BRANCH   5  19
ATOM     19  C   UNL     1      -4.494  14.344  23.863  0.00  0.00    +0.000 C 
BRANCH  19  20
ATOM     20  C   UNL     1      -5.272  12.878  24.196  0.00  0.00    +0.000 C 
BRANCH  20  21
ATOM     21  C   UNL     1      -6.769  12.683  24.080  0.00  0.00    +0.000 C 
ATOM     22  N   UNL     1      -7.912  12.352  23.909  0.00  0.00    +0.000 NA
ENDBRANCH  20  21
ENDBRANCH  19  20
ENDBRANCH   5  19
BRANCH   8  23
ATOM     23  C   UNL     1      -2.781  16.998  20.743  0.00  0.00    +0.000 C 
BRANCH  23  24
ATOM     24  C   UNL     1      -4.266  16.263  20.324  0.00  0.00    +0.000 C 
BRANCH  24  25
ATOM     25  C   UNL     1      -5.589  16.652  19.684  0.00  0.00    +0.000 C 
ATOM     26  N   UNL     1      -6.687  16.973  19.153  0.00  0.00    +0.000 NA
ENDBRANCH  24  25
ENDBRANCH  23  24
ENDBRANCH   8  23
BRANCH  12  27
ATOM     27  C   UNL     1      -0.496  14.866  20.670  0.00  0.00    +0.000 C 
BRANCH  27  28
ATOM     28  C   UNL     1       0.771  14.930  21.533  0.00  0.00    +0.000 C 
BRANCH  28  29
ATOM     29  C   UNL     1       2.190  14.482  21.594  0.00  0.00    +0.000 C 
ATOM     30  N   UNL     1       3.281  14.082  21.615  0.00  0.00    +0.000 NA
ENDBRANCH  28  29
ENDBRANCH  27  28
ENDBRANCH  12  27
TORSDOF 12
ENDMDL
MODEL 5
REMARK VINA RESULT:      -4.3      9.744     14.189
REMARK  Name = 
REMARK  12 active torsions:
REMARK  status: ('A' for Active; 'I' for Inactive)
REMARK    1  A    between atoms: C_2  and  C_3
REMARK    2  A    between atoms: C_3  and  C_4
REMARK    3  A    between atoms: C_4  and  N_5
REMARK    4  A    between atoms: N_9  and  C_10
REMARK    5  A    between atoms: C_10  and  C_11
REMARK    6  A    between atoms: C_11  and  C_12
REMARK    7  A    between atoms: N_16  and  C_17
REMARK    8  A    between atoms: C_17  and  C_18
REMARK    9  A    between atoms: C_18  and  C_19
REMARK   10  A    between atoms: N_24  and  C_25
REMARK   11  A    between atoms: C_25  and  C_26
REMARK   12  A    between atoms: C_26  and  C_27
REMARK                            x       y       z     vdW  Elec       q    Type
REMARK                         _______ _______ _______ _____ _____    ______ ____
ROOT
ATOM      1  N   UNL     1      -6.281  13.278  19.712  0.00  0.00    +0.000 NA
ATOM      2  C   UNL     1      -6.636  14.734  19.670  0.00  0.00    +0.000 C 
ATOM      3  C   UNL     1      -5.572  16.112  19.499  0.00  0.00    +0.000 C 
ATOM      4  C   UNL     1      -4.147  16.796  20.413  0.00  0.00    +0.000 C 
ATOM      5  N   UNL     1      -2.647  16.235  20.861  0.00  0.00    +0.000 NA
ATOM      6  C   UNL     1      -2.207  16.599  22.287  0.00  0.00    +0.000 C 
ATOM      7  C   UNL     1      -2.698  15.869  23.687  0.00  0.00    +0.000 C 
ATOM      8  N   UNL     1      -2.585  14.400  24.186  0.00  0.00    +0.000 NA
ATOM      9  C   UNL     1      -3.566  14.145  25.256  0.00  0.00    +0.000 C 
ATOM     10  C   UNL     1      -4.256  12.768  25.213  0.00  0.00    +0.000 C 
ATOM     11  C   UNL     1      -5.603  12.590  24.375  0.00  0.00    +0.000 C 
ATOM     12  N   UNL     1      -5.669  12.765  22.885  0.00  0.00    +0.000 NA
ATOM     13  C   UNL     1      -6.716  12.036  22.131  0.00  0.00    +0.000 C 
ATOM     14  C   UNL     1      -7.117  12.398  20.621  0.00  0.00    +0.000 C 
ENDROOT
BRANCH   1  15
ATOM     15  C   UNL     1      -5.094  12.602  19.124  0.00  0.00    +0.000 C 
BRANCH  15  16
ATOM     16  C   UNL     1      -3.542  12.423  19.545  0.00  0.00    +0.000 C 
BRANCH  16  18
ATOM     17  N   UNL     1      -0.847  12.209  18.891  0.00  0.00    +0.000 NA
ATOM     18  C   UNL     1      -2.069  12.306  19.188  0.00  0.00    +0.000 C 
ENDBRANCH  16  18
ENDBRANCH  15  16
ENDBRANCH   1  15
BRANCH   5  19
ATOM     19  C   UNL     1      -1.420  16.069  19.912  0.00  0.00    +0.000 C 
BRANCH  19  20
ATOM     20  C   UNL     1       0.199  15.841  20.346  0.00  0.00    +0.000 C 
BRANCH  20  21
ATOM     21  C   UNL     1       0.677  14.693  21.211  0.00  0.00    +0.000 C 
ATOM     22  N   UNL     1       0.900  13.826  22.012  0.00  0.00    +0.000 NA
ENDBRANCH  20  21
ENDBRANCH  19  20
ENDBRANCH   5  19
BRANCH   8  23
ATOM     23  C   UNL     1      -2.527  13.285  23.189  0.00  0.00    +0.000 C 
BRANCH  23  24
ATOM     24  C   UNL     1      -2.042  11.696  22.787  0.00  0.00    +0.000 C 
BRANCH  24  25
ATOM     25  C   UNL     1      -0.905  10.737  23.103  0.00  0.00    +0.000 C 
ATOM     26  N   UNL     1       0.037   9.941  23.365  0.00  0.00    +0.000 NA
ENDBRANCH  24  25
ENDBRANCH  23  24
ENDBRANCH   8  23
BRANCH  12  27
ATOM     27  C   UNL     1      -5.449  14.086  22.421  0.00  0.00    +0.000 C 
BRANCH  27  28
ATOM     28  C   UNL     1      -6.119  15.270  23.131  0.00  0.00    +0.000 C 
BRANCH  28  29
ATOM     29  C   UNL     1      -6.878  16.527  22.885  0.00  0.00    +0.000 C 
ATOM     30  N   UNL     1      -7.512  17.477  22.663  0.00  0.00    +0.000 NA
ENDBRANCH  28  29
ENDBRANCH  27  28
ENDBRANCH  12  27
TORSDOF 12
ENDMDL
MODEL 6
REMARK VINA RESULT:      -4.3      2.113      3.832
REMARK  Name = 
REMARK  12 active torsions:
REMARK  status: ('A' for Active; 'I' for Inactive)
REMARK    1  A    between atoms: C_2  and  C_3
REMARK    2  A    between atoms: C_3  and  C_4
REMARK    3  A    between atoms: C_4  and  N_5
REMARK    4  A    between atoms: N_9  and  C_10
REMARK    5  A    between atoms: C_10  and  C_11
REMARK    6  A    between atoms: C_11  and  C_12
REMARK    7  A    between atoms: N_16  and  C_17
REMARK    8  A    between atoms: C_17  and  C_18
REMARK    9  A    between atoms: C_18  and  C_19
REMARK   10  A    between atoms: N_24  and  C_25
REMARK   11  A    between atoms: C_25  and  C_26
REMARK   12  A    between atoms: C_26  and  C_27
REMARK                            x       y       z     vdW  Elec       q    Type
REMARK                         _______ _______ _______ _____ _____    ______ ____
ROOT
ATOM      1  N   UNL     1       9.835  12.404  19.076  0.00  0.00    +0.000 NA
ATOM      2  C   UNL     1      11.003  13.324  18.879  0.00  0.00    +0.000 C 
ATOM      3  C   UNL     1      11.702  14.458  20.012  0.00  0.00    +0.000 C 
ATOM      4  C   UNL     1      11.112  15.903  20.960  0.00  0.00    +0.000 C 
ATOM      5  N   UNL     1       9.917  16.174  22.084  0.00  0.00    +0.000 NA
ATOM      6  C   UNL     1       9.128  17.480  21.905  0.00  0.00    +0.000 C 
ATOM      7  C   UNL     1       7.915  17.756  20.815  0.00  0.00    +0.000 C 
ATOM      8  N   UNL     1       6.537  17.067  20.600  0.00  0.00    +0.000 NA
ATOM      9  C   UNL     1       6.033  17.341  19.242  0.00  0.00    +0.000 C 
ATOM     10  C   UNL     1       5.338  16.160  18.538  0.00  0.00    +0.000 C 
ATOM     11  C   UNL     1       6.207  15.146  17.664  0.00  0.00    +0.000 C 
ATOM     12  N   UNL     1       7.283  14.276  18.248  0.00  0.00    +0.000 NA
ATOM     13  C   UNL     1       7.609  12.999  17.568  0.00  0.00    +0.000 C 
ATOM     14  C   UNL     1       8.944  12.165  17.873  0.00  0.00    +0.000 C 
ENDROOT
BRANCH   1  15
ATOM     15  C   UNL     1       9.316  11.835  20.348  0.00  0.00    +0.000 C 
BRANCH  15  16
ATOM     16  C   UNL     1       8.857  12.436  21.779  0.00  0.00    +0.000 C 
BRANCH  16  18
ATOM     17  N   UNL     1       8.214  12.115  24.465  0.00  0.00    +0.000 NA
ATOM     18  C   UNL     1       8.506  12.261  23.247  0.00  0.00    +0.000 C 
ENDBRANCH  16  18
ENDBRANCH  15  16
ENDBRANCH   1  15
BRANCH   5  19
ATOM     19  C   UNL     1       9.966  15.741  23.582  0.00  0.00    +0.000 C 
BRANCH  19  20
ATOM     20  C   UNL     1       8.916  16.201  24.826  0.00  0.00    +0.000 C 
BRANCH  20  21
ATOM     21  C   UNL     1       7.503  15.673  24.963  0.00  0.00    +0.000 C 
ATOM     22  N   UNL     1       6.377  15.264  24.874  0.00  0.00    +0.000 NA
ENDBRANCH  20  21
ENDBRANCH  19  20
ENDBRANCH   5  19
BRANCH   8  23
ATOM     23  C   UNL     1       6.360  15.633  20.994  0.00  0.00    +0.000 C 
BRANCH  23  24
ATOM     24  C   UNL     1       5.342  14.374  21.542  0.00  0.00    +0.000 C 
BRANCH  24  25
ATOM     25  C   UNL     1       3.866  14.010  21.517  0.00  0.00    +0.000 C 
ATOM     26  N   UNL     1       2.643  13.707  21.497  0.00  0.00    +0.000 NA
ENDBRANCH  24  25
ENDBRANCH  23  24
ENDBRANCH   8  23
BRANCH  12  27
ATOM     27  C   UNL     1       8.419  14.967  18.739  0.00  0.00    +0.000 C 
BRANCH  27  28
ATOM     28  C   UNL     1       9.080  16.058  17.886  0.00  0.00    +0.000 C 
BRANCH  28  29
ATOM     29  C   UNL     1      10.385  16.487  17.311  0.00  0.00    +0.000 C 
ATOM     30  N   UNL     1      11.406  16.865  16.903  0.00  0.00    +0.000 NA
ENDBRANCH  28  29
ENDBRANCH  27  28
ENDBRANCH  12  27
TORSDOF 12
ENDMDL
MODEL 7
REMARK VINA RESULT:      -4.2      8.995     13.172
REMARK  Name = 
REMARK  12 active torsions:
REMARK  status: ('A' for Active; 'I' for Inactive)
REMARK    1  A    between atoms: C_2  and  C_3
REMARK    2  A    between atoms: C_3  and  C_4
REMARK    3  A    between atoms: C_4  and  N_5
REMARK    4  A    between atoms: N_9  and  C_10
REMARK    5  A    between atoms: C_10  and  C_11
REMARK    6  A    between atoms: C_11  and  C_12
REMARK    7  A    between atoms: N_16  and  C_17
REMARK    8  A    between atoms: C_17  and  C_18
REMARK    9  A    between atoms: C_18  and  C_19
REMARK   10  A    between atoms: N_24  and  C_25
REMARK   11  A    between atoms: C_25  and  C_26
REMARK   12  A    between atoms: C_26  and  C_27
REMARK                            x       y       z     vdW  Elec       q    Type
REMARK                         _______ _______ _______ _____ _____    ______ ____
ROOT
ATOM      1  N   UNL     1      -1.613  16.961  20.663  0.00  0.00    +0.000 NA
ATOM      2  C   UNL     1      -1.404  17.127  22.139  0.00  0.00    +0.000 C 
ATOM      3  C   UNL     1      -0.893  15.933  23.310  0.00  0.00    +0.000 C 
ATOM      4  C   UNL     1      -1.500  14.310  23.885  0.00  0.00    +0.000 C 
ATOM      5  N   UNL     1      -1.824  12.845  23.169  0.00  0.00    +0.000 NA
ATOM      6  C   UNL     1      -3.110  12.150  23.643  0.00  0.00    +0.000 C 
ATOM      7  C   UNL     1      -4.655  12.513  23.178  0.00  0.00    +0.000 C 
ATOM      8  N   UNL     1      -5.345  12.516  21.784  0.00  0.00    +0.000 NA
ATOM      9  C   UNL     1      -6.561  13.349  21.816  0.00  0.00    +0.000 C 
ATOM     10  C   UNL     1      -6.813  14.209  20.563  0.00  0.00    +0.000 C 
ATOM     11  C   UNL     1      -6.196  15.679  20.482  0.00  0.00    +0.000 C 
ATOM     12  N   UNL     1      -4.718  15.947  20.474  0.00  0.00    +0.000 NA
ATOM     13  C   UNL     1      -4.225  17.181  19.818  0.00  0.00    +0.000 C 
ATOM     14  C   UNL     1      -2.744  17.756  20.040  0.00  0.00    +0.000 C 
ENDROOT
BRANCH   1  15
ATOM     15  C   UNL     1      -0.980  15.974  19.749  0.00  0.00    +0.000 C 
BRANCH  15  16
ATOM     16  C   UNL     1       0.272  14.952  19.843  0.00  0.00    +0.000 C 
BRANCH  16  18
ATOM     17  N   UNL     1       2.166  13.544  21.315  0.00  0.00    +0.000 NA
ATOM     18  C   UNL     1       1.307  14.182  20.648  0.00  0.00    +0.000 C 
ENDBRANCH  16  18
ENDBRANCH  15  16
ENDBRANCH   1  15
BRANCH   5  19
ATOM     19  C   UNL     1      -0.756  11.807  22.704  0.00  0.00    +0.000 C 
BRANCH  19  20
ATOM     20  C   UNL     1      -0.858  10.732  21.402  0.00  0.00    +0.000 C 
BRANCH  20  21
ATOM     21  C   UNL     1      -0.574  11.128  19.968  0.00  0.00    +0.000 C 
ATOM     22  N   UNL     1      -0.175  11.351  18.856  0.00  0.00    +0.000 NA
ENDBRANCH  20  21
ENDBRANCH  19  20
ENDBRANCH   5  19
BRANCH   8  23
ATOM     23  C   UNL     1      -4.524  12.754  20.555  0.00  0.00    +0.000 C 
BRANCH  23  24
ATOM     24  C   UNL     1      -4.124  12.328  18.949  0.00  0.00    +0.000 C 
BRANCH  24  25
ATOM     25  C   UNL     1      -3.771  11.080  18.155  0.00  0.00    +0.000 C 
ATOM     26  N   UNL     1      -3.478  10.045  17.498  0.00  0.00    +0.000 NA
ENDBRANCH  24  25
ENDBRANCH  23  24
ENDBRANCH   8  23
BRANCH  12  27
ATOM     27  C   UNL     1      -4.040  15.631  21.677  0.00  0.00    +0.000 C 
BRANCH  27  28
ATOM     28  C   UNL     1      -4.653  16.022  23.028  0.00  0.00    +0.000 C 
BRANCH  28  29
ATOM     29  C   UNL     1      -4.365  16.747  24.297  0.00  0.00    +0.000 C 
ATOM     30  N   UNL     1      -4.199  17.327  25.291  0.00  0.00    +0.000 NA
ENDBRANCH  28  29
ENDBRANCH  27  28
ENDBRANCH  12  27
TORSDOF 12
ENDMDL
MODEL 8
REMARK VINA RESULT:      -4.2      9.038     13.038
REMARK  Name = 
REMARK  12 active torsions:
REMARK  status: ('A' for Active; 'I' for Inactive)
REMARK    1  A    between atoms: C_2  and  C_3
REMARK    2  A    between atoms: C_3  and  C_4
REMARK    3  A    between atoms: C_4  and  N_5
REMARK    4  A    between atoms: N_9  and  C_10
REMARK    5  A    between atoms: C_10  and  C_11
REMARK    6  A    between atoms: C_11  and  C_12
REMARK    7  A    between atoms: N_16  and  C_17
REMARK    8  A    between atoms: C_17  and  C_18
REMARK    9  A    between atoms: C_18  and  C_19
REMARK   10  A    between atoms: N_24  and  C_25
REMARK   11  A    between atoms: C_25  and  C_26
REMARK   12  A    between atoms: C_26  and  C_27
REMARK                            x       y       z     vdW  Elec       q    Type
REMARK                         _______ _______ _______ _____ _____    ______ ____
ROOT
ATOM      1  N   UNL     1      -0.127  13.887  19.482  0.00  0.00    +0.000 NA
ATOM      2  C   UNL     1      -0.457  12.446  19.229  0.00  0.00    +0.000 C 
ATOM      3  C   UNL     1      -1.968  11.752  18.686  0.00  0.00    +0.000 C 
ATOM      4  C   UNL     1      -3.694  11.729  19.281  0.00  0.00    +0.000 C 
ATOM      5  N   UNL     1      -4.842  12.880  19.630  0.00  0.00    +0.000 NA
ATOM      6  C   UNL     1      -5.664  12.627  20.903  0.00  0.00    +0.000 C 
ATOM      7  C   UNL     1      -5.178  12.900  22.460  0.00  0.00    +0.000 C 
ATOM      8  N   UNL     1      -4.719  14.194  23.192  0.00  0.00    +0.000 NA
ATOM      9  C   UNL     1      -3.953  13.853  24.403  0.00  0.00    +0.000 C 
ATOM     10  C   UNL     1      -2.728  14.743  24.690  0.00  0.00    +0.000 C 
ATOM     11  C   UNL     1      -1.310  14.350  24.071  0.00  0.00    +0.000 C 
ATOM     12  N   UNL     1      -1.044  14.312  22.594  0.00  0.00    +0.000 NA
ATOM     13  C   UNL     1       0.342  14.536  22.117  0.00  0.00    +0.000 C 
ATOM     14  C   UNL     1       0.821  14.179  20.629  0.00  0.00    +0.000 C 
ENDROOT
BRANCH   1  15
ATOM     15  C   UNL     1      -0.751  15.094  18.879  0.00  0.00    +0.000 C 
BRANCH  15  16
ATOM     16  C   UNL     1      -0.279  16.616  18.593  0.00  0.00    +0.000 C 
BRANCH  16  18
ATOM     17  N   UNL     1       1.410  18.457  17.371  0.00  0.00    +0.000 NA
ATOM     18  C   UNL     1       0.644  17.623  17.925  0.00  0.00    +0.000 C 
ENDBRANCH  16  18
ENDBRANCH  15  16
ENDBRANCH   1  15
BRANCH   5  19
ATOM     19  C   UNL     1      -5.659  13.694  18.579  0.00  0.00    +0.000 C 
BRANCH  19  20
ATOM     20  C   UNL     1      -6.686  15.009  18.860  0.00  0.00    +0.000 C 
BRANCH  20  21
ATOM     21  C   UNL     1      -6.983  16.072  17.823  0.00  0.00    +0.000 C 
ATOM     22  N   UNL     1      -7.055  16.850  16.910  0.00  0.00    +0.000 NA
ENDBRANCH  20  21
ENDBRANCH  19  20
ENDBRANCH   5  19
BRANCH   8  23
ATOM     23  C   UNL     1      -4.081  15.298  22.407  0.00  0.00    +0.000 C 
BRANCH  23  24
ATOM     24  C   UNL     1      -3.921  16.154  20.936  0.00  0.00    +0.000 C 
BRANCH  24  25
ATOM     25  C   UNL     1      -3.424  17.507  20.453  0.00  0.00    +0.000 C 
ATOM     26  N   UNL     1      -3.010  18.629  20.052  0.00  0.00    +0.000 NA
ENDBRANCH  24  25
ENDBRANCH  23  24
ENDBRANCH   8  23
BRANCH  12  27
ATOM     27  C   UNL     1      -1.736  13.301  21.881  0.00  0.00    +0.000 C 
BRANCH  27  28
ATOM     28  C   UNL     1      -1.694  11.849  22.376  0.00  0.00    +0.000 C 
BRANCH  28  29
ATOM     29  C   UNL     1      -0.807  10.836  23.011  0.00  0.00    +0.000 C 
ATOM     30  N   UNL     1      -0.075  10.052  23.462  0.00  0.00    +0.000 NA
ENDBRANCH  28  29
ENDBRANCH  27  28
ENDBRANCH  12  27
TORSDOF 12
ENDMDL
MODEL 9
REMARK VINA RESULT:      -4.2      9.948     14.361
REMARK  Name = 
REMARK  12 active torsions:
REMARK  status: ('A' for Active; 'I' for Inactive)
REMARK    1  A    between atoms: C_2  and  C_3
REMARK    2  A    between atoms: C_3  and  C_4
REMARK    3  A    between atoms: C_4  and  N_5
REMARK    4  A    between atoms: N_9  and  C_10
REMARK    5  A    between atoms: C_10  and  C_11
REMARK    6  A    between atoms: C_11  and  C_12
REMARK    7  A    between atoms: N_16  and  C_17
REMARK    8  A    between atoms: C_17  and  C_18
REMARK    9  A    between atoms: C_18  and  C_19
REMARK   10  A    between atoms: N_24  and  C_25
REMARK   11  A    between atoms: C_25  and  C_26
REMARK   12  A    between atoms: C_26  and  C_27
REMARK                            x       y       z     vdW  Elec       q    Type
REMARK                         _______ _______ _______ _____ _____    ______ ____
ROOT
ATOM      1  N   UNL     1      -6.655  14.076  19.510  0.00  0.00    +0.000 NA
ATOM      2  C   UNL     1      -6.820  15.554  19.696  0.00  0.00    +0.000 C 
ATOM      3  C   UNL     1      -5.601  16.806  19.623  0.00  0.00    +0.000 C 
ATOM      4  C   UNL     1      -4.041  17.176  20.498  0.00  0.00    +0.000 C 
ATOM      5  N   UNL     1      -2.600  16.382  20.737  0.00  0.00    +0.000 NA
ATOM      6  C   UNL     1      -2.021  16.481  22.157  0.00  0.00    +0.000 C 
ATOM      7  C   UNL     1      -2.508  15.620  23.481  0.00  0.00    +0.000 C 
ATOM      8  N   UNL     1      -2.553  14.091  23.766  0.00  0.00    +0.000 NA
ATOM      9  C   UNL     1      -3.485  13.802  24.870  0.00  0.00    +0.000 C 
ATOM     10  C   UNL     1      -4.348  12.538  24.700  0.00  0.00    +0.000 C 
ATOM     11  C   UNL     1      -5.760  12.644  23.963  0.00  0.00    +0.000 C 
ATOM     12  N   UNL     1      -5.903  13.040  22.521  0.00  0.00    +0.000 NA
ATOM     13  C   UNL     1      -7.084  12.557  21.767  0.00  0.00    +0.000 C 
ATOM     14  C   UNL     1      -7.535  13.179  20.359  0.00  0.00    +0.000 C 
ENDROOT
BRANCH   1  15
ATOM     15  C   UNL     1      -5.608  13.355  18.738  0.00  0.00    +0.000 C 
BRANCH  15  16
ATOM     16  C   UNL     1      -5.205  11.805  18.509  0.00  0.00    +0.000 C 
BRANCH  16  18
ATOM     17  N   UNL     1      -3.480   9.852  17.537  0.00  0.00    +0.000 NA
ATOM     18  C   UNL     1      -4.262  10.737  17.978  0.00  0.00    +0.000 C 
ENDBRANCH  16  18
ENDBRANCH  15  16
ENDBRANCH   1  15
BRANCH   5  19
ATOM     19  C   UNL     1      -1.471  16.211  19.674  0.00  0.00    +0.000 C 
BRANCH  19  20
ATOM     20  C   UNL     1      -0.977  17.327  18.502  0.00  0.00    +0.000 C 
BRANCH  20  21
ATOM     21  C   UNL     1       0.456  17.796  18.349  0.00  0.00    +0.000 C 
ATOM     22  N   UNL     1       1.639  17.975  18.238  0.00  0.00    +0.000 NA
ENDBRANCH  20  21
ENDBRANCH  19  20
ENDBRANCH   5  19
BRANCH   8  23
ATOM     23  C   UNL     1      -2.707  13.133  22.626  0.00  0.00    +0.000 C 
BRANCH  23  24
ATOM     24  C   UNL     1      -2.438  12.748  20.982  0.00  0.00    +0.000 C 
BRANCH  24  25
ATOM     25  C   UNL     1      -1.524  11.859  20.155  0.00  0.00    +0.000 C 
ATOM     26  N   UNL     1      -0.765  11.122  19.469  0.00  0.00    +0.000 NA
ENDBRANCH  24  25
ENDBRANCH  23  24
ENDBRANCH   8  23
BRANCH  12  27
ATOM     27  C   UNL     1      -5.545  14.379  22.224  0.00  0.00    +0.000 C 
BRANCH  27  28
ATOM     28  C   UNL     1      -6.154  15.533  23.031  0.00  0.00    +0.000 C 
BRANCH  28  29
ATOM     29  C   UNL     1      -5.802  16.754  23.806  0.00  0.00    +0.000 C 
ATOM     30  N   UNL     1      -5.552  17.683  24.460  0.00  0.00    +0.000 NA
ENDBRANCH  28  29
ENDBRANCH  27  28
ENDBRANCH  12  27
TORSDOF 12
ENDMDL
