MODEL 1
REMARK VINA RESULT:      -6.8      0.000      0.000
REMARK  Name = 
REMARK  10 active torsions:
REMARK  status: ('A' for Active; 'I' for Inactive)
REMARK    1  A    between atoms: C_1  and  C_2
REMARK    2  A    between atoms: N_4  and  C_5
REMARK    3  A    between atoms: C_5  and  C_6
REMARK    4  A    between atoms: C_5  and  C_7
REMARK    5  A    between atoms: C_7  and  O_8
REMARK    6  A    between atoms: C_19  and  C_20
REMARK    7  A    between atoms: C_20  and  N_21
REMARK    8  A    between atoms: N_21  and  C_22
REMARK    9  A    between atoms: N_21  and  C_23
REMARK   10  A    between atoms: C_23  and  C_24
REMARK                            x       y       z     vdW  Elec       q    Type
REMARK                         _______ _______ _______ _____ _____    ______ ____
ROOT
ATOM      1  C   UNL     1       1.863   5.836  21.363  0.00  0.00    +0.000 C 
ATOM      2  C   UNL     1       2.813   5.945  20.154  0.00  0.00    +0.000 C 
ATOM      3  C   UNL     1       3.598   4.623  19.990  0.00  0.00    +0.000 C 
ATOM      4  N   UNL     1       2.942   3.537  19.244  0.00  0.00    +0.000 N 
ATOM      5  C   UNL     1       3.179   3.340  17.877  0.00  0.00    +0.000 C 
ATOM      6  O   UNL     1       2.817   2.364  17.233  0.00  0.00    +0.000 OA
ATOM      7  C   UNL     1       3.915   4.404  17.177  0.00  0.00    +0.000 A 
ATOM      8  C   UNL     1       5.158   4.167  16.590  0.00  0.00    +0.000 A 
ATOM      9  C   UNL     1       5.859   5.261  16.091  0.00  0.00    +0.000 A 
ATOM     10 BR   UNL     1       7.584   5.039  15.364  0.00  0.00    +0.000 Br
ATOM     11  C   UNL     1       5.287   6.527  16.177  0.00  0.00    +0.000 A 
ATOM     12  N   UNL     1       4.072   6.769  16.726  0.00  0.00    +0.000 NA
ATOM     13  C   UNL     1       3.418   5.699  17.217  0.00  0.00    +0.000 A 
ATOM     14  O   UNL     1       2.145   5.883  17.682  0.00  0.00    +0.000 OA
ATOM     15  C   UNL     1       2.027   6.552  18.938  0.00  0.00    +0.000 C 
ENDROOT
BRANCH   4  16
ATOM     16  C   UNL     1       2.136   2.553  20.012  0.00  0.00    +0.000 C 
ATOM     17  C   UNL     1       0.629   2.792  19.900  0.00  0.00    +0.000 C 
BRANCH  16  18
ATOM     18  C   UNL     1       2.554   2.460  21.493  0.00  0.00    +0.000 C 
BRANCH  18  19
ATOM     19  O   UNL     1       1.406   2.445  22.341  0.00  0.00    +0.000 OA
ATOM     20  H   UNL     1       0.891   3.231  22.077  0.00  0.00    +0.000 HD
ENDBRANCH  18  19
ENDBRANCH  16  18
ENDBRANCH   4  16
BRANCH  15  21
ATOM     21  C   UNL     1       2.180   8.111  18.835  0.00  0.00    +0.000 C 
BRANCH  21  22
ATOM     22  N   UNL     1       1.083   8.975  19.342  0.00  0.00    +0.000 NA
ATOM     23  C   UNL     1       1.308   9.395  20.725  0.00  0.00    +0.000 C 
BRANCH  22  24
ATOM     24  C   UNL     1       0.825  10.105  18.438  0.00  0.00    +0.000 C 
BRANCH  24  25
ATOM     25  C   UNL     1      -0.631  10.489  18.280  0.00  0.00    +0.000 A 
ATOM     26  C   UNL     1      -1.434   9.789  17.361  0.00  0.00    +0.000 A 
ATOM     27  C   UNL     1      -2.787  10.095  17.227  0.00  0.00    +0.000 A 
ATOM     28  C   UNL     1      -3.337  11.102  18.009  0.00  0.00    +0.000 A 
ATOM     29  F   UNL     1      -4.642  11.385  17.892  0.00  0.00    +0.000 F 
ATOM     30  C   UNL     1      -2.559  11.820  18.909  0.00  0.00    +0.000 A 
ATOM     31  C   UNL     1      -1.201  11.515  19.045  0.00  0.00    +0.000 A 
ENDBRANCH  24  25
ENDBRANCH  22  24
ENDBRANCH  21  22
ENDBRANCH  15  21
TORSDOF 7
ENDMDL
MODEL 2
REMARK VINA RESULT:      -6.6      3.945      7.004
REMARK  Name = 
REMARK  10 active torsions:
REMARK  status: ('A' for Active; 'I' for Inactive)
REMARK    1  A    between atoms: C_1  and  C_2
REMARK    2  A    between atoms: N_4  and  C_5
REMARK    3  A    between atoms: C_5  and  C_6
REMARK    4  A    between atoms: C_5  and  C_7
REMARK    5  A    between atoms: C_7  and  O_8
REMARK    6  A    between atoms: C_19  and  C_20
REMARK    7  A    between atoms: C_20  and  N_21
REMARK    8  A    between atoms: N_21  and  C_22
REMARK    9  A    between atoms: N_21  and  C_23
REMARK   10  A    between atoms: C_23  and  C_24
REMARK                            x       y       z     vdW  Elec       q    Type
REMARK                         _______ _______ _______ _____ _____    ______ ____
ROOT
ATOM      1  C   UNL     1       2.940   2.158  17.151  0.00  0.00    +0.000 C 
ATOM      2  C   UNL     1       2.754   3.680  17.318  0.00  0.00    +0.000 C 
ATOM      3  C   UNL     1       1.673   3.954  18.391  0.00  0.00    +0.000 C 
ATOM      4  N   UNL     1       2.105   3.958  19.798  0.00  0.00    +0.000 N 
ATOM      5  C   UNL     1       2.443   5.148  20.457  0.00  0.00    +0.000 C 
ATOM      6  O   UNL     1       2.636   5.255  21.662  0.00  0.00    +0.000 OA
ATOM      7  C   UNL     1       2.579   6.349  19.620  0.00  0.00    +0.000 A 
ATOM      8  C   UNL     1       1.744   7.455  19.787  0.00  0.00    +0.000 A 
ATOM      9  C   UNL     1       1.831   8.481  18.851  0.00  0.00    +0.000 A 
ATOM     10 BR   UNL     1       0.676   9.967  18.955  0.00  0.00    +0.000 Br
ATOM     11  C   UNL     1       2.751   8.373  17.813  0.00  0.00    +0.000 A 
ATOM     12  N   UNL     1       3.582   7.316  17.650  0.00  0.00    +0.000 NA
ATOM     13  C   UNL     1       3.471   6.326  18.556  0.00  0.00    +0.000 A 
ATOM     14  O   UNL     1       4.362   5.291  18.491  0.00  0.00    +0.000 OA
ATOM     15  C   UNL     1       4.163   4.360  17.427  0.00  0.00    +0.000 C 
ENDROOT
BRANCH   4  16
ATOM     16  C   UNL     1       2.027   2.681  20.553  0.00  0.00    +0.000 C 
ATOM     17  C   UNL     1       0.976   2.702  21.664  0.00  0.00    +0.000 C 
BRANCH  16  18
ATOM     18  C   UNL     1       3.391   2.231  21.114  0.00  0.00    +0.000 C 
BRANCH  18  19
ATOM     19  O   UNL     1       4.429   2.466  20.163  0.00  0.00    +0.000 OA
ATOM     20  H   UNL     1       4.538   3.436  20.148  0.00  0.00    +0.000 HD
ENDBRANCH  18  19
ENDBRANCH  16  18
ENDBRANCH   4  16
BRANCH  15  21
ATOM     21  C   UNL     1       4.700   4.868  16.041  0.00  0.00    +0.000 C 
BRANCH  21  22
ATOM     22  N   UNL     1       5.493   3.939  15.194  0.00  0.00    +0.000 NA
ATOM     23  C   UNL     1       5.299   4.195  13.767  0.00  0.00    +0.000 C 
BRANCH  22  24
ATOM     24  C   UNL     1       6.909   3.932  15.584  0.00  0.00    +0.000 C 
BRANCH  24  25
ATOM     25  C   UNL     1       7.313   5.000  16.580  0.00  0.00    +0.000 A 
ATOM     26  C   UNL     1       7.277   6.352  16.195  0.00  0.00    +0.000 A 
ATOM     27  C   UNL     1       7.603   7.355  17.106  0.00  0.00    +0.000 A 
ATOM     28  C   UNL     1       7.967   7.008  18.399  0.00  0.00    +0.000 A 
ATOM     29  F   UNL     1       8.265   7.974  19.280  0.00  0.00    +0.000 F 
ATOM     30  C   UNL     1       8.028   5.678  18.797  0.00  0.00    +0.000 A 
ATOM     31  C   UNL     1       7.702   4.669  17.885  0.00  0.00    +0.000 A 
ENDBRANCH  24  25
ENDBRANCH  22  24
ENDBRANCH  21  22
ENDBRANCH  15  21
TORSDOF 7
ENDMDL
MODEL 3
REMARK VINA RESULT:      -6.5      4.030      7.458
REMARK  Name = 
REMARK  10 active torsions:
REMARK  status: ('A' for Active; 'I' for Inactive)
REMARK    1  A    between atoms: C_1  and  C_2
REMARK    2  A    between atoms: N_4  and  C_5
REMARK    3  A    between atoms: C_5  and  C_6
REMARK    4  A    between atoms: C_5  and  C_7
REMARK    5  A    between atoms: C_7  and  O_8
REMARK    6  A    between atoms: C_19  and  C_20
REMARK    7  A    between atoms: C_20  and  N_21
REMARK    8  A    between atoms: N_21  and  C_22
REMARK    9  A    between atoms: N_21  and  C_23
REMARK   10  A    between atoms: C_23  and  C_24
REMARK                            x       y       z     vdW  Elec       q    Type
REMARK                         _______ _______ _______ _____ _____    ______ ____
ROOT
ATOM      1  C   UNL     1       3.670   3.371  16.862  0.00  0.00    +0.000 C 
ATOM      2  C   UNL     1       3.176   4.814  17.081  0.00  0.00    +0.000 C 
ATOM      3  C   UNL     1       1.883   4.796  17.931  0.00  0.00    +0.000 C 
ATOM      4  N   UNL     1       2.038   4.739  19.393  0.00  0.00    +0.000 N 
ATOM      5  C   UNL     1       2.019   5.901  20.178  0.00  0.00    +0.000 C 
ATOM      6  O   UNL     1       1.963   5.924  21.401  0.00  0.00    +0.000 OA
ATOM      7  C   UNL     1       2.082   7.182  19.458  0.00  0.00    +0.000 A 
ATOM      8  C   UNL     1       1.039   8.107  19.522  0.00  0.00    +0.000 A 
ATOM      9  C   UNL     1       1.104   9.218  18.687  0.00  0.00    +0.000 A 
ATOM     10 BR   UNL     1      -0.306  10.467  18.647  0.00  0.00    +0.000 Br
ATOM     11  C   UNL     1       2.206   9.369  17.848  0.00  0.00    +0.000 A 
ATOM     12  N   UNL     1       3.234   8.490  17.790  0.00  0.00    +0.000 NA
ATOM     13  C   UNL     1       3.144   7.414  18.595  0.00  0.00    +0.000 A 
ATOM     14  O   UNL     1       4.209   6.558  18.646  0.00  0.00    +0.000 OA
ATOM     15  C   UNL     1       4.389   5.713  17.509  0.00  0.00    +0.000 C 
ENDROOT
BRANCH   4  16
ATOM     16  C   UNL     1       2.062   3.401  20.038  0.00  0.00    +0.000 C 
ATOM     17  C   UNL     1       3.472   2.825  20.176  0.00  0.00    +0.000 C 
BRANCH  16  18
ATOM     18  C   UNL     1       1.133   2.385  19.346  0.00  0.00    +0.000 C 
BRANCH  18  19
ATOM     19  O   UNL     1       1.887   1.302  18.804  0.00  0.00    +0.000 OA
ATOM     20  H   UNL     1       1.642   1.275  17.859  0.00  0.00    +0.000 HD
ENDBRANCH  18  19
ENDBRANCH  16  18
ENDBRANCH   4  16
BRANCH  15  21
ATOM     21  C   UNL     1       5.068   6.435  16.292  0.00  0.00    +0.000 C 
BRANCH  21  22
ATOM     22  N   UNL     1       6.545   6.593  16.284  0.00  0.00    +0.000 NA
ATOM     23  C   UNL     1       7.038   7.226  17.508  0.00  0.00    +0.000 C 
BRANCH  22  24
ATOM     24  C   UNL     1       7.221   5.322  15.988  0.00  0.00    +0.000 C 
BRANCH  24  25
ATOM     25  C   UNL     1       6.934   4.739  14.620  0.00  0.00    +0.000 A 
ATOM     26  C   UNL     1       7.700   5.156  13.516  0.00  0.00    +0.000 A 
ATOM     27  C   UNL     1       7.483   4.604  12.256  0.00  0.00    +0.000 A 
ATOM     28  C   UNL     1       6.500   3.637  12.097  0.00  0.00    +0.000 A 
ATOM     29  F   UNL     1       6.302   3.094  10.887  0.00  0.00    +0.000 F 
ATOM     30  C   UNL     1       5.717   3.223  13.168  0.00  0.00    +0.000 A 
ATOM     31  C   UNL     1       5.933   3.776  14.434  0.00  0.00    +0.000 A 
ENDBRANCH  24  25
ENDBRANCH  22  24
ENDBRANCH  21  22
ENDBRANCH  15  21
TORSDOF 7
ENDMDL
MODEL 4
REMARK VINA RESULT:      -6.5      4.798      9.163
REMARK  Name = 
REMARK  10 active torsions:
REMARK  status: ('A' for Active; 'I' for Inactive)
REMARK    1  A    between atoms: C_1  and  C_2
REMARK    2  A    between atoms: N_4  and  C_5
REMARK    3  A    between atoms: C_5  and  C_6
REMARK    4  A    between atoms: C_5  and  C_7
REMARK    5  A    between atoms: C_7  and  O_8
REMARK    6  A    between atoms: C_19  and  C_20
REMARK    7  A    between atoms: C_20  and  N_21
REMARK    8  A    between atoms: N_21  and  C_22
REMARK    9  A    between atoms: N_21  and  C_23
REMARK   10  A    between atoms: C_23  and  C_24
REMARK                            x       y       z     vdW  Elec       q    Type
REMARK                         _______ _______ _______ _____ _____    ______ ____
ROOT
ATOM      1  C   UNL     1      -1.309   9.682  17.204  0.00  0.00    +0.000 C 
ATOM      2  C   UNL     1      -0.845  10.764  18.200  0.00  0.00    +0.000 C 
ATOM      3  C   UNL     1      -1.795  11.982  18.121  0.00  0.00    +0.000 C 
ATOM      4  N   UNL     1      -3.031  11.927  18.917  0.00  0.00    +0.000 N 
ATOM      5  C   UNL     1      -3.106  12.501  20.194  0.00  0.00    +0.000 C 
ATOM      6  O   UNL     1      -4.137  12.653  20.838  0.00  0.00    +0.000 OA
ATOM      7  C   UNL     1      -1.838  12.942  20.793  0.00  0.00    +0.000 A 
ATOM      8  C   UNL     1      -1.602  14.283  21.100  0.00  0.00    +0.000 A 
ATOM      9  C   UNL     1      -0.321  14.640  21.511  0.00  0.00    +0.000 A 
ATOM     10 BR   UNL     1       0.103  16.442  21.858  0.00  0.00    +0.000 Br
ATOM     11  C   UNL     1       0.653  13.651  21.619  0.00  0.00    +0.000 A 
ATOM     12  N   UNL     1       0.433  12.343  21.344  0.00  0.00    +0.000 NA
ATOM     13  C   UNL     1      -0.808  12.022  20.932  0.00  0.00    +0.000 A 
ATOM     14  O   UNL     1      -1.102  10.700  20.748  0.00  0.00    +0.000 OA
ATOM     15  C   UNL     1      -0.541  10.090  19.584  0.00  0.00    +0.000 C 
ENDROOT
BRANCH   4  16
ATOM     16  C   UNL     1      -4.251  11.379  18.271  0.00  0.00    +0.000 C 
ATOM     17  C   UNL     1      -4.361   9.857  18.386  0.00  0.00    +0.000 C 
BRANCH  16  18
ATOM     18  C   UNL     1      -4.400  11.817  16.800  0.00  0.00    +0.000 C 
BRANCH  18  19
ATOM     19  O   UNL     1      -4.493  10.680  15.943  0.00  0.00    +0.000 OA
ATOM     20  H   UNL     1      -5.124  10.083  16.389  0.00  0.00    +0.000 HD
ENDBRANCH  18  19
ENDBRANCH  16  18
ENDBRANCH   4  16
BRANCH  15  21
ATOM     21  C   UNL     1       0.971   9.699  19.748  0.00  0.00    +0.000 C 
BRANCH  21  22
ATOM     22  N   UNL     1       1.510   8.567  18.951  0.00  0.00    +0.000 NA
ATOM     23  C   UNL     1       2.302   9.026  17.809  0.00  0.00    +0.000 C 
BRANCH  22  24
ATOM     24  C   UNL     1       2.234   7.608  19.798  0.00  0.00    +0.000 C 
BRANCH  24  25
ATOM     25  C   UNL     1       1.942   6.149  19.519  0.00  0.00    +0.000 A 
ATOM     26  C   UNL     1       1.433   5.337  20.549  0.00  0.00    +0.000 A 
ATOM     27  C   UNL     1       1.117   4.002  20.306  0.00  0.00    +0.000 A 
ATOM     28  C   UNL     1       1.313   3.476  19.036  0.00  0.00    +0.000 A 
ATOM     29  F   UNL     1       0.993   2.196  18.799  0.00  0.00    +0.000 F 
ATOM     30  C   UNL     1       1.833   4.253  18.008  0.00  0.00    +0.000 A 
ATOM     31  C   UNL     1       2.151   5.594  18.249  0.00  0.00    +0.000 A 
ENDBRANCH  24  25
ENDBRANCH  22  24
ENDBRANCH  21  22
ENDBRANCH  15  21
TORSDOF 7
ENDMDL
MODEL 5
REMARK VINA RESULT:      -6.4      5.101      9.232
REMARK  Name = 
REMARK  10 active torsions:
REMARK  status: ('A' for Active; 'I' for Inactive)
REMARK    1  A    between atoms: C_1  and  C_2
REMARK    2  A    between atoms: N_4  and  C_5
REMARK    3  A    between atoms: C_5  and  C_6
REMARK    4  A    between atoms: C_5  and  C_7
REMARK    5  A    between atoms: C_7  and  O_8
REMARK    6  A    between atoms: C_19  and  C_20
REMARK    7  A    between atoms: C_20  and  N_21
REMARK    8  A    between atoms: N_21  and  C_22
REMARK    9  A    between atoms: N_21  and  C_23
REMARK   10  A    between atoms: C_23  and  C_24
REMARK                            x       y       z     vdW  Elec       q    Type
REMARK                         _______ _______ _______ _____ _____    ______ ____
ROOT
ATOM      1  C   UNL     1      -0.019   9.917  17.780  0.00  0.00    +0.000 C 
ATOM      2  C   UNL     1      -0.175  11.077  18.784  0.00  0.00    +0.000 C 
ATOM      3  C   UNL     1      -1.199  12.100  18.239  0.00  0.00    +0.000 C 
ATOM      4  N   UNL     1      -2.623  11.829  18.492  0.00  0.00    +0.000 N 
ATOM      5  C   UNL     1      -3.294  12.394  19.585  0.00  0.00    +0.000 C 
ATOM      6  O   UNL     1      -4.505  12.363  19.761  0.00  0.00    +0.000 OA
ATOM      7  C   UNL     1      -2.460  13.066  20.593  0.00  0.00    +0.000 A 
ATOM      8  C   UNL     1      -2.588  14.431  20.855  0.00  0.00    +0.000 A 
ATOM      9  C   UNL     1      -1.655  15.020  21.702  0.00  0.00    +0.000 A 
ATOM     10 BR   UNL     1      -1.704  16.874  22.036  0.00  0.00    +0.000 Br
ATOM     11  C   UNL     1      -0.657  14.228  22.264  0.00  0.00    +0.000 A 
ATOM     12  N   UNL     1      -0.533  12.899  22.035  0.00  0.00    +0.000 NA
ATOM     13  C   UNL     1      -1.436  12.352  21.199  0.00  0.00    +0.000 A 
ATOM     14  O   UNL     1      -1.412  10.996  21.025  0.00  0.00    +0.000 OA
ATOM     15  C   UNL     1      -0.342  10.486  20.228  0.00  0.00    +0.000 C 
ENDROOT
BRANCH   4  16
ATOM     16  C   UNL     1      -3.377  11.060  17.469  0.00  0.00    +0.000 C 
ATOM     17  C   UNL     1      -3.487   9.569  17.797  0.00  0.00    +0.000 C 
BRANCH  16  18
ATOM     18  C   UNL     1      -2.824  11.255  16.043  0.00  0.00    +0.000 C 
BRANCH  18  19
ATOM     19  O   UNL     1      -2.695   9.999  15.377  0.00  0.00    +0.000 OA
ATOM     20  H   UNL     1      -2.733   9.334  16.090  0.00  0.00    +0.000 HD
ENDBRANCH  18  19
ENDBRANCH  16  18
ENDBRANCH   4  16
BRANCH  15  21
ATOM     21  C   UNL     1       1.020  10.379  21.001  0.00  0.00    +0.000 C 
BRANCH  21  22
ATOM     22  N   UNL     1       1.314   9.142  21.771  0.00  0.00    +0.000 NA
ATOM     23  C   UNL     1       0.968   9.279  23.186  0.00  0.00    +0.000 C 
BRANCH  22  24
ATOM     24  C   UNL     1       0.703   7.961  21.146  0.00  0.00    +0.000 C 
BRANCH  24  25
ATOM     25  C   UNL     1       1.644   7.098  20.332  0.00  0.00    +0.000 A 
ATOM     26  C   UNL     1       1.864   5.763  20.716  0.00  0.00    +0.000 A 
ATOM     27  C   UNL     1       2.693   4.937  19.959  0.00  0.00    +0.000 A 
ATOM     28  C   UNL     1       3.304   5.445  18.821  0.00  0.00    +0.000 A 
ATOM     29  F   UNL     1       4.089   4.645  18.085  0.00  0.00    +0.000 F 
ATOM     30  C   UNL     1       3.117   6.766  18.433  0.00  0.00    +0.000 A 
ATOM     31  C   UNL     1       2.286   7.597  19.190  0.00  0.00    +0.000 A 
ENDBRANCH  24  25
ENDBRANCH  22  24
ENDBRANCH  21  22
ENDBRANCH  15  21
TORSDOF 7
ENDMDL
MODEL 6
REMARK VINA RESULT:      -6.4      4.846      9.176
REMARK  Name = 
REMARK  10 active torsions:
REMARK  status: ('A' for Active; 'I' for Inactive)
REMARK    1  A    between atoms: C_1  and  C_2
REMARK    2  A    between atoms: N_4  and  C_5
REMARK    3  A    between atoms: C_5  and  C_6
REMARK    4  A    between atoms: C_5  and  C_7
REMARK    5  A    between atoms: C_7  and  O_8
REMARK    6  A    between atoms: C_19  and  C_20
REMARK    7  A    between atoms: C_20  and  N_21
REMARK    8  A    between atoms: N_21  and  C_22
REMARK    9  A    between atoms: N_21  and  C_23
REMARK   10  A    between atoms: C_23  and  C_24
REMARK                            x       y       z     vdW  Elec       q    Type
REMARK                         _______ _______ _______ _____ _____    ______ ____
ROOT
ATOM      1  C   UNL     1      -1.344   9.664  17.356  0.00  0.00    +0.000 C 
ATOM      2  C   UNL     1      -0.754  10.752  18.275  0.00  0.00    +0.000 C 
ATOM      3  C   UNL     1      -1.647  12.013  18.225  0.00  0.00    +0.000 C 
ATOM      4  N   UNL     1      -2.820  12.046  19.114  0.00  0.00    +0.000 N 
ATOM      5  C   UNL     1      -2.768  12.663  20.371  0.00  0.00    +0.000 C 
ATOM      6  O   UNL     1      -3.738  12.887  21.086  0.00  0.00    +0.000 OA
ATOM      7  C   UNL     1      -1.438  13.057  20.858  0.00  0.00    +0.000 A 
ATOM      8  C   UNL     1      -1.115  14.393  21.099  0.00  0.00    +0.000 A 
ATOM      9  C   UNL     1       0.210  14.697  21.400  0.00  0.00    +0.000 A 
ATOM     10 BR   UNL     1       0.746  16.486  21.651  0.00  0.00    +0.000 Br
ATOM     11  C   UNL     1       1.141  13.664  21.470  0.00  0.00    +0.000 A 
ATOM     12  N   UNL     1       0.837  12.361  21.258  0.00  0.00    +0.000 NA
ATOM     13  C   UNL     1      -0.446  12.091  20.951  0.00  0.00    +0.000 A 
ATOM     14  O   UNL     1      -0.817  10.780  20.836  0.00  0.00    +0.000 OA
ATOM     15  C   UNL     1      -0.377  10.107  19.655  0.00  0.00    +0.000 C 
ENDROOT
BRANCH   4  16
ATOM     16  C   UNL     1      -4.111  11.541  18.581  0.00  0.00    +0.000 C 
ATOM     17  C   UNL     1      -4.146  11.474  17.052  0.00  0.00    +0.000 C 
BRANCH  16  18
ATOM     18  C   UNL     1      -5.327  12.325  19.110  0.00  0.00    +0.000 C 
BRANCH  18  19
ATOM     19  O   UNL     1      -6.115  11.509  19.975  0.00  0.00    +0.000 OA
ATOM     20  H   UNL     1      -6.193  10.655  19.510  0.00  0.00    +0.000 HD
ENDBRANCH  18  19
ENDBRANCH  16  18
ENDBRANCH   4  16
BRANCH  15  21
ATOM     21  C   UNL     1       1.122   9.644  19.719  0.00  0.00    +0.000 C 
BRANCH  21  22
ATOM     22  N   UNL     1       1.538   8.446  18.944  0.00  0.00    +0.000 NA
ATOM     23  C   UNL     1       2.289   8.803  17.741  0.00  0.00    +0.000 C 
BRANCH  22  24
ATOM     24  C   UNL     1       2.245   7.476  19.791  0.00  0.00    +0.000 C 
BRANCH  24  25
ATOM     25  C   UNL     1       1.923   6.022  19.519  0.00  0.00    +0.000 A 
ATOM     26  C   UNL     1       1.433   5.215  20.561  0.00  0.00    +0.000 A 
ATOM     27  C   UNL     1       1.089   3.885  20.325  0.00  0.00    +0.000 A 
ATOM     28  C   UNL     1       1.237   3.361  19.049  0.00  0.00    +0.000 A 
ATOM     29  F   UNL     1       0.891   2.086  18.819  0.00  0.00    +0.000 F 
ATOM     30  C   UNL     1       1.738   4.132  18.007  0.00  0.00    +0.000 A 
ATOM     31  C   UNL     1       2.084   5.467  18.242  0.00  0.00    +0.000 A 
ENDBRANCH  24  25
ENDBRANCH  22  24
ENDBRANCH  21  22
ENDBRANCH  15  21
TORSDOF 7
ENDMDL
MODEL 7
REMARK VINA RESULT:      -6.4      1.792      2.402
REMARK  Name = 
REMARK  10 active torsions:
REMARK  status: ('A' for Active; 'I' for Inactive)
REMARK    1  A    between atoms: C_1  and  C_2
REMARK    2  A    between atoms: N_4  and  C_5
REMARK    3  A    between atoms: C_5  and  C_6
REMARK    4  A    between atoms: C_5  and  C_7
REMARK    5  A    between atoms: C_7  and  O_8
REMARK    6  A    between atoms: C_19  and  C_20
REMARK    7  A    between atoms: C_20  and  N_21
REMARK    8  A    between atoms: N_21  and  C_22
REMARK    9  A    between atoms: N_21  and  C_23
REMARK   10  A    between atoms: C_23  and  C_24
REMARK                            x       y       z     vdW  Elec       q    Type
REMARK                         _______ _______ _______ _____ _____    ______ ____
ROOT
ATOM      1  C   UNL     1       2.196   5.714  21.435  0.00  0.00    +0.000 C 
ATOM      2  C   UNL     1       3.061   5.818  20.164  0.00  0.00    +0.000 C 
ATOM      3  C   UNL     1       3.681   4.437  19.845  0.00  0.00    +0.000 C 
ATOM      4  N   UNL     1       2.856   3.488  19.079  0.00  0.00    +0.000 N 
ATOM      5  C   UNL     1       2.970   3.376  17.687  0.00  0.00    +0.000 C 
ATOM      6  O   UNL     1       2.456   2.497  17.007  0.00  0.00    +0.000 OA
ATOM      7  C   UNL     1       3.766   4.408  17.007  0.00  0.00    +0.000 A 
ATOM      8  C   UNL     1       4.930   4.089  16.306  0.00  0.00    +0.000 A 
ATOM      9  C   UNL     1       5.710   5.139  15.830  0.00  0.00    +0.000 A 
ATOM     10 BR   UNL     1       7.342   4.795  14.952  0.00  0.00    +0.000 Br
ATOM     11  C   UNL     1       5.289   6.448  16.051  0.00  0.00    +0.000 A 
ATOM     12  N   UNL     1       4.152   6.772  16.712  0.00  0.00    +0.000 NA
ATOM     13  C   UNL     1       3.420   5.741  17.178  0.00  0.00    +0.000 A 
ATOM     14  O   UNL     1       2.213   6.020  17.755  0.00  0.00    +0.000 OA
ATOM     15  C   UNL     1       2.262   6.597  19.061  0.00  0.00    +0.000 C 
ENDROOT
BRANCH   4  16
ATOM     16  C   UNL     1       2.004   2.538  19.839  0.00  0.00    +0.000 C 
ATOM     17  C   UNL     1       0.531   2.951  19.881  0.00  0.00    +0.000 C 
BRANCH  16  18
ATOM     18  C   UNL     1       2.526   2.270  21.265  0.00  0.00    +0.000 C 
BRANCH  18  19
ATOM     19  O   UNL     1       1.483   2.444  22.223  0.00  0.00    +0.000 OA
ATOM     20  H   UNL     1       0.868   3.078  21.810  0.00  0.00    +0.000 HD
ENDBRANCH  18  19
ENDBRANCH  16  18
ENDBRANCH   4  16
BRANCH  15  21
ATOM     21  C   UNL     1       2.578   8.135  19.056  0.00  0.00    +0.000 C 
BRANCH  21  22
ATOM     22  N   UNL     1       1.456   9.100  19.190  0.00  0.00    +0.000 NA
ATOM     23  C   UNL     1       0.885   9.464  17.894  0.00  0.00    +0.000 C 
BRANCH  22  24
ATOM     24  C   UNL     1       0.446   8.621  20.144  0.00  0.00    +0.000 C 
BRANCH  24  25
ATOM     25  C   UNL     1      -0.150   9.683  21.045  0.00  0.00    +0.000 A 
ATOM     26  C   UNL     1      -0.362   9.396  22.405  0.00  0.00    +0.000 A 
ATOM     27  C   UNL     1      -0.869  10.370  23.263  0.00  0.00    +0.000 A 
ATOM     28  C   UNL     1      -1.168  11.629  22.761  0.00  0.00    +0.000 A 
ATOM     29  F   UNL     1      -1.641  12.571  23.590  0.00  0.00    +0.000 F 
ATOM     30  C   UNL     1      -0.985  11.930  21.417  0.00  0.00    +0.000 A 
ATOM     31  C   UNL     1      -0.476  10.955  20.554  0.00  0.00    +0.000 A 
ENDBRANCH  24  25
ENDBRANCH  22  24
ENDBRANCH  21  22
ENDBRANCH  15  21
TORSDOF 7
ENDMDL
MODEL 8
REMARK VINA RESULT:      -6.4      3.899      6.958
REMARK  Name = 
REMARK  10 active torsions:
REMARK  status: ('A' for Active; 'I' for Inactive)
REMARK    1  A    between atoms: C_1  and  C_2
REMARK    2  A    between atoms: N_4  and  C_5
REMARK    3  A    between atoms: C_5  and  C_6
REMARK    4  A    between atoms: C_5  and  C_7
REMARK    5  A    between atoms: C_7  and  O_8
REMARK    6  A    between atoms: C_19  and  C_20
REMARK    7  A    between atoms: C_20  and  N_21
REMARK    8  A    between atoms: N_21  and  C_22
REMARK    9  A    between atoms: N_21  and  C_23
REMARK   10  A    between atoms: C_23  and  C_24
REMARK                            x       y       z     vdW  Elec       q    Type
REMARK                         _______ _______ _______ _____ _____    ______ ____
ROOT
ATOM      1  C   UNL     1       2.834   2.329  16.821  0.00  0.00    +0.000 C 
ATOM      2  C   UNL     1       2.719   3.853  17.026  0.00  0.00    +0.000 C 
ATOM      3  C   UNL     1       1.549   4.158  17.991  0.00  0.00    +0.000 C 
ATOM      4  N   UNL     1       1.831   4.091  19.434  0.00  0.00    +0.000 N 
ATOM      5  C   UNL     1       2.165   5.237  20.169  0.00  0.00    +0.000 C 
ATOM      6  O   UNL     1       2.237   5.294  21.391  0.00  0.00    +0.000 OA
ATOM      7  C   UNL     1       2.456   6.453  19.396  0.00  0.00    +0.000 A 
ATOM      8  C   UNL     1       1.674   7.602  19.519  0.00  0.00    +0.000 A 
ATOM      9  C   UNL     1       1.916   8.651  18.636  0.00  0.00    +0.000 A 
ATOM     10 BR   UNL     1       0.844  10.200  18.677  0.00  0.00    +0.000 Br
ATOM     11  C   UNL     1       2.933   8.520  17.695  0.00  0.00    +0.000 A 
ATOM     12  N   UNL     1       3.714   7.419  17.578  0.00  0.00    +0.000 NA
ATOM     13  C   UNL     1       3.452   6.410  18.430  0.00  0.00    +0.000 A 
ATOM     14  O   UNL     1       4.285   5.326  18.417  0.00  0.00    +0.000 OA
ATOM     15  C   UNL     1       4.146   4.442  17.304  0.00  0.00    +0.000 C 
ENDROOT
BRANCH   4  16
ATOM     16  C   UNL     1       1.602   2.798  20.128  0.00  0.00    +0.000 C 
ATOM     17  C   UNL     1       0.458   1.983  19.520  0.00  0.00    +0.000 C 
BRANCH  16  18
ATOM     18  C   UNL     1       1.395   2.960  21.647  0.00  0.00    +0.000 C 
BRANCH  18  19
ATOM     19  O   UNL     1       2.574   2.587  22.358  0.00  0.00    +0.000 OA
ATOM     20  H   UNL     1       3.306   2.762  21.737  0.00  0.00    +0.000 HD
ENDBRANCH  18  19
ENDBRANCH  16  18
ENDBRANCH   4  16
BRANCH  15  21
ATOM     21  C   UNL     1       4.852   4.960  16.001  0.00  0.00    +0.000 C 
BRANCH  21  22
ATOM     22  N   UNL     1       5.788   4.056  15.283  0.00  0.00    +0.000 NA
ATOM     23  C   UNL     1       5.845   4.347  13.851  0.00  0.00    +0.000 C 
BRANCH  22  24
ATOM     24  C   UNL     1       7.114   4.042  15.916  0.00  0.00    +0.000 C 
BRANCH  24  25
ATOM     25  C   UNL     1       7.421   5.229  16.805  0.00  0.00    +0.000 A 
ATOM     26  C   UNL     1       7.783   5.013  18.147  0.00  0.00    +0.000 A 
ATOM     27  C   UNL     1       8.110   6.086  18.973  0.00  0.00    +0.000 A 
ATOM     28  C   UNL     1       8.073   7.375  18.460  0.00  0.00    +0.000 A 
ATOM     29  F   UNL     1       8.403   8.406  19.251  0.00  0.00    +0.000 F 
ATOM     30  C   UNL     1       7.699   7.616  17.143  0.00  0.00    +0.000 A 
ATOM     31  C   UNL     1       7.370   6.540  16.312  0.00  0.00    +0.000 A 
ENDBRANCH  24  25
ENDBRANCH  22  24
ENDBRANCH  21  22
ENDBRANCH  15  21
TORSDOF 7
ENDMDL
MODEL 9
REMARK VINA RESULT:      -6.3      5.148      9.355
REMARK  Name = 
REMARK  10 active torsions:
REMARK  status: ('A' for Active; 'I' for Inactive)
REMARK    1  A    between atoms: C_1  and  C_2
REMARK    2  A    between atoms: N_4  and  C_5
REMARK    3  A    between atoms: C_5  and  C_6
REMARK    4  A    between atoms: C_5  and  C_7
REMARK    5  A    between atoms: C_7  and  O_8
REMARK    6  A    between atoms: C_19  and  C_20
REMARK    7  A    between atoms: C_20  and  N_21
REMARK    8  A    between atoms: N_21  and  C_22
REMARK    9  A    between atoms: N_21  and  C_23
REMARK   10  A    between atoms: C_23  and  C_24
REMARK                            x       y       z     vdW  Elec       q    Type
REMARK                         _______ _______ _______ _____ _____    ______ ____
ROOT
ATOM      1  C   UNL     1       1.024  10.375  21.461  0.00  0.00    +0.000 C 
ATOM      2  C   UNL     1      -0.298  10.416  20.668  0.00  0.00    +0.000 C 
ATOM      3  C   UNL     1      -1.384  11.127  21.509  0.00  0.00    +0.000 C 
ATOM      4  N   UNL     1      -1.427  12.597  21.453  0.00  0.00    +0.000 N 
ATOM      5  C   UNL     1      -2.283  13.272  20.572  0.00  0.00    +0.000 C 
ATOM      6  O   UNL     1      -2.506  14.476  20.591  0.00  0.00    +0.000 OA
ATOM      7  C   UNL     1      -2.951  12.455  19.548  0.00  0.00    +0.000 A 
ATOM      8  C   UNL     1      -4.340  12.331  19.505  0.00  0.00    +0.000 A 
ATOM      9  C   UNL     1      -4.883  11.413  18.610  0.00  0.00    +0.000 A 
ATOM     10 BR   UNL     1      -6.744  11.121  18.553  0.00  0.00    +0.000 Br
ATOM     11  C   UNL     1      -4.028  10.683  17.789  0.00  0.00    +0.000 A 
ATOM     12  N   UNL     1      -2.679  10.808  17.806  0.00  0.00    +0.000 NA
ATOM     13  C   UNL     1      -2.174  11.689  18.691  0.00  0.00    +0.000 A 
ATOM     14  O   UNL     1      -0.827  11.923  18.666  0.00  0.00    +0.000 OA
ATOM     15  C   UNL     1      -0.001  10.888  19.202  0.00  0.00    +0.000 C 
ENDROOT
BRANCH   4  16
ATOM     16  C   UNL     1      -0.647  13.354  22.466  0.00  0.00    +0.000 C 
ATOM     17  C   UNL     1      -1.523  13.987  23.549  0.00  0.00    +0.000 C 
BRANCH  16  18
ATOM     18  C   UNL     1       0.280  14.415  21.839  0.00  0.00    +0.000 C 
BRANCH  18  19
ATOM     19  O   UNL     1       1.649  14.070  22.043  0.00  0.00    +0.000 OA
ATOM     20  H   UNL     1       1.803  13.304  21.458  0.00  0.00    +0.000 HD
ENDBRANCH  18  19
ENDBRANCH  16  18
ENDBRANCH   4  16
BRANCH  15  21
ATOM     21  C   UNL     1       0.222   9.690  18.212  0.00  0.00    +0.000 C 
BRANCH  21  22
ATOM     22  N   UNL     1       1.611   9.260  17.907  0.00  0.00    +0.000 NA
ATOM     23  C   UNL     1       2.530  10.394  17.814  0.00  0.00    +0.000 C 
BRANCH  22  24
ATOM     24  C   UNL     1       2.073   8.226  18.843  0.00  0.00    +0.000 C 
BRANCH  24  25
ATOM     25  C   UNL     1       2.798   7.056  18.211  0.00  0.00    +0.000 A 
ATOM     26  C   UNL     1       2.252   5.765  18.319  0.00  0.00    +0.000 A 
ATOM     27  C   UNL     1       2.878   4.679  17.711  0.00  0.00    +0.000 A 
ATOM     28  C   UNL     1       4.050   4.882  16.997  0.00  0.00    +0.000 A 
ATOM     29  F   UNL     1       4.643   3.840  16.398  0.00  0.00    +0.000 F 
ATOM     30  C   UNL     1       4.620   6.146  16.892  0.00  0.00    +0.000 A 
ATOM     31  C   UNL     1       3.993   7.237  17.502  0.00  0.00    +0.000 A 
ENDBRANCH  24  25
ENDBRANCH  22  24
ENDBRANCH  21  22
ENDBRANCH  15  21
TORSDOF 7
ENDMDL
