MODEL 1
REMARK VINA RESULT:      -7.1      0.000      0.000
REMARK  Name = 
REMARK  7 active torsions:
REMARK  status: ('A' for Active; 'I' for Inactive)
REMARK    1  A    between atoms: C_1  and  O_2
REMARK    2  A    between atoms: O_2  and  C_3
REMARK    3  A    between atoms: C_3  and  C_5
REMARK    4  A    between atoms: N_8  and  C_9
REMARK    5  A    between atoms: C_10  and  N_11
REMARK    6  A    between atoms: N_11  and  S_12
REMARK    7  A    between atoms: S_12  and  C_15
REMARK                            x       y       z     vdW  Elec       q    Type
REMARK                         _______ _______ _______ _____ _____    ______ ____
ROOT
ATOM      1  C   UNL     1       0.213  13.502  20.295  0.00  0.00    +0.000 C 
ATOM      2  C   UNL     1       0.826  12.603  19.504  0.00  0.00    +0.000 C 
ATOM      3  C   UNL     1       2.075  12.849  18.754  0.00  0.00    +0.000 C 
ATOM      4  O   UNL     1       2.578  11.952  18.085  0.00  0.00    +0.000 OA
ATOM      5  C   UNL     1       2.658  14.194  18.823  0.00  0.00    +0.000 A 
ATOM      6  C   UNL     1       3.790  14.492  18.051  0.00  0.00    +0.000 A 
ATOM      7  C   UNL     1       4.333  15.777  18.077  0.00  0.00    +0.000 A 
ATOM      8  C   UNL     1       3.755  16.758  18.876  0.00  0.00    +0.000 A 
ATOM      9  C   UNL     1       2.634  16.456  19.655  0.00  0.00    +0.000 A 
ATOM     10  C   UNL     1       2.080  15.168  19.631  0.00  0.00    +0.000 A 
ATOM     11  C   UNL     1       0.877  14.860  20.446  0.00  0.00    +0.000 C 
ATOM     12  O   UNL     1       0.429  15.731  21.190  0.00  0.00    +0.000 OA
ENDROOT
BRANCH   1  16
ATOM     13  C   UNL     1      -3.351  13.945  22.485  0.00  0.00    +0.000 C 
ATOM     14  C   UNL     1      -3.232  14.211  20.979  0.00  0.00    +0.000 C 
ATOM     15  C   UNL     1      -2.281  13.233  20.293  0.00  0.00    +0.000 C 
ATOM     16  N   UNL     1      -0.992  13.283  20.984  0.00  0.00    +0.000 N 
ATOM     17  C   UNL     1      -1.035  12.868  22.388  0.00  0.00    +0.000 C 
ATOM     18  C   UNL     1      -1.987  13.771  23.167  0.00  0.00    +0.000 C 
BRANCH  13  19
ATOM     19  C   UNL     1      -4.234  12.742  22.737  0.00  0.00    +0.000 C 
ATOM     20  O   UNL     1      -5.113  12.344  21.991  0.00  0.00    +0.000 OA
BRANCH  19  22
ATOM     21  C   UNL     1      -4.867  12.282  24.939  0.00  0.00    +0.000 C 
ATOM     22  O   UNL     1      -3.886  12.152  23.914  0.00  0.00    +0.000 OA
ENDBRANCH  19  22
ENDBRANCH  13  19
ENDBRANCH   1  16
BRANCH   2  23
ATOM     23  N   UNL     1       0.208  11.306  19.315  0.00  0.00    +0.000 N 
ATOM     24  H   UNL     1       0.530  10.905  18.429  0.00  0.00    +0.000 HD
BRANCH  23  25
ATOM     25  S   UNL     1       0.568  10.194  20.566  0.00  0.00    +0.000 S 
ATOM     26  O   UNL     1       1.565  10.733  21.466  0.00  0.00    +0.000 OA
ATOM     27  O   UNL     1      -0.683   9.656  21.060  0.00  0.00    +0.000 OA
BRANCH  25  28
ATOM     28  C   UNL     1       1.353   8.861  19.691  0.00  0.00    +0.000 A 
ATOM     29  C   UNL     1       1.688   9.048  18.347  0.00  0.00    +0.000 A 
ATOM     30  C   UNL     1       2.402   8.060  17.674  0.00  0.00    +0.000 A 
ATOM     31  C   UNL     1       2.788   6.903  18.350  0.00  0.00    +0.000 A 
ATOM     32 CL   UNL     1       3.690   5.698  17.520  0.00  0.00    +0.000 Cl
ATOM     33  C   UNL     1       2.466   6.723  19.698  0.00  0.00    +0.000 A 
ATOM     34  C   UNL     1       1.747   7.709  20.379  0.00  0.00    +0.000 A 
ENDBRANCH  25  28
ENDBRANCH  23  25
ENDBRANCH   2  23
TORSDOF 6
ENDMDL
MODEL 2
REMARK VINA RESULT:      -7.1      0.508      1.157
REMARK  Name = 
REMARK  7 active torsions:
REMARK  status: ('A' for Active; 'I' for Inactive)
REMARK    1  A    between atoms: C_1  and  O_2
REMARK    2  A    between atoms: O_2  and  C_3
REMARK    3  A    between atoms: C_3  and  C_5
REMARK    4  A    between atoms: N_8  and  C_9
REMARK    5  A    between atoms: C_10  and  N_11
REMARK    6  A    between atoms: N_11  and  S_12
REMARK    7  A    between atoms: S_12  and  C_15
REMARK                            x       y       z     vdW  Elec       q    Type
REMARK                         _______ _______ _______ _____ _____    ______ ____
ROOT
ATOM      1  C   UNL     1       0.074  13.468  20.446  0.00  0.00    +0.000 C 
ATOM      2  C   UNL     1       0.674  12.563  19.653  0.00  0.00    +0.000 C 
ATOM      3  C   UNL     1       1.862  12.827  18.815  0.00  0.00    +0.000 C 
ATOM      4  O   UNL     1       2.360  11.924  18.150  0.00  0.00    +0.000 OA
ATOM      5  C   UNL     1       2.389  14.196  18.793  0.00  0.00    +0.000 A 
ATOM      6  C   UNL     1       3.456  14.507  17.938  0.00  0.00    +0.000 A 
ATOM      7  C   UNL     1       3.944  15.814  17.878  0.00  0.00    +0.000 A 
ATOM      8  C   UNL     1       3.376  16.803  18.674  0.00  0.00    +0.000 A 
ATOM      9  C   UNL     1       2.320  16.489  19.535  0.00  0.00    +0.000 A 
ATOM     10  C   UNL     1       1.822  15.179  19.598  0.00  0.00    +0.000 A 
ATOM     11  C   UNL     1       0.687  14.857  20.500  0.00  0.00    +0.000 C 
ATOM     12  O   UNL     1       0.250  15.739  21.237  0.00  0.00    +0.000 OA
ENDROOT
BRANCH   1  16
ATOM     13  C   UNL     1      -3.401  13.860  22.782  0.00  0.00    +0.000 C 
ATOM     14  C   UNL     1      -3.378  13.985  21.254  0.00  0.00    +0.000 C 
ATOM     15  C   UNL     1      -2.387  13.017  20.610  0.00  0.00    +0.000 C 
ATOM     16  N   UNL     1      -1.074  13.230  21.220  0.00  0.00    +0.000 N 
ATOM     17  C   UNL     1      -1.015  12.953  22.657  0.00  0.00    +0.000 C 
ATOM     18  C   UNL     1      -1.996  13.855  23.399  0.00  0.00    +0.000 C 
BRANCH  13  19
ATOM     19  C   UNL     1      -4.174  12.626  23.196  0.00  0.00    +0.000 C 
ATOM     20  O   UNL     1      -3.865  11.874  24.105  0.00  0.00    +0.000 OA
BRANCH  19  22
ATOM     21  C   UNL     1      -6.460  13.063  22.986  0.00  0.00    +0.000 C 
ATOM     22  O   UNL     1      -5.284  12.493  22.418  0.00  0.00    +0.000 OA
ENDBRANCH  19  22
ENDBRANCH  13  19
ENDBRANCH   1  16
BRANCH   2  23
ATOM     23  N   UNL     1       0.102  11.234  19.556  0.00  0.00    +0.000 N 
ATOM     24  H   UNL     1       0.379  10.813  18.663  0.00  0.00    +0.000 HD
BRANCH  23  25
ATOM     25  S   UNL     1       0.597  10.189  20.817  0.00  0.00    +0.000 S 
ATOM     26  O   UNL     1       1.594  10.822  21.653  0.00  0.00    +0.000 OA
ATOM     27  O   UNL     1      -0.589   9.580  21.385  0.00  0.00    +0.000 OA
BRANCH  25  28
ATOM     28  C   UNL     1       1.432   8.886  19.942  0.00  0.00    +0.000 A 
ATOM     29  C   UNL     1       1.697   7.690  20.616  0.00  0.00    +0.000 A 
ATOM     30  C   UNL     1       2.249   6.618  19.920  0.00  0.00    +0.000 A 
ATOM     31  C   UNL     1       2.518   6.743  18.558  0.00  0.00    +0.000 A 
ATOM     32 CL   UNL     1       3.179   5.408  17.700  0.00  0.00    +0.000 Cl
ATOM     33  C   UNL     1       2.240   7.934  17.881  0.00  0.00    +0.000 A 
ATOM     34  C   UNL     1       1.688   9.014  18.574  0.00  0.00    +0.000 A 
ENDBRANCH  25  28
ENDBRANCH  23  25
ENDBRANCH   2  23
TORSDOF 6
ENDMDL
MODEL 3
REMARK VINA RESULT:      -7.0      1.258      1.721
REMARK  Name = 
REMARK  7 active torsions:
REMARK  status: ('A' for Active; 'I' for Inactive)
REMARK    1  A    between atoms: C_1  and  O_2
REMARK    2  A    between atoms: O_2  and  C_3
REMARK    3  A    between atoms: C_3  and  C_5
REMARK    4  A    between atoms: N_8  and  C_9
REMARK    5  A    between atoms: C_10  and  N_11
REMARK    6  A    between atoms: N_11  and  S_12
REMARK    7  A    between atoms: S_12  and  C_15
REMARK                            x       y       z     vdW  Elec       q    Type
REMARK                         _______ _______ _______ _____ _____    ______ ____
ROOT
ATOM      1  C   UNL     1      -0.174  14.107  20.551  0.00  0.00    +0.000 C 
ATOM      2  C   UNL     1       0.835  13.298  20.182  0.00  0.00    +0.000 C 
ATOM      3  C   UNL     1       1.959  13.694  19.308  0.00  0.00    +0.000 C 
ATOM      4  O   UNL     1       2.855  12.894  19.056  0.00  0.00    +0.000 OA
ATOM      5  C   UNL     1       1.941  15.049  18.745  0.00  0.00    +0.000 A 
ATOM      6  C   UNL     1       2.939  15.429  17.837  0.00  0.00    +0.000 A 
ATOM      7  C   UNL     1       2.914  16.701  17.264  0.00  0.00    +0.000 A 
ATOM      8  C   UNL     1       1.902  17.593  17.602  0.00  0.00    +0.000 A 
ATOM      9  C   UNL     1       0.914  17.217  18.517  0.00  0.00    +0.000 A 
ATOM     10  C   UNL     1       0.931  15.939  19.094  0.00  0.00    +0.000 A 
ATOM     11  C   UNL     1      -0.134  15.540  20.049  0.00  0.00    +0.000 C 
ATOM     12  O   UNL     1      -0.977  16.374  20.376  0.00  0.00    +0.000 OA
ENDROOT
BRANCH   1  16
ATOM     13  C   UNL     1      -3.569  14.061  23.035  0.00  0.00    +0.000 C 
ATOM     14  C   UNL     1      -3.623  14.256  21.515  0.00  0.00    +0.000 C 
ATOM     15  C   UNL     1      -2.574  13.416  20.787  0.00  0.00    +0.000 C 
ATOM     16  N   UNL     1      -1.261  13.726  21.356  0.00  0.00    +0.000 N 
ATOM     17  C   UNL     1      -1.115  13.392  22.774  0.00  0.00    +0.000 C 
ATOM     18  C   UNL     1      -2.144  14.163  23.596  0.00  0.00    +0.000 C 
BRANCH  13  19
ATOM     19  C   UNL     1      -4.204  12.742  23.418  0.00  0.00    +0.000 C 
ATOM     20  O   UNL     1      -3.704  11.907  24.153  0.00  0.00    +0.000 OA
BRANCH  19  22
ATOM     21  C   UNL     1      -6.514  12.713  23.765  0.00  0.00    +0.000 C 
ATOM     22  O   UNL     1      -5.433  12.636  22.841  0.00  0.00    +0.000 OA
ENDBRANCH  19  22
ENDBRANCH  13  19
ENDBRANCH   1  16
BRANCH   2  23
ATOM     23  N   UNL     1       0.817  11.917  20.619  0.00  0.00    +0.000 N 
ATOM     24  H   UNL     1       0.411  11.866  21.559  0.00  0.00    +0.000 HD
BRANCH  23  25
ATOM     25  S   UNL     1      -0.087  10.891  19.590  0.00  0.00    +0.000 S 
ATOM     26  O   UNL     1      -1.191  10.286  20.303  0.00  0.00    +0.000 OA
ATOM     27  O   UNL     1      -0.287  11.582  18.332  0.00  0.00    +0.000 OA
BRANCH  25  28
ATOM     28  C   UNL     1       1.059   9.578  19.239  0.00  0.00    +0.000 A 
ATOM     29  C   UNL     1       1.284   8.607  20.219  0.00  0.00    +0.000 A 
ATOM     30  C   UNL     1       2.091   7.510  19.926  0.00  0.00    +0.000 A 
ATOM     31  C   UNL     1       2.654   7.386  18.656  0.00  0.00    +0.000 A 
ATOM     32 CL   UNL     1       3.630   6.018  18.294  0.00  0.00    +0.000 Cl
ATOM     33  C   UNL     1       2.417   8.350  17.673  0.00  0.00    +0.000 A 
ATOM     34  C   UNL     1       1.610   9.453  17.961  0.00  0.00    +0.000 A 
ENDBRANCH  25  28
ENDBRANCH  23  25
ENDBRANCH   2  23
TORSDOF 6
ENDMDL
MODEL 4
REMARK VINA RESULT:      -6.9      1.764      6.002
REMARK  Name = 
REMARK  7 active torsions:
REMARK  status: ('A' for Active; 'I' for Inactive)
REMARK    1  A    between atoms: C_1  and  O_2
REMARK    2  A    between atoms: O_2  and  C_3
REMARK    3  A    between atoms: C_3  and  C_5
REMARK    4  A    between atoms: N_8  and  C_9
REMARK    5  A    between atoms: C_10  and  N_11
REMARK    6  A    between atoms: N_11  and  S_12
REMARK    7  A    between atoms: S_12  and  C_15
REMARK                            x       y       z     vdW  Elec       q    Type
REMARK                         _______ _______ _______ _____ _____    ______ ____
ROOT
ATOM      1  C   UNL     1       0.184  13.634  20.958  0.00  0.00    +0.000 C 
ATOM      2  C   UNL     1       0.142  12.321  21.248  0.00  0.00    +0.000 C 
ATOM      3  C   UNL     1      -0.891  11.671  22.080  0.00  0.00    +0.000 C 
ATOM      4  O   UNL     1      -0.865  10.457  22.258  0.00  0.00    +0.000 OA
ATOM      5  C   UNL     1      -1.912  12.528  22.692  0.00  0.00    +0.000 A 
ATOM      6  C   UNL     1      -2.853  11.961  23.563  0.00  0.00    +0.000 A 
ATOM      7  C   UNL     1      -3.807  12.770  24.183  0.00  0.00    +0.000 A 
ATOM      8  C   UNL     1      -3.827  14.137  23.927  0.00  0.00    +0.000 A 
ATOM      9  C   UNL     1      -2.897  14.699  23.048  0.00  0.00    +0.000 A 
ATOM     10  C   UNL     1      -1.933  13.893  22.425  0.00  0.00    +0.000 A 
ATOM     11  C   UNL     1      -0.935  14.501  21.509  0.00  0.00    +0.000 C 
ATOM     12  O   UNL     1      -1.020  15.701  21.254  0.00  0.00    +0.000 OA
ENDROOT
BRANCH   1  16
ATOM     13  C   UNL     1       2.806  16.412  19.199  0.00  0.00    +0.000 C 
ATOM     14  C   UNL     1       3.013  15.802  20.590  0.00  0.00    +0.000 C 
ATOM     15  C   UNL     1       2.571  14.341  20.652  0.00  0.00    +0.000 C 
ATOM     16  N   UNL     1       1.183  14.261  20.195  0.00  0.00    +0.000 N 
ATOM     17  C   UNL     1       0.972  14.676  18.806  0.00  0.00    +0.000 C 
ATOM     18  C   UNL     1       1.411  16.126  18.626  0.00  0.00    +0.000 C 
BRANCH  13  19
ATOM     19  C   UNL     1       3.884  15.935  18.250  0.00  0.00    +0.000 C 
ATOM     20  O   UNL     1       3.704  15.595  17.092  0.00  0.00    +0.000 OA
BRANCH  19  22
ATOM     21  C   UNL     1       6.073  15.117  18.277  0.00  0.00    +0.000 C 
ATOM     22  O   UNL     1       5.095  15.964  18.874  0.00  0.00    +0.000 OA
ENDBRANCH  19  22
ENDBRANCH  13  19
ENDBRANCH   1  16
BRANCH   2  23
ATOM     23  N   UNL     1       1.207  11.466  20.762  0.00  0.00    +0.000 N 
ATOM     24  H   UNL     1       1.308  10.663  21.391  0.00  0.00    +0.000 HD
BRANCH  23  25
ATOM     25  S   UNL     1       0.934  10.874  19.180  0.00  0.00    +0.000 S 
ATOM     26  O   UNL     1      -0.478  10.875  18.864  0.00  0.00    +0.000 OA
ATOM     27  O   UNL     1       1.906  11.489  18.298  0.00  0.00    +0.000 OA
BRANCH  25  28
ATOM     28  C   UNL     1       1.416   9.168  19.310  0.00  0.00    +0.000 A 
ATOM     29  C   UNL     1       2.038   8.563  18.214  0.00  0.00    +0.000 A 
ATOM     30  C   UNL     1       2.523   7.263  18.331  0.00  0.00    +0.000 A 
ATOM     31  C   UNL     1       2.396   6.585  19.543  0.00  0.00    +0.000 A 
ATOM     32 CL   UNL     1       3.018   4.989  19.689  0.00  0.00    +0.000 Cl
ATOM     33  C   UNL     1       1.787   7.195  20.643  0.00  0.00    +0.000 A 
ATOM     34  C   UNL     1       1.296   8.498  20.531  0.00  0.00    +0.000 A 
ENDBRANCH  25  28
ENDBRANCH  23  25
ENDBRANCH   2  23
TORSDOF 6
ENDMDL
MODEL 5
REMARK VINA RESULT:      -6.8      1.080      1.123
REMARK  Name = 
REMARK  7 active torsions:
REMARK  status: ('A' for Active; 'I' for Inactive)
REMARK    1  A    between atoms: C_1  and  O_2
REMARK    2  A    between atoms: O_2  and  C_3
REMARK    3  A    between atoms: C_3  and  C_5
REMARK    4  A    between atoms: N_8  and  C_9
REMARK    5  A    between atoms: C_10  and  N_11
REMARK    6  A    between atoms: N_11  and  S_12
REMARK    7  A    between atoms: S_12  and  C_15
REMARK                            x       y       z     vdW  Elec       q    Type
REMARK                         _______ _______ _______ _____ _____    ______ ____
ROOT
ATOM      1  C   UNL     1      -0.852  13.761  20.131  0.00  0.00    +0.000 C 
ATOM      2  C   UNL     1      -0.024  12.876  19.547  0.00  0.00    +0.000 C 
ATOM      3  C   UNL     1       1.244  13.220  18.873  0.00  0.00    +0.000 C 
ATOM      4  O   UNL     1       1.951  12.335  18.400  0.00  0.00    +0.000 OA
ATOM      5  C   UNL     1       1.600  14.641  18.773  0.00  0.00    +0.000 A 
ATOM      6  C   UNL     1       2.748  15.013  18.060  0.00  0.00    +0.000 A 
ATOM      7  C   UNL     1       3.078  16.362  17.925  0.00  0.00    +0.000 A 
ATOM      8  C   UNL     1       2.271  17.335  18.506  0.00  0.00    +0.000 A 
ATOM      9  C   UNL     1       1.134  16.961  19.228  0.00  0.00    +0.000 A 
ATOM     10  C   UNL     1       0.793  15.608  19.365  0.00  0.00    +0.000 A 
ATOM     11  C   UNL     1      -0.428  15.220  20.116  0.00  0.00    +0.000 C 
ATOM     12  O   UNL     1      -1.083  16.099  20.673  0.00  0.00    +0.000 OA
ENDROOT
BRANCH   1  16
ATOM     13  C   UNL     1      -4.620  13.905  21.993  0.00  0.00    +0.000 C 
ATOM     14  C   UNL     1      -4.405  14.058  20.482  0.00  0.00    +0.000 C 
ATOM     15  C   UNL     1      -3.281  13.162  19.965  0.00  0.00    +0.000 C 
ATOM     16  N   UNL     1      -2.074  13.441  20.744  0.00  0.00    +0.000 N 
ATOM     17  C   UNL     1      -2.187  13.143  22.174  0.00  0.00    +0.000 C 
ATOM     18  C   UNL     1      -3.310  13.972  22.789  0.00  0.00    +0.000 C 
BRANCH  13  19
ATOM     19  C   UNL     1      -5.363  12.621  22.290  0.00  0.00    +0.000 C 
ATOM     20  O   UNL     1      -5.843  11.874  21.453  0.00  0.00    +0.000 OA
BRANCH  19  22
ATOM     21  C   UNL     1      -6.662  12.670  24.232  0.00  0.00    +0.000 C 
ATOM     22  O   UNL     1      -5.395  12.405  23.635  0.00  0.00    +0.000 OA
ENDBRANCH  19  22
ENDBRANCH  13  19
ENDBRANCH   1  16
BRANCH   2  23
ATOM     23  N   UNL     1      -0.408  11.478  19.517  0.00  0.00    +0.000 N 
ATOM     24  H   UNL     1      -0.100  11.063  18.633  0.00  0.00    +0.000 HD
BRANCH  23  25
ATOM     25  S   UNL     1       0.261  10.564  20.800  0.00  0.00    +0.000 S 
ATOM     26  O   UNL     1       1.317  11.298  21.463  0.00  0.00    +0.000 OA
ATOM     27  O   UNL     1      -0.831   9.971  21.545  0.00  0.00    +0.000 OA
BRANCH  25  28
ATOM     28  C   UNL     1       1.049   9.215  19.950  0.00  0.00    +0.000 A 
ATOM     29  C   UNL     1       1.338   9.360  18.590  0.00  0.00    +0.000 A 
ATOM     30  C   UNL     1       2.053   8.363  17.930  0.00  0.00    +0.000 A 
ATOM     31  C   UNL     1       2.486   7.241  18.636  0.00  0.00    +0.000 A 
ATOM     32 CL   UNL     1       3.389   6.026  17.822  0.00  0.00    +0.000 Cl
ATOM     33  C   UNL     1       2.210   7.104  19.999  0.00  0.00    +0.000 A 
ATOM     34  C   UNL     1       1.490   8.099  20.666  0.00  0.00    +0.000 A 
ENDBRANCH  25  28
ENDBRANCH  23  25
ENDBRANCH   2  23
TORSDOF 6
ENDMDL
MODEL 6
REMARK VINA RESULT:      -6.8      3.096      6.184
REMARK  Name = 
REMARK  7 active torsions:
REMARK  status: ('A' for Active; 'I' for Inactive)
REMARK    1  A    between atoms: C_1  and  O_2
REMARK    2  A    between atoms: O_2  and  C_3
REMARK    3  A    between atoms: C_3  and  C_5
REMARK    4  A    between atoms: N_8  and  C_9
REMARK    5  A    between atoms: C_10  and  N_11
REMARK    6  A    between atoms: N_11  and  S_12
REMARK    7  A    between atoms: S_12  and  C_15
REMARK                            x       y       z     vdW  Elec       q    Type
REMARK                         _______ _______ _______ _____ _____    ______ ____
ROOT
ATOM      1  C   UNL     1       0.032  10.634  20.282  0.00  0.00    +0.000 C 
ATOM      2  C   UNL     1       0.698  10.935  19.153  0.00  0.00    +0.000 C 
ATOM      3  C   UNL     1       1.574  10.003  18.413  0.00  0.00    +0.000 C 
ATOM      4  O   UNL     1       2.112  10.361  17.370  0.00  0.00    +0.000 OA
ATOM      5  C   UNL     1       1.787   8.669  18.985  0.00  0.00    +0.000 A 
ATOM      6  C   UNL     1       2.684   7.790  18.362  0.00  0.00    +0.000 A 
ATOM      7  C   UNL     1       2.926   6.532  18.915  0.00  0.00    +0.000 A 
ATOM      8  C   UNL     1       2.269   6.149  20.080  0.00  0.00    +0.000 A 
ATOM      9  C   UNL     1       1.365   7.021  20.693  0.00  0.00    +0.000 A 
ATOM     10  C   UNL     1       1.120   8.289  20.145  0.00  0.00    +0.000 A 
ATOM     11  C   UNL     1       0.174   9.218  20.814  0.00  0.00    +0.000 C 
ATOM     12  O   UNL     1      -0.439   8.824  21.805  0.00  0.00    +0.000 OA
ENDROOT
BRANCH   1  16
ATOM     13  C   UNL     1      -1.870  14.056  21.818  0.00  0.00    +0.000 C 
ATOM     14  C   UNL     1      -2.272  13.369  20.507  0.00  0.00    +0.000 C 
ATOM     15  C   UNL     1      -2.140  11.849  20.587  0.00  0.00    +0.000 C 
ATOM     16  N   UNL     1      -0.776  11.526  21.007  0.00  0.00    +0.000 N 
ATOM     17  C   UNL     1      -0.411  12.022  22.335  0.00  0.00    +0.000 C 
ATOM     18  C   UNL     1      -0.535  13.543  22.374  0.00  0.00    +0.000 C 
BRANCH  13  19
ATOM     19  C   UNL     1      -2.971  13.909  22.846  0.00  0.00    +0.000 C 
ATOM     20  O   UNL     1      -4.125  13.596  22.603  0.00  0.00    +0.000 OA
BRANCH  19  22
ATOM     21  C   UNL     1      -3.273  15.047  24.865  0.00  0.00    +0.000 C 
ATOM     22  O   UNL     1      -2.476  14.153  24.092  0.00  0.00    +0.000 OA
ENDBRANCH  19  22
ENDBRANCH  13  19
ENDBRANCH   1  16
BRANCH   2  23
ATOM     23  N   UNL     1       0.608  12.284  18.631  0.00  0.00    +0.000 N 
ATOM     24  H   UNL     1      -0.264  12.714  18.955  0.00  0.00    +0.000 HD
BRANCH  23  25
ATOM     25  S   UNL     1       1.909  13.287  19.112  0.00  0.00    +0.000 S 
ATOM     26  O   UNL     1       2.427  12.879  20.401  0.00  0.00    +0.000 OA
ATOM     27  O   UNL     1       2.782  13.467  17.970  0.00  0.00    +0.000 OA
BRANCH  25  28
ATOM     28  C   UNL     1       1.119  14.859  19.366  0.00  0.00    +0.000 A 
ATOM     29  C   UNL     1      -0.005  15.174  18.598  0.00  0.00    +0.000 A 
ATOM     30  C   UNL     1      -0.705  16.350  18.856  0.00  0.00    +0.000 A 
ATOM     31  C   UNL     1      -0.286  17.192  19.886  0.00  0.00    +0.000 A 
ATOM     32 CL   UNL     1      -1.168  18.630  20.215  0.00  0.00    +0.000 Cl
ATOM     33  C   UNL     1       0.829  16.869  20.663  0.00  0.00    +0.000 A 
ATOM     34  C   UNL     1       1.537  15.692  20.408  0.00  0.00    +0.000 A 
ENDBRANCH  25  28
ENDBRANCH  23  25
ENDBRANCH   2  23
TORSDOF 6
ENDMDL
MODEL 7
REMARK VINA RESULT:      -6.7      0.869      1.289
REMARK  Name = 
REMARK  7 active torsions:
REMARK  status: ('A' for Active; 'I' for Inactive)
REMARK    1  A    between atoms: C_1  and  O_2
REMARK    2  A    between atoms: O_2  and  C_3
REMARK    3  A    between atoms: C_3  and  C_5
REMARK    4  A    between atoms: N_8  and  C_9
REMARK    5  A    between atoms: C_10  and  N_11
REMARK    6  A    between atoms: N_11  and  S_12
REMARK    7  A    between atoms: S_12  and  C_15
REMARK                            x       y       z     vdW  Elec       q    Type
REMARK                         _______ _______ _______ _____ _____    ______ ____
ROOT
ATOM      1  C   UNL     1       0.525  13.847  20.389  0.00  0.00    +0.000 C 
ATOM      2  C   UNL     1       0.982  12.867  19.588  0.00  0.00    +0.000 C 
ATOM      3  C   UNL     1       2.218  12.940  18.783  0.00  0.00    +0.000 C 
ATOM      4  O   UNL     1       2.572  11.977  18.110  0.00  0.00    +0.000 OA
ATOM      5  C   UNL     1       2.973  14.198  18.806  0.00  0.00    +0.000 A 
ATOM      6  C   UNL     1       4.100  14.337  17.983  0.00  0.00    +0.000 A 
ATOM      7  C   UNL     1       4.806  15.541  17.965  0.00  0.00    +0.000 A 
ATOM      8  C   UNL     1       4.395  16.598  18.771  0.00  0.00    +0.000 A 
ATOM      9  C   UNL     1       3.279  16.453  19.601  0.00  0.00    +0.000 A 
ATOM     10  C   UNL     1       2.562  15.248  19.621  0.00  0.00    +0.000 A 
ATOM     11  C   UNL     1       1.365  15.108  20.489  0.00  0.00    +0.000 C 
ATOM     12  O   UNL     1       1.067  16.038  21.237  0.00  0.00    +0.000 OA
ENDROOT
BRANCH   1  16
ATOM     13  C   UNL     1      -2.930  12.600  22.438  0.00  0.00    +0.000 C 
ATOM     14  C   UNL     1      -1.518  12.556  23.035  0.00  0.00    +0.000 C 
ATOM     15  C   UNL     1      -0.667  13.746  22.593  0.00  0.00    +0.000 C 
ATOM     16  N   UNL     1      -0.667  13.794  21.131  0.00  0.00    +0.000 N 
ATOM     17  C   UNL     1      -1.984  14.007  20.526  0.00  0.00    +0.000 C 
ATOM     18  C   UNL     1      -2.929  12.880  20.930  0.00  0.00    +0.000 C 
BRANCH  13  19
ATOM     19  C   UNL     1      -3.779  13.616  23.172  0.00  0.00    +0.000 C 
ATOM     20  O   UNL     1      -4.627  14.326  22.660  0.00  0.00    +0.000 OA
BRANCH  19  22
ATOM     21  C   UNL     1      -3.299  14.897  25.066  0.00  0.00    +0.000 C 
ATOM     22  O   UNL     1      -3.472  13.602  24.499  0.00  0.00    +0.000 OA
ENDBRANCH  19  22
ENDBRANCH  13  19
ENDBRANCH   1  16
BRANCH   2  23
ATOM     23  N   UNL     1       0.193  11.659  19.447  0.00  0.00    +0.000 N 
ATOM     24  H   UNL     1       0.420  11.212  18.553  0.00  0.00    +0.000 HD
BRANCH  23  25
ATOM     25  S   UNL     1       0.464  10.522  20.697  0.00  0.00    +0.000 S 
ATOM     26  O   UNL     1       1.472  10.997  21.620  0.00  0.00    +0.000 OA
ATOM     27  O   UNL     1      -0.826  10.052  21.162  0.00  0.00    +0.000 OA
BRANCH  25  28
ATOM     28  C   UNL     1       1.189   9.150  19.829  0.00  0.00    +0.000 A 
ATOM     29  C   UNL     1       1.435   9.280  18.459  0.00  0.00    +0.000 A 
ATOM     30  C   UNL     1       2.103   8.263  17.782  0.00  0.00    +0.000 A 
ATOM     31  C   UNL     1       2.532   7.134  18.479  0.00  0.00    +0.000 A 
ATOM     32 CL   UNL     1       3.377   5.893  17.642  0.00  0.00    +0.000 Cl
ATOM     33  C   UNL     1       2.299   7.012  19.852  0.00  0.00    +0.000 A 
ATOM     34  C   UNL     1       1.627   8.027  20.536  0.00  0.00    +0.000 A 
ENDBRANCH  25  28
ENDBRANCH  23  25
ENDBRANCH   2  23
TORSDOF 6
ENDMDL
MODEL 8
REMARK VINA RESULT:      -6.7      1.840      6.016
REMARK  Name = 
REMARK  7 active torsions:
REMARK  status: ('A' for Active; 'I' for Inactive)
REMARK    1  A    between atoms: C_1  and  O_2
REMARK    2  A    between atoms: O_2  and  C_3
REMARK    3  A    between atoms: C_3  and  C_5
REMARK    4  A    between atoms: N_8  and  C_9
REMARK    5  A    between atoms: C_10  and  N_11
REMARK    6  A    between atoms: N_11  and  S_12
REMARK    7  A    between atoms: S_12  and  C_15
REMARK                            x       y       z     vdW  Elec       q    Type
REMARK                         _______ _______ _______ _____ _____    ______ ____
ROOT
ATOM      1  C   UNL     1       0.290  13.863  21.226  0.00  0.00    +0.000 C 
ATOM      2  C   UNL     1       0.214  12.525  21.339  0.00  0.00    +0.000 C 
ATOM      3  C   UNL     1      -0.858  11.796  22.047  0.00  0.00    +0.000 C 
ATOM      4  O   UNL     1      -0.861  10.569  22.064  0.00  0.00    +0.000 OA
ATOM      5  C   UNL     1      -1.884  12.590  22.734  0.00  0.00    +0.000 A 
ATOM      6  C   UNL     1      -2.863  11.935  23.494  0.00  0.00    +0.000 A 
ATOM      7  C   UNL     1      -3.822  12.678  24.184  0.00  0.00    +0.000 A 
ATOM      8  C   UNL     1      -3.808  14.067  24.110  0.00  0.00    +0.000 A 
ATOM      9  C   UNL     1      -2.838  14.718  23.342  0.00  0.00    +0.000 A 
ATOM     10  C   UNL     1      -1.869  13.978  22.648  0.00  0.00    +0.000 A 
ATOM     11  C   UNL     1      -0.830  14.677  21.851  0.00  0.00    +0.000 C 
ATOM     12  O   UNL     1      -0.884  15.902  21.753  0.00  0.00    +0.000 OA
ENDROOT
BRANCH   1  16
ATOM     13  C   UNL     1       3.644  14.941  18.926  0.00  0.00    +0.000 C 
ATOM     14  C   UNL     1       2.246  14.700  18.342  0.00  0.00    +0.000 C 
ATOM     15  C   UNL     1       1.138  15.189  19.273  0.00  0.00    +0.000 C 
ATOM     16  N   UNL     1       1.326  14.561  20.582  0.00  0.00    +0.000 N 
ATOM     17  C   UNL     1       2.582  14.907  21.251  0.00  0.00    +0.000 C 
ATOM     18  C   UNL     1       3.764  14.482  20.386  0.00  0.00    +0.000 C 
BRANCH  13  19
ATOM     19  C   UNL     1       4.026  16.399  18.788  0.00  0.00    +0.000 C 
ATOM     20  O   UNL     1       3.599  17.162  17.938  0.00  0.00    +0.000 OA
BRANCH  19  22
ATOM     21  C   UNL     1       6.143  17.250  19.292  0.00  0.00    +0.000 C 
ATOM     22  O   UNL     1       4.901  16.742  19.774  0.00  0.00    +0.000 OA
ENDBRANCH  19  22
ENDBRANCH  13  19
ENDBRANCH   1  16
BRANCH   2  23
ATOM     23  N   UNL     1       1.278  11.717  20.778  0.00  0.00    +0.000 N 
ATOM     24  H   UNL     1       1.416  10.887  21.364  0.00  0.00    +0.000 HD
BRANCH  23  25
ATOM     25  S   UNL     1       0.963  11.194  19.179  0.00  0.00    +0.000 S 
ATOM     26  O   UNL     1      -0.455  11.232  18.892  0.00  0.00    +0.000 OA
ATOM     27  O   UNL     1       1.928  11.827  18.303  0.00  0.00    +0.000 OA
BRANCH  25  28
ATOM     28  C   UNL     1       1.416   9.476  19.231  0.00  0.00    +0.000 A 
ATOM     29  C   UNL     1       2.038   8.914  18.113  0.00  0.00    +0.000 A 
ATOM     30  C   UNL     1       2.501   7.602  18.172  0.00  0.00    +0.000 A 
ATOM     31  C   UNL     1       2.352   6.869  19.349  0.00  0.00    +0.000 A 
ATOM     32 CL   UNL     1       2.947   5.257  19.423  0.00  0.00    +0.000 Cl
ATOM     33  C   UNL     1       1.744   7.436  20.472  0.00  0.00    +0.000 A 
ATOM     34  C   UNL     1       1.275   8.751  20.418  0.00  0.00    +0.000 A 
ENDBRANCH  25  28
ENDBRANCH  23  25
ENDBRANCH   2  23
TORSDOF 6
ENDMDL
MODEL 9
REMARK VINA RESULT:      -6.6      1.393      1.844
REMARK  Name = 
REMARK  7 active torsions:
REMARK  status: ('A' for Active; 'I' for Inactive)
REMARK    1  A    between atoms: C_1  and  O_2
REMARK    2  A    between atoms: O_2  and  C_3
REMARK    3  A    between atoms: C_3  and  C_5
REMARK    4  A    between atoms: N_8  and  C_9
REMARK    5  A    between atoms: C_10  and  N_11
REMARK    6  A    between atoms: N_11  and  S_12
REMARK    7  A    between atoms: S_12  and  C_15
REMARK                            x       y       z     vdW  Elec       q    Type
REMARK                         _______ _______ _______ _____ _____    ______ ____
ROOT
ATOM      1  C   UNL     1      -0.034  14.239  20.537  0.00  0.00    +0.000 C 
ATOM      2  C   UNL     1       0.892  13.360  20.113  0.00  0.00    +0.000 C 
ATOM      3  C   UNL     1       1.987  13.674  19.172  0.00  0.00    +0.000 C 
ATOM      4  O   UNL     1       2.807  12.812  18.872  0.00  0.00    +0.000 OA
ATOM      5  C   UNL     1       2.033  15.027  18.606  0.00  0.00    +0.000 A 
ATOM      6  C   UNL     1       3.001  15.334  17.640  0.00  0.00    +0.000 A 
ATOM      7  C   UNL     1       3.033  16.605  17.064  0.00  0.00    +0.000 A 
ATOM      8  C   UNL     1       2.109  17.568  17.458  0.00  0.00    +0.000 A 
ATOM      9  C   UNL     1       1.153  17.264  18.430  0.00  0.00    +0.000 A 
ATOM     10  C   UNL     1       1.112  15.987  19.010  0.00  0.00    +0.000 A 
ATOM     11  C   UNL     1       0.080  15.666  20.028  0.00  0.00    +0.000 C 
ATOM     12  O   UNL     1      -0.681  16.558  20.401  0.00  0.00    +0.000 OA
ENDROOT
BRANCH   1  16
ATOM     13  C   UNL     1      -2.955  12.294  22.856  0.00  0.00    +0.000 C 
ATOM     14  C   UNL     1      -1.487  12.442  23.275  0.00  0.00    +0.000 C 
ATOM     15  C   UNL     1      -0.897  13.784  22.848  0.00  0.00    +0.000 C 
ATOM     16  N   UNL     1      -1.096  13.937  21.406  0.00  0.00    +0.000 N 
ATOM     17  C   UNL     1      -2.497  13.973  20.983  0.00  0.00    +0.000 C 
ATOM     18  C   UNL     1      -3.195  12.678  21.389  0.00  0.00    +0.000 C 
BRANCH  13  19
ATOM     19  C   UNL     1      -3.847  13.100  23.774  0.00  0.00    +0.000 C 
ATOM     20  O   UNL     1      -3.513  14.107  24.376  0.00  0.00    +0.000 OA
BRANCH  19  22
ATOM     21  C   UNL     1      -6.143  13.473  23.547  0.00  0.00    +0.000 C 
ATOM     22  O   UNL     1      -5.092  12.548  23.812  0.00  0.00    +0.000 OA
ENDBRANCH  19  22
ENDBRANCH  13  19
ENDBRANCH   1  16
BRANCH   2  23
ATOM     23  N   UNL     1       0.801  11.983  20.556  0.00  0.00    +0.000 N 
ATOM     24  H   UNL     1       0.430  11.961  21.511  0.00  0.00    +0.000 HD
BRANCH  23  25
ATOM     25  S   UNL     1      -0.210  11.018  19.568  0.00  0.00    +0.000 S 
ATOM     26  O   UNL     1      -1.340  10.515  20.319  0.00  0.00    +0.000 OA
ATOM     27  O   UNL     1      -0.389  11.704  18.304  0.00  0.00    +0.000 OA
BRANCH  25  28
ATOM     28  C   UNL     1       0.817   9.612  19.211  0.00  0.00    +0.000 A 
ATOM     29  C   UNL     1       1.392   9.509  17.940  0.00  0.00    +0.000 A 
ATOM     30  C   UNL     1       2.287   8.477  17.674  0.00  0.00    +0.000 A 
ATOM     31  C   UNL     1       2.613   7.567  18.679  0.00  0.00    +0.000 A 
ATOM     32 CL   UNL     1       3.737   6.309  18.350  0.00  0.00    +0.000 Cl
ATOM     33  C   UNL     1       2.050   7.679  19.953  0.00  0.00    +0.000 A 
ATOM     34  C   UNL     1       1.148   8.711  20.226  0.00  0.00    +0.000 A 
ENDBRANCH  25  28
ENDBRANCH  23  25
ENDBRANCH   2  23
TORSDOF 6
ENDMDL
