MODEL 1
REMARK VINA RESULT:      -8.0      0.000      0.000
REMARK  Name = 
REMARK  6 active torsions:
REMARK  status: ('A' for Active; 'I' for Inactive)
REMARK    1  A    between atoms: C_1  and  O_2
REMARK    2  A    between atoms: O_2  and  C_3
REMARK    3  A    between atoms: C_3  and  C_5
REMARK    4  A    between atoms: C_5  and  C_6
REMARK    5  A    between atoms: C_5  and  N_16
REMARK    6  A    between atoms: C_6  and  C_7
REMARK                            x       y       z     vdW  Elec       q    Type
REMARK                         _______ _______ _______ _____ _____    ______ ____
ROOT
ATOM      1  C   UNL     1       2.298   4.799  19.919  0.00  0.00    +0.000 C 
ENDROOT
BRANCH   1   2
ATOM      2  N   UNL     1       3.566   4.715  19.159  0.00  0.00    +0.000 N 
ATOM      3  C   UNL     1       4.773   4.917  19.796  0.00  0.00    +0.000 A 
ATOM      4  N   UNL     1       5.928   4.902  19.224  0.00  0.00    +0.000 NA
ATOM      5  C   UNL     1       5.973   4.662  17.848  0.00  0.00    +0.000 A 
ATOM      6  C   UNL     1       7.217   4.605  17.218  0.00  0.00    +0.000 A 
ATOM      7  C   UNL     1       7.309   4.372  15.843  0.00  0.00    +0.000 A 
ATOM      8  C   UNL     1       6.150   4.202  15.086  0.00  0.00    +0.000 A 
ATOM      9  C   UNL     1       4.898   4.256  15.705  0.00  0.00    +0.000 A 
ATOM     10  C   UNL     1       4.819   4.481  17.084  0.00  0.00    +0.000 A 
ATOM     11  C   UNL     1       3.516   4.539  17.783  0.00  0.00    +0.000 A 
ATOM     12  O   UNL     1       2.474   4.459  17.138  0.00  0.00    +0.000 OA
ENDBRANCH   1   2
BRANCH   1  13
ATOM     13  C   UNL     1       2.147   3.495  20.702  0.00  0.00    +0.000 C 
ATOM     14  O   UNL     1       2.272   3.403  21.919  0.00  0.00    +0.000 OA
BRANCH  13  16
ATOM     15  C   UNL     1       0.753   2.388  19.180  0.00  0.00    +0.000 C 
ATOM     16  O   UNL     1       2.009   2.431  19.861  0.00  0.00    +0.000 OA
ENDBRANCH  13  16
ENDBRANCH   1  13
BRANCH   1  17
ATOM     17  C   UNL     1       2.275   6.032  20.835  0.00  0.00    +0.000 C 
BRANCH  17  18
ATOM     18  C   UNL     1       1.952   7.328  20.156  0.00  0.00    +0.000 A 
ATOM     19  C   UNL     1       2.265   7.661  18.853  0.00  0.00    +0.000 A 
ATOM     20  N   UNL     1       1.708   8.879  18.571  0.00  0.00    +0.000 N 
ATOM     21  C   UNL     1       1.052   9.366  19.677  0.00  0.00    +0.000 A 
ATOM     22  C   UNL     1       0.333  10.556  19.845  0.00  0.00    +0.000 A 
ATOM     23  C   UNL     1      -0.240  10.795  21.097  0.00  0.00    +0.000 A 
ATOM     24  C   UNL     1      -0.101   9.877  22.135  0.00  0.00    +0.000 A 
ATOM     25  C   UNL     1       0.612   8.688  21.947  0.00  0.00    +0.000 A 
ATOM     26  C   UNL     1       1.202   8.422  20.694  0.00  0.00    +0.000 A 
ATOM     27  H   UNL     1       1.751   9.348  17.677  0.00  0.00    +0.000 HD
ENDBRANCH  17  18
ENDBRANCH   1  17
TORSDOF 5
ENDMDL
MODEL 2
REMARK VINA RESULT:      -7.8      0.739      1.059
REMARK  Name = 
REMARK  6 active torsions:
REMARK  status: ('A' for Active; 'I' for Inactive)
REMARK    1  A    between atoms: C_1  and  O_2
REMARK    2  A    between atoms: O_2  and  C_3
REMARK    3  A    between atoms: C_3  and  C_5
REMARK    4  A    between atoms: C_5  and  C_6
REMARK    5  A    between atoms: C_5  and  N_16
REMARK    6  A    between atoms: C_6  and  C_7
REMARK                            x       y       z     vdW  Elec       q    Type
REMARK                         _______ _______ _______ _____ _____    ______ ____
ROOT
ATOM      1  C   UNL     1       1.918   5.288  19.670  0.00  0.00    +0.000 C 
ENDROOT
BRANCH   1   2
ATOM      2  N   UNL     1       3.232   5.107  19.010  0.00  0.00    +0.000 N 
ATOM      3  C   UNL     1       4.391   5.486  19.653  0.00  0.00    +0.000 A 
ATOM      4  N   UNL     1       5.578   5.406  19.157  0.00  0.00    +0.000 NA
ATOM      5  C   UNL     1       5.712   4.894  17.863  0.00  0.00    +0.000 A 
ATOM      6  C   UNL     1       6.993   4.765  17.323  0.00  0.00    +0.000 A 
ATOM      7  C   UNL     1       7.174   4.263  16.032  0.00  0.00    +0.000 A 
ATOM      8  C   UNL     1       6.068   3.892  15.267  0.00  0.00    +0.000 A 
ATOM      9  C   UNL     1       4.780   4.016  15.797  0.00  0.00    +0.000 A 
ATOM     10  C   UNL     1       4.612   4.512  17.094  0.00  0.00    +0.000 A 
ATOM     11  C   UNL     1       3.269   4.654  17.699  0.00  0.00    +0.000 A 
ATOM     12  O   UNL     1       2.270   4.400  17.031  0.00  0.00    +0.000 OA
ENDBRANCH   1   2
BRANCH   1  13
ATOM     13  C   UNL     1       1.507   3.934  20.248  0.00  0.00    +0.000 C 
ATOM     14  O   UNL     1       0.715   3.166  19.710  0.00  0.00    +0.000 OA
BRANCH  13  16
ATOM     15  C   UNL     1       2.470   2.431  21.765  0.00  0.00    +0.000 C 
ATOM     16  O   UNL     1       2.015   3.760  21.501  0.00  0.00    +0.000 OA
ENDBRANCH  13  16
ENDBRANCH   1  13
BRANCH   1  17
ATOM     17  C   UNL     1       1.979   6.383  20.745  0.00  0.00    +0.000 C 
BRANCH  17  18
ATOM     18  C   UNL     1       1.625   7.761  20.276  0.00  0.00    +0.000 A 
ATOM     19  C   UNL     1       1.896   8.289  19.028  0.00  0.00    +0.000 A 
ATOM     20  N   UNL     1       1.320   9.527  18.947  0.00  0.00    +0.000 N 
ATOM     21  C   UNL     1       0.692   9.836  20.130  0.00  0.00    +0.000 A 
ATOM     22  C   UNL     1      -0.032  10.979  20.493  0.00  0.00    +0.000 A 
ATOM     23  C   UNL     1      -0.570  11.022  21.782  0.00  0.00    +0.000 A 
ATOM     24  C   UNL     1      -0.392   9.962  22.667  0.00  0.00    +0.000 A 
ATOM     25  C   UNL     1       0.325   8.823  22.285  0.00  0.00    +0.000 A 
ATOM     26  C   UNL     1       0.881   8.754  20.991  0.00  0.00    +0.000 A 
ATOM     27  H   UNL     1       1.332  10.124  18.131  0.00  0.00    +0.000 HD
ENDBRANCH  17  18
ENDBRANCH   1  17
TORSDOF 5
ENDMDL
MODEL 3
REMARK VINA RESULT:      -7.7      2.124      7.142
REMARK  Name = 
REMARK  6 active torsions:
REMARK  status: ('A' for Active; 'I' for Inactive)
REMARK    1  A    between atoms: C_1  and  O_2
REMARK    2  A    between atoms: O_2  and  C_3
REMARK    3  A    between atoms: C_3  and  C_5
REMARK    4  A    between atoms: C_5  and  C_6
REMARK    5  A    between atoms: C_5  and  N_16
REMARK    6  A    between atoms: C_6  and  C_7
REMARK                            x       y       z     vdW  Elec       q    Type
REMARK                         _______ _______ _______ _____ _____    ______ ____
ROOT
ATOM      1  C   UNL     1       4.692   4.823  18.085  0.00  0.00    +0.000 C 
ENDROOT
BRANCH   1   2
ATOM      2  N   UNL     1       3.757   5.836  18.624  0.00  0.00    +0.000 N 
ATOM      3  C   UNL     1       3.067   5.594  19.793  0.00  0.00    +0.000 A 
ATOM      4  N   UNL     1       2.206   6.390  20.329  0.00  0.00    +0.000 NA
ATOM      5  C   UNL     1       1.943   7.599  19.680  0.00  0.00    +0.000 A 
ATOM      6  C   UNL     1       1.041   8.490  20.265  0.00  0.00    +0.000 A 
ATOM      7  C   UNL     1       0.744   9.709  19.649  0.00  0.00    +0.000 A 
ATOM      8  C   UNL     1       1.345  10.041  18.435  0.00  0.00    +0.000 A 
ATOM      9  C   UNL     1       2.251   9.158  17.840  0.00  0.00    +0.000 A 
ATOM     10  C   UNL     1       2.546   7.944  18.471  0.00  0.00    +0.000 A 
ATOM     11  C   UNL     1       3.504   6.981  17.882  0.00  0.00    +0.000 A 
ATOM     12  O   UNL     1       4.002   7.212  16.783  0.00  0.00    +0.000 OA
ENDBRANCH   1   2
BRANCH   1  13
ATOM     13  C   UNL     1       4.515   3.551  18.913  0.00  0.00    +0.000 C 
ATOM     14  O   UNL     1       5.337   3.136  19.725  0.00  0.00    +0.000 OA
BRANCH  13  16
ATOM     15  C   UNL     1       3.584   1.445  18.485  0.00  0.00    +0.000 C 
ATOM     16  O   UNL     1       3.405   2.863  18.525  0.00  0.00    +0.000 OA
ENDBRANCH  13  16
ENDBRANCH   1  13
BRANCH   1  17
ATOM     17  C   UNL     1       4.449   4.579  16.588  0.00  0.00    +0.000 C 
BRANCH  17  18
ATOM     18  C   UNL     1       5.626   4.837  15.698  0.00  0.00    +0.000 A 
ATOM     19  C   UNL     1       6.786   5.496  16.057  0.00  0.00    +0.000 A 
ATOM     20  N   UNL     1       7.663   5.432  15.008  0.00  0.00    +0.000 N 
ATOM     21  C   UNL     1       7.090   4.763  13.953  0.00  0.00    +0.000 A 
ATOM     22  C   UNL     1       7.617   4.451  12.693  0.00  0.00    +0.000 A 
ATOM     23  C   UNL     1       6.798   3.749  11.805  0.00  0.00    +0.000 A 
ATOM     24  C   UNL     1       5.508   3.371  12.167  0.00  0.00    +0.000 A 
ATOM     25  C   UNL     1       5.001   3.682  13.434  0.00  0.00    +0.000 A 
ATOM     26  C   UNL     1       5.805   4.392  14.349  0.00  0.00    +0.000 A 
ATOM     27  H   UNL     1       8.603   5.803  15.010  0.00  0.00    +0.000 HD
ENDBRANCH  17  18
ENDBRANCH   1  17
TORSDOF 5
ENDMDL
MODEL 4
REMARK VINA RESULT:      -7.5      2.229      3.212
REMARK  Name = 
REMARK  6 active torsions:
REMARK  status: ('A' for Active; 'I' for Inactive)
REMARK    1  A    between atoms: C_1  and  O_2
REMARK    2  A    between atoms: O_2  and  C_3
REMARK    3  A    between atoms: C_3  and  C_5
REMARK    4  A    between atoms: C_5  and  C_6
REMARK    5  A    between atoms: C_5  and  N_16
REMARK    6  A    between atoms: C_6  and  C_7
REMARK                            x       y       z     vdW  Elec       q    Type
REMARK                         _______ _______ _______ _____ _____    ______ ____
ROOT
ATOM      1  C   UNL     1       4.712   5.209  17.966  0.00  0.00    +0.000 C 
ENDROOT
BRANCH   1   2
ATOM      2  N   UNL     1       5.473   5.085  16.702  0.00  0.00    +0.000 N 
ATOM      3  C   UNL     1       6.624   5.818  16.508  0.00  0.00    +0.000 A 
ATOM      4  N   UNL     1       7.340   5.811  15.436  0.00  0.00    +0.000 NA
ATOM      5  C   UNL     1       6.924   4.997  14.379  0.00  0.00    +0.000 A 
ATOM      6  C   UNL     1       7.707   4.949  13.223  0.00  0.00    +0.000 A 
ATOM      7  C   UNL     1       7.326   4.153  12.139  0.00  0.00    +0.000 A 
ATOM      8  C   UNL     1       6.152   3.404  12.203  0.00  0.00    +0.000 A 
ATOM      9  C   UNL     1       5.360   3.444  13.354  0.00  0.00    +0.000 A 
ATOM     10  C   UNL     1       5.756   4.238  14.436  0.00  0.00    +0.000 A 
ATOM     11  C   UNL     1       4.953   4.305  15.678  0.00  0.00    +0.000 A 
ATOM     12  O   UNL     1       3.880   3.711  15.744  0.00  0.00    +0.000 OA
ENDBRANCH   1   2
BRANCH   1  13
ATOM     13  C   UNL     1       5.627   4.741  19.098  0.00  0.00    +0.000 C 
ATOM     14  O   UNL     1       6.361   5.484  19.743  0.00  0.00    +0.000 OA
BRANCH  13  16
ATOM     15  C   UNL     1       4.360   2.815  19.514  0.00  0.00    +0.000 C 
ATOM     16  O   UNL     1       5.633   3.382  19.194  0.00  0.00    +0.000 OA
ENDBRANCH  13  16
ENDBRANCH   1  13
BRANCH   1  17
ATOM     17  C   UNL     1       4.214   6.646  18.179  0.00  0.00    +0.000 C 
BRANCH  17  18
ATOM     18  C   UNL     1       3.097   6.797  19.167  0.00  0.00    +0.000 A 
ATOM     19  C   UNL     1       2.793   5.919  20.189  0.00  0.00    +0.000 A 
ATOM     20  N   UNL     1       1.783   6.457  20.937  0.00  0.00    +0.000 N 
ATOM     21  C   UNL     1       1.397   7.668  20.411  0.00  0.00    +0.000 A 
ATOM     22  C   UNL     1       0.420   8.570  20.850  0.00  0.00    +0.000 A 
ATOM     23  C   UNL     1       0.242   9.742  20.111  0.00  0.00    +0.000 A 
ATOM     24  C   UNL     1       1.014  10.000  18.981  0.00  0.00    +0.000 A 
ATOM     25  C   UNL     1       1.994   9.092  18.561  0.00  0.00    +0.000 A 
ATOM     26  C   UNL     1       2.193   7.901  19.288  0.00  0.00    +0.000 A 
ATOM     27  H   UNL     1       1.386   6.042  21.769  0.00  0.00    +0.000 HD
ENDBRANCH  17  18
ENDBRANCH   1  17
TORSDOF 5
ENDMDL
MODEL 5
REMARK VINA RESULT:      -7.4      1.074      2.009
REMARK  Name = 
REMARK  6 active torsions:
REMARK  status: ('A' for Active; 'I' for Inactive)
REMARK    1  A    between atoms: C_1  and  O_2
REMARK    2  A    between atoms: O_2  and  C_3
REMARK    3  A    between atoms: C_3  and  C_5
REMARK    4  A    between atoms: C_5  and  C_6
REMARK    5  A    between atoms: C_5  and  N_16
REMARK    6  A    between atoms: C_6  and  C_7
REMARK                            x       y       z     vdW  Elec       q    Type
REMARK                         _______ _______ _______ _____ _____    ______ ____
ROOT
ATOM      1  C   UNL     1       1.833   5.003  19.735  0.00  0.00    +0.000 C 
ENDROOT
BRANCH   1   2
ATOM      2  N   UNL     1       3.154   4.878  19.078  0.00  0.00    +0.000 N 
ATOM      3  C   UNL     1       4.306   5.185  19.771  0.00  0.00    +0.000 A 
ATOM      4  N   UNL     1       5.501   5.144  19.285  0.00  0.00    +0.000 NA
ATOM      5  C   UNL     1       5.650   4.760  17.950  0.00  0.00    +0.000 A 
ATOM      6  C   UNL     1       6.937   4.674  17.418  0.00  0.00    +0.000 A 
ATOM      7  C   UNL     1       7.134   4.299  16.086  0.00  0.00    +0.000 A 
ATOM      8  C   UNL     1       6.037   4.012  15.274  0.00  0.00    +0.000 A 
ATOM      9  C   UNL     1       4.742   4.094  15.796  0.00  0.00    +0.000 A 
ATOM     10  C   UNL     1       4.559   4.463  17.133  0.00  0.00    +0.000 A 
ATOM     11  C   UNL     1       3.208   4.554  17.730  0.00  0.00    +0.000 A 
ATOM     12  O   UNL     1       2.217   4.373  17.027  0.00  0.00    +0.000 OA
ENDBRANCH   1   2
BRANCH   1  13
ATOM     13  C   UNL     1       1.377   3.595  20.115  0.00  0.00    +0.000 C 
ATOM     14  O   UNL     1       0.736   2.854  19.376  0.00  0.00    +0.000 OA
BRANCH  13  16
ATOM     15  C   UNL     1       2.703   2.393  21.627  0.00  0.00    +0.000 C 
ATOM     16  O   UNL     1       1.642   3.331  21.426  0.00  0.00    +0.000 OA
ENDBRANCH  13  16
ENDBRANCH   1  13
BRANCH   1  17
ATOM     17  C   UNL     1       1.899   5.940  20.950  0.00  0.00    +0.000 C 
BRANCH  17  18
ATOM     18  C   UNL     1       1.320   7.306  20.738  0.00  0.00    +0.000 A 
ATOM     19  C   UNL     1       0.477   7.973  21.605  0.00  0.00    +0.000 A 
ATOM     20  N   UNL     1       0.257   9.231  21.113  0.00  0.00    +0.000 N 
ATOM     21  C   UNL     1       0.922   9.396  19.921  0.00  0.00    +0.000 A 
ATOM     22  C   UNL     1       0.994  10.512  19.078  0.00  0.00    +0.000 A 
ATOM     23  C   UNL     1       1.758  10.395  17.913  0.00  0.00    +0.000 A 
ATOM     24  C   UNL     1       2.425   9.211  17.610  0.00  0.00    +0.000 A 
ATOM     25  C   UNL     1       2.350   8.109  18.469  0.00  0.00    +0.000 A 
ATOM     26  C   UNL     1       1.585   8.198  19.650  0.00  0.00    +0.000 A 
ATOM     27  H   UNL     1      -0.297   9.946  21.564  0.00  0.00    +0.000 HD
ENDBRANCH  17  18
ENDBRANCH   1  17
TORSDOF 5
ENDMDL
MODEL 6
REMARK VINA RESULT:      -7.3      3.889      6.310
REMARK  Name = 
REMARK  6 active torsions:
REMARK  status: ('A' for Active; 'I' for Inactive)
REMARK    1  A    between atoms: C_1  and  O_2
REMARK    2  A    between atoms: O_2  and  C_3
REMARK    3  A    between atoms: C_3  and  C_5
REMARK    4  A    between atoms: C_5  and  C_6
REMARK    5  A    between atoms: C_5  and  N_16
REMARK    6  A    between atoms: C_6  and  C_7
REMARK                            x       y       z     vdW  Elec       q    Type
REMARK                         _______ _______ _______ _____ _____    ______ ____
ROOT
ATOM      1  C   UNL     1       0.103  10.590  20.143  0.00  0.00    +0.000 C 
ENDROOT
BRANCH   1   2
ATOM      2  N   UNL     1       1.040   9.652  19.482  0.00  0.00    +0.000 N 
ATOM      3  C   UNL     1       1.577   9.958  18.251  0.00  0.00    +0.000 A 
ATOM      4  N   UNL     1       2.372   9.199  17.575  0.00  0.00    +0.000 NA
ATOM      5  C   UNL     1       2.722   7.965  18.128  0.00  0.00    +0.000 A 
ATOM      6  C   UNL     1       3.610   7.146  17.428  0.00  0.00    +0.000 A 
ATOM      7  C   UNL     1       3.985   5.901  17.940  0.00  0.00    +0.000 A 
ATOM      8  C   UNL     1       3.465   5.463  19.158  0.00  0.00    +0.000 A 
ATOM      9  C   UNL     1       2.575   6.274  19.868  0.00  0.00    +0.000 A 
ATOM     10  C   UNL     1       2.214   7.523  19.349  0.00  0.00    +0.000 A 
ATOM     11  C   UNL     1       1.282   8.418  20.070  0.00  0.00    +0.000 A 
ATOM     12  O   UNL     1       0.754   8.037  21.112  0.00  0.00    +0.000 OA
ENDBRANCH   1   2
BRANCH   1  13
ATOM     13  C   UNL     1       0.811  11.149  21.377  0.00  0.00    +0.000 C 
ATOM     14  O   UNL     1       1.805  11.867  21.336  0.00  0.00    +0.000 OA
BRANCH  13  16
ATOM     15  C   UNL     1      -1.008  11.129  22.852  0.00  0.00    +0.000 C 
ATOM     16  O   UNL     1       0.288  10.625  22.521  0.00  0.00    +0.000 OA
ENDBRANCH  13  16
ENDBRANCH   1  13
BRANCH   1  17
ATOM     17  C   UNL     1      -0.349  11.698  19.181  0.00  0.00    +0.000 C 
BRANCH  17  18
ATOM     18  C   UNL     1      -1.817  11.730  18.885  0.00  0.00    +0.000 A 
ATOM     19  C   UNL     1      -2.786  12.348  19.652  0.00  0.00    +0.000 A 
ATOM     20  N   UNL     1      -3.984  12.251  18.997  0.00  0.00    +0.000 N 
ATOM     21  C   UNL     1      -3.825  11.557  17.821  0.00  0.00    +0.000 A 
ATOM     22  C   UNL     1      -4.765  11.232  16.835  0.00  0.00    +0.000 A 
ATOM     23  C   UNL     1      -4.316  10.509  15.726  0.00  0.00    +0.000 A 
ATOM     24  C   UNL     1      -2.981  10.133  15.610  0.00  0.00    +0.000 A 
ATOM     25  C   UNL     1      -2.053  10.474  16.600  0.00  0.00    +0.000 A 
ATOM     26  C   UNL     1      -2.479  11.201  17.731  0.00  0.00    +0.000 A 
ATOM     27  H   UNL     1      -4.857  12.647  19.316  0.00  0.00    +0.000 HD
ENDBRANCH  17  18
ENDBRANCH   1  17
TORSDOF 5
ENDMDL
MODEL 7
REMARK VINA RESULT:      -7.2      1.785      6.266
REMARK  Name = 
REMARK  6 active torsions:
REMARK  status: ('A' for Active; 'I' for Inactive)
REMARK    1  A    between atoms: C_1  and  O_2
REMARK    2  A    between atoms: O_2  and  C_3
REMARK    3  A    between atoms: C_3  and  C_5
REMARK    4  A    between atoms: C_5  and  C_6
REMARK    5  A    between atoms: C_5  and  N_16
REMARK    6  A    between atoms: C_6  and  C_7
REMARK                            x       y       z     vdW  Elec       q    Type
REMARK                         _______ _______ _______ _____ _____    ______ ____
ROOT
ATOM      1  C   UNL     1       2.690   4.775  18.729  0.00  0.00    +0.000 C 
ENDROOT
BRANCH   1   2
ATOM      2  N   UNL     1       2.265   6.177  18.948  0.00  0.00    +0.000 N 
ATOM      3  C   UNL     1       2.338   7.094  17.921  0.00  0.00    +0.000 A 
ATOM      4  N   UNL     1       2.029   8.342  18.013  0.00  0.00    +0.000 NA
ATOM      5  C   UNL     1       1.583   8.814  19.250  0.00  0.00    +0.000 A 
ATOM      6  C   UNL     1       1.208  10.155  19.360  0.00  0.00    +0.000 A 
ATOM      7  C   UNL     1       0.761  10.672  20.579  0.00  0.00    +0.000 A 
ATOM      8  C   UNL     1       0.692   9.848  21.702  0.00  0.00    +0.000 A 
ATOM      9  C   UNL     1       1.064   8.503  21.605  0.00  0.00    +0.000 A 
ATOM     10  C   UNL     1       1.502   7.996  20.377  0.00  0.00    +0.000 A 
ATOM     11  C   UNL     1       1.899   6.578  20.225  0.00  0.00    +0.000 A 
ATOM     12  O   UNL     1       1.913   5.841  21.207  0.00  0.00    +0.000 OA
ENDBRANCH   1   2
BRANCH   1  13
ATOM     13  C   UNL     1       1.476   4.007  18.206  0.00  0.00    +0.000 C 
ATOM     14  O   UNL     1       1.028   4.117  17.069  0.00  0.00    +0.000 OA
BRANCH  13  16
ATOM     15  C   UNL     1       1.762   2.479  19.958  0.00  0.00    +0.000 C 
ATOM     16  O   UNL     1       0.871   3.306  19.206  0.00  0.00    +0.000 OA
ENDBRANCH  13  16
ENDBRANCH   1  13
BRANCH   1  17
ATOM     17  C   UNL     1       3.885   4.696  17.768  0.00  0.00    +0.000 C 
BRANCH  17  18
ATOM     18  C   UNL     1       5.211   5.054  18.366  0.00  0.00    +0.000 A 
ATOM     19  C   UNL     1       5.918   4.301  19.283  0.00  0.00    +0.000 A 
ATOM     20  N   UNL     1       7.127   4.905  19.500  0.00  0.00    +0.000 N 
ATOM     21  C   UNL     1       7.219   6.059  18.759  0.00  0.00    +0.000 A 
ATOM     22  C   UNL     1       8.269   6.980  18.657  0.00  0.00    +0.000 A 
ATOM     23  C   UNL     1       8.086   8.078  17.812  0.00  0.00    +0.000 A 
ATOM     24  C   UNL     1       6.902   8.241  17.096  0.00  0.00    +0.000 A 
ATOM     25  C   UNL     1       5.868   7.305  17.201  0.00  0.00    +0.000 A 
ATOM     26  C   UNL     1       6.025   6.189  18.049  0.00  0.00    +0.000 A 
ATOM     27  H   UNL     1       7.857   4.549  20.101  0.00  0.00    +0.000 HD
ENDBRANCH  17  18
ENDBRANCH   1  17
TORSDOF 5
ENDMDL
MODEL 8
REMARK VINA RESULT:      -7.2      2.937      5.207
REMARK  Name = 
REMARK  6 active torsions:
REMARK  status: ('A' for Active; 'I' for Inactive)
REMARK    1  A    between atoms: C_1  and  O_2
REMARK    2  A    between atoms: O_2  and  C_3
REMARK    3  A    between atoms: C_3  and  C_5
REMARK    4  A    between atoms: C_5  and  C_6
REMARK    5  A    between atoms: C_5  and  N_16
REMARK    6  A    between atoms: C_6  and  C_7
REMARK                            x       y       z     vdW  Elec       q    Type
REMARK                         _______ _______ _______ _____ _____    ______ ____
ROOT
ATOM      1  C   UNL     1       5.637   5.504  17.563  0.00  0.00    +0.000 C 
ENDROOT
BRANCH   1   2
ATOM      2  N   UNL     1       6.107   5.167  16.199  0.00  0.00    +0.000 N 
ATOM      3  C   UNL     1       7.279   5.708  15.714  0.00  0.00    +0.000 A 
ATOM      4  N   UNL     1       7.759   5.510  14.534  0.00  0.00    +0.000 NA
ATOM      5  C   UNL     1       7.040   4.681  13.668  0.00  0.00    +0.000 A 
ATOM      6  C   UNL     1       7.562   4.426  12.399  0.00  0.00    +0.000 A 
ATOM      7  C   UNL     1       6.875   3.608  11.498  0.00  0.00    +0.000 A 
ATOM      8  C   UNL     1       5.652   3.044  11.862  0.00  0.00    +0.000 A 
ATOM      9  C   UNL     1       5.119   3.292  13.130  0.00  0.00    +0.000 A 
ATOM     10  C   UNL     1       5.821   4.106  14.026  0.00  0.00    +0.000 A 
ATOM     11  C   UNL     1       5.299   4.390  15.382  0.00  0.00    +0.000 A 
ATOM     12  O   UNL     1       4.195   3.964  15.712  0.00  0.00    +0.000 OA
ENDBRANCH   1   2
BRANCH   1  13
ATOM     13  C   UNL     1       6.737   6.326  18.235  0.00  0.00    +0.000 C 
ATOM     14  O   UNL     1       7.450   5.912  19.144  0.00  0.00    +0.000 OA
BRANCH  13  16
ATOM     15  C   UNL     1       7.982   8.281  17.896  0.00  0.00    +0.000 C 
ATOM     16  O   UNL     1       6.719   7.618  17.800  0.00  0.00    +0.000 OA
ENDBRANCH  13  16
ENDBRANCH   1  13
BRANCH   1  17
ATOM     17  C   UNL     1       4.296   6.250  17.523  0.00  0.00    +0.000 C 
BRANCH  17  18
ATOM     18  C   UNL     1       3.367   5.958  18.661  0.00  0.00    +0.000 A 
ATOM     19  C   UNL     1       2.966   6.855  19.633  0.00  0.00    +0.000 A 
ATOM     20  N   UNL     1       2.034   6.246  20.427  0.00  0.00    +0.000 N 
ATOM     21  C   UNL     1       1.830   4.952  20.010  0.00  0.00    +0.000 A 
ATOM     22  C   UNL     1       0.966   3.971  20.512  0.00  0.00    +0.000 A 
ATOM     23  C   UNL     1       0.965   2.724  19.880  0.00  0.00    +0.000 A 
ATOM     24  C   UNL     1       1.793   2.475  18.789  0.00  0.00    +0.000 A 
ATOM     25  C   UNL     1       2.643   3.470  18.293  0.00  0.00    +0.000 A 
ATOM     26  C   UNL     1       2.665   4.736  18.913  0.00  0.00    +0.000 A 
ATOM     27  H   UNL     1       1.547   6.684  21.197  0.00  0.00    +0.000 HD
ENDBRANCH  17  18
ENDBRANCH   1  17
TORSDOF 5
ENDMDL
MODEL 9
REMARK VINA RESULT:      -7.2      2.813      5.025
REMARK  Name = 
REMARK  6 active torsions:
REMARK  status: ('A' for Active; 'I' for Inactive)
REMARK    1  A    between atoms: C_1  and  O_2
REMARK    2  A    between atoms: O_2  and  C_3
REMARK    3  A    between atoms: C_3  and  C_5
REMARK    4  A    between atoms: C_5  and  C_6
REMARK    5  A    between atoms: C_5  and  N_16
REMARK    6  A    between atoms: C_6  and  C_7
REMARK                            x       y       z     vdW  Elec       q    Type
REMARK                         _______ _______ _______ _____ _____    ______ ____
ROOT
ATOM      1  C   UNL     1       5.546   5.287  17.797  0.00  0.00    +0.000 C 
ENDROOT
BRANCH   1   2
ATOM      2  N   UNL     1       6.052   5.061  16.424  0.00  0.00    +0.000 N 
ATOM      3  C   UNL     1       7.211   5.674  16.000  0.00  0.00    +0.000 A 
ATOM      4  N   UNL     1       7.717   5.575  14.818  0.00  0.00    +0.000 NA
ATOM      5  C   UNL     1       7.044   4.782  13.884  0.00  0.00    +0.000 A 
ATOM      6  C   UNL     1       7.597   4.632  12.611  0.00  0.00    +0.000 A 
ATOM      7  C   UNL     1       6.956   3.854  11.643  0.00  0.00    +0.000 A 
ATOM      8  C   UNL     1       5.748   3.224  11.944  0.00  0.00    +0.000 A 
ATOM      9  C   UNL     1       5.185   3.366  13.216  0.00  0.00    +0.000 A 
ATOM     10  C   UNL     1       5.841   4.141  14.179  0.00  0.00    +0.000 A 
ATOM     11  C   UNL     1       5.286   4.313  15.540  0.00  0.00    +0.000 A 
ATOM     12  O   UNL     1       4.193   3.827  15.818  0.00  0.00    +0.000 OA
ENDBRANCH   1   2
BRANCH   1  13
ATOM     13  C   UNL     1       6.682   5.916  18.604  0.00  0.00    +0.000 C 
ATOM     14  O   UNL     1       7.219   6.983  18.322  0.00  0.00    +0.000 OA
BRANCH  13  16
ATOM     15  C   UNL     1       8.363   5.457  20.169  0.00  0.00    +0.000 C 
ATOM     16  O   UNL     1       7.118   5.072  19.580  0.00  0.00    +0.000 OA
ENDBRANCH  13  16
ENDBRANCH   1  13
BRANCH   1  17
ATOM     17  C   UNL     1       4.284   6.161  17.792  0.00  0.00    +0.000 C 
BRANCH  17  18
ATOM     18  C   UNL     1       3.309   5.886  18.896  0.00  0.00    +0.000 A 
ATOM     19  C   UNL     1       2.741   6.829  19.730  0.00  0.00    +0.000 A 
ATOM     20  N   UNL     1       1.824   6.203  20.530  0.00  0.00    +0.000 N 
ATOM     21  C   UNL     1       1.796   4.856  20.254  0.00  0.00    +0.000 A 
ATOM     22  C   UNL     1       1.011   3.840  20.812  0.00  0.00    +0.000 A 
ATOM     23  C   UNL     1       1.195   2.541  20.330  0.00  0.00    +0.000 A 
ATOM     24  C   UNL     1       2.125   2.275  19.328  0.00  0.00    +0.000 A 
ATOM     25  C   UNL     1       2.895   3.304  18.775  0.00  0.00    +0.000 A 
ATOM     26  C   UNL     1       2.731   4.624  19.244  0.00  0.00    +0.000 A 
ATOM     27  H   UNL     1       1.236   6.661  21.213  0.00  0.00    +0.000 HD
ENDBRANCH  17  18
ENDBRANCH   1  17
TORSDOF 5
ENDMDL
