MODEL 1
REMARK VINA RESULT:      -7.0      0.000      0.000
REMARK  Name = 
REMARK  7 active torsions:
REMARK  status: ('A' for Active; 'I' for Inactive)
REMARK    1  A    between atoms: C_1  and  O_2
REMARK    2  A    between atoms: O_2  and  C_3
REMARK    3  A    between atoms: C_3  and  C_4
REMARK    4  A    between atoms: C_4  and  O_5
REMARK    5  A    between atoms: O_5  and  C_6
REMARK    6  A    between atoms: C_10  and  C_11
REMARK    7  A    between atoms: C_17  and  N_18
REMARK                            x       y       z     vdW  Elec       q    Type
REMARK                         _______ _______ _______ _____ _____    ______ ____
ROOT
ATOM      1  C   UNL     1       4.424   3.783  18.675  0.00  0.00    +0.000 C 
ATOM      2  O   UNL     1       4.407   2.571  18.892  0.00  0.00    +0.000 OA
ATOM      3  N   UNL     1       3.685   4.696  19.435  0.00  0.00    +0.000 N 
ATOM      4  C   UNL     1       3.101   4.239  20.696  0.00  0.00    +0.000 C 
ATOM      5  C   UNL     1       1.606   4.535  20.741  0.00  0.00    +0.000 C 
ATOM      6  C   UNL     1       1.324   6.019  20.506  0.00  0.00    +0.000 C 
ATOM      7  C   UNL     1       1.980   6.509  19.208  0.00  0.00    +0.000 C 
ATOM      8  C   UNL     1       3.459   6.116  19.132  0.00  0.00    +0.000 C 
ENDROOT
BRANCH   1  13
ATOM      9  C   UNL     1       6.923   5.788  16.645  0.00  0.00    +0.000 A 
ATOM     10  C   UNL     1       6.770   5.197  15.390  0.00  0.00    +0.000 A 
ATOM     11  C   UNL     1       5.902   4.115  15.217  0.00  0.00    +0.000 A 
ATOM     12  C   UNL     1       5.138   3.654  16.291  0.00  0.00    +0.000 A 
ATOM     13  C   UNL     1       5.270   4.260  17.546  0.00  0.00    +0.000 A 
ATOM     14  C   UNL     1       6.223   5.266  17.731  0.00  0.00    +0.000 A 
BRANCH   9  15
ATOM     15  O   UNL     1       7.763   6.870  16.698  0.00  0.00    +0.000 OA
BRANCH  15  16
ATOM     16  C   UNL     1       7.912   7.486  17.982  0.00  0.00    +0.000 C 
BRANCH  16  17
ATOM     17  C   UNL     1       8.145   8.981  17.809  0.00  0.00    +0.000 C 
BRANCH  17  19
ATOM     18  C   UNL     1       9.316  10.812  18.721  0.00  0.00    +0.000 C 
ATOM     19  O   UNL     1       8.958   9.446  18.885  0.00  0.00    +0.000 OA
ENDBRANCH  17  19
ENDBRANCH  16  17
ENDBRANCH  15  16
ENDBRANCH   9  15
ENDBRANCH   1  13
BRANCH   7  20
ATOM     20  N   UNL     1       1.840   7.947  19.020  0.00  0.00    +0.000 N 
ATOM     21  C   UNL     1       1.250   8.833  19.877  0.00  0.00    +0.000 A 
ATOM     22  C   UNL     1       1.307  10.059  19.259  0.00  0.00    +0.000 A 
ATOM     23  C   UNL     1       1.929   9.807  18.024  0.00  0.00    +0.000 A 
ATOM     24  N   UNL     1       2.246   8.520  17.869  0.00  0.00    +0.000 NA
ENDBRANCH   7  20
TORSDOF 6
ENDMDL
MODEL 2
REMARK VINA RESULT:      -6.9      2.543      4.194
REMARK  Name = 
REMARK  7 active torsions:
REMARK  status: ('A' for Active; 'I' for Inactive)
REMARK    1  A    between atoms: C_1  and  O_2
REMARK    2  A    between atoms: O_2  and  C_3
REMARK    3  A    between atoms: C_3  and  C_4
REMARK    4  A    between atoms: C_4  and  O_5
REMARK    5  A    between atoms: O_5  and  C_6
REMARK    6  A    between atoms: C_10  and  C_11
REMARK    7  A    between atoms: C_17  and  N_18
REMARK                            x       y       z     vdW  Elec       q    Type
REMARK                         _______ _______ _______ _____ _____    ______ ____
ROOT
ATOM      1  C   UNL     1       4.382   3.657  18.819  0.00  0.00    +0.000 C 
ATOM      2  O   UNL     1       4.335   2.453  19.072  0.00  0.00    +0.000 OA
ATOM      3  N   UNL     1       3.652   4.609  19.539  0.00  0.00    +0.000 N 
ATOM      4  C   UNL     1       3.040   4.204  20.805  0.00  0.00    +0.000 C 
ATOM      5  C   UNL     1       1.551   4.534  20.817  0.00  0.00    +0.000 C 
ATOM      6  C   UNL     1       1.306   6.016  20.533  0.00  0.00    +0.000 C 
ATOM      7  C   UNL     1       1.993   6.451  19.231  0.00  0.00    +0.000 C 
ATOM      8  C   UNL     1       3.463   6.025  19.191  0.00  0.00    +0.000 C 
ENDROOT
BRANCH   1  13
ATOM      9  C   UNL     1       5.650   4.355  15.312  0.00  0.00    +0.000 A 
ATOM     10  C   UNL     1       6.947   4.790  15.588  0.00  0.00    +0.000 A 
ATOM     11  C   UNL     1       7.388   4.911  16.909  0.00  0.00    +0.000 A 
ATOM     12  C   UNL     1       6.549   4.542  17.962  0.00  0.00    +0.000 A 
ATOM     13  C   UNL     1       5.256   4.082  17.689  0.00  0.00    +0.000 A 
ATOM     14  C   UNL     1       4.789   4.073  16.372  0.00  0.00    +0.000 A 
BRANCH   9  15
ATOM     15  O   UNL     1       5.331   4.228  13.985  0.00  0.00    +0.000 OA
BRANCH  15  16
ATOM     16  C   UNL     1       6.278   3.518  13.179  0.00  0.00    +0.000 C 
BRANCH  16  17
ATOM     17  C   UNL     1       5.595   3.010  11.916  0.00  0.00    +0.000 C 
BRANCH  17  19
ATOM     18  C   UNL     1       3.529   3.088  10.783  0.00  0.00    +0.000 C 
ATOM     19  O   UNL     1       4.371   3.721  11.738  0.00  0.00    +0.000 OA
ENDBRANCH  17  19
ENDBRANCH  16  17
ENDBRANCH  15  16
ENDBRANCH   9  15
ENDBRANCH   1  13
BRANCH   7  20
ATOM     20  N   UNL     1       1.887   7.886  18.998  0.00  0.00    +0.000 N 
ATOM     21  C   UNL     1       1.325   8.813  19.829  0.00  0.00    +0.000 A 
ATOM     22  C   UNL     1       1.409  10.018  19.171  0.00  0.00    +0.000 A 
ATOM     23  C   UNL     1       2.017   9.710  17.942  0.00  0.00    +0.000 A 
ATOM     24  N   UNL     1       2.301   8.412  17.827  0.00  0.00    +0.000 NA
ENDBRANCH   7  20
TORSDOF 6
ENDMDL
MODEL 3
REMARK VINA RESULT:      -6.9      2.616      4.343
REMARK  Name = 
REMARK  7 active torsions:
REMARK  status: ('A' for Active; 'I' for Inactive)
REMARK    1  A    between atoms: C_1  and  O_2
REMARK    2  A    between atoms: O_2  and  C_3
REMARK    3  A    between atoms: C_3  and  C_4
REMARK    4  A    between atoms: C_4  and  O_5
REMARK    5  A    between atoms: O_5  and  C_6
REMARK    6  A    between atoms: C_10  and  C_11
REMARK    7  A    between atoms: C_17  and  N_18
REMARK                            x       y       z     vdW  Elec       q    Type
REMARK                         _______ _______ _______ _____ _____    ______ ____
ROOT
ATOM      1  C   UNL     1       4.416   3.659  18.810  0.00  0.00    +0.000 C 
ATOM      2  O   UNL     1       4.386   2.462  19.098  0.00  0.00    +0.000 OA
ATOM      3  N   UNL     1       3.694   4.624  19.521  0.00  0.00    +0.000 N 
ATOM      4  C   UNL     1       3.117   4.249  20.812  0.00  0.00    +0.000 C 
ATOM      5  C   UNL     1       1.626   4.565  20.852  0.00  0.00    +0.000 C 
ATOM      6  C   UNL     1       1.359   6.036  20.533  0.00  0.00    +0.000 C 
ATOM      7  C   UNL     1       2.009   6.441  19.203  0.00  0.00    +0.000 C 
ATOM      8  C   UNL     1       3.482   6.027  19.138  0.00  0.00    +0.000 C 
ENDROOT
BRANCH   1  13
ATOM      9  C   UNL     1       5.569   4.319  15.257  0.00  0.00    +0.000 A 
ATOM     10  C   UNL     1       6.886   4.721  15.483  0.00  0.00    +0.000 A 
ATOM     11  C   UNL     1       7.379   4.834  16.787  0.00  0.00    +0.000 A 
ATOM     12  C   UNL     1       6.571   4.488  17.871  0.00  0.00    +0.000 A 
ATOM     13  C   UNL     1       5.257   4.059  17.648  0.00  0.00    +0.000 A 
ATOM     14  C   UNL     1       4.742   4.060  16.348  0.00  0.00    +0.000 A 
BRANCH   9  15
ATOM     15  O   UNL     1       5.199   4.197  13.943  0.00  0.00    +0.000 OA
BRANCH  15  16
ATOM     16  C   UNL     1       6.153   3.571  13.079  0.00  0.00    +0.000 C 
BRANCH  16  17
ATOM     17  C   UNL     1       5.481   3.191  11.765  0.00  0.00    +0.000 C 
BRANCH  17  19
ATOM     18  C   UNL     1       6.917   1.451  11.083  0.00  0.00    +0.000 C 
ATOM     19  O   UNL     1       5.623   1.785  11.566  0.00  0.00    +0.000 OA
ENDBRANCH  17  19
ENDBRANCH  16  17
ENDBRANCH  15  16
ENDBRANCH   9  15
ENDBRANCH   1  13
BRANCH   7  20
ATOM     20  N   UNL     1       1.883   7.867  18.932  0.00  0.00    +0.000 N 
ATOM     21  C   UNL     1       2.301   8.530  17.813  0.00  0.00    +0.000 A 
ATOM     22  C   UNL     1       2.021   9.859  18.028  0.00  0.00    +0.000 A 
ATOM     23  C   UNL     1       1.456   9.900  19.314  0.00  0.00    +0.000 A 
ATOM     24  N   UNL     1       1.380   8.691  19.874  0.00  0.00    +0.000 NA
ENDBRANCH   7  20
TORSDOF 6
ENDMDL
MODEL 4
REMARK VINA RESULT:      -6.9      2.851      5.939
REMARK  Name = 
REMARK  7 active torsions:
REMARK  status: ('A' for Active; 'I' for Inactive)
REMARK    1  A    between atoms: C_1  and  O_2
REMARK    2  A    between atoms: O_2  and  C_3
REMARK    3  A    between atoms: C_3  and  C_4
REMARK    4  A    between atoms: C_4  and  O_5
REMARK    5  A    between atoms: O_5  and  C_6
REMARK    6  A    between atoms: C_10  and  C_11
REMARK    7  A    between atoms: C_17  and  N_18
REMARK                            x       y       z     vdW  Elec       q    Type
REMARK                         _______ _______ _______ _____ _____    ______ ____
ROOT
ATOM      1  C   UNL     1       3.406   3.304  17.502  0.00  0.00    +0.000 C 
ATOM      2  O   UNL     1       2.957   2.264  17.019  0.00  0.00    +0.000 OA
ATOM      3  N   UNL     1       4.345   4.100  16.837  0.00  0.00    +0.000 N 
ATOM      4  C   UNL     1       4.588   3.849  15.416  0.00  0.00    +0.000 C 
ATOM      5  C   UNL     1       6.075   3.642  15.148  0.00  0.00    +0.000 C 
ATOM      6  C   UNL     1       6.902   4.826  15.650  0.00  0.00    +0.000 C 
ATOM      7  C   UNL     1       6.608   5.120  17.127  0.00  0.00    +0.000 C 
ATOM      8  C   UNL     1       5.104   5.226  17.400  0.00  0.00    +0.000 C 
ENDROOT
BRANCH   1  13
ATOM      9  C   UNL     1       2.015   5.359  20.371  0.00  0.00    +0.000 A 
ATOM     10  C   UNL     1       2.092   4.433  21.413  0.00  0.00    +0.000 A 
ATOM     11  C   UNL     1       2.540   3.131  21.173  0.00  0.00    +0.000 A 
ATOM     12  C   UNL     1       2.966   2.764  19.895  0.00  0.00    +0.000 A 
ATOM     13  C   UNL     1       2.914   3.697  18.852  0.00  0.00    +0.000 A 
ATOM     14  C   UNL     1       2.359   4.959  19.081  0.00  0.00    +0.000 A 
BRANCH   9  15
ATOM     15  O   UNL     1       1.607   6.619  20.721  0.00  0.00    +0.000 OA
BRANCH  15  16
ATOM     16  C   UNL     1       2.054   7.681  19.871  0.00  0.00    +0.000 C 
BRANCH  16  17
ATOM     17  C   UNL     1       1.157   8.898  20.055  0.00  0.00    +0.000 C 
BRANCH  17  19
ATOM     18  C   UNL     1       1.894   9.042  17.821  0.00  0.00    +0.000 C 
ATOM     19  O   UNL     1       1.254   9.721  18.893  0.00  0.00    +0.000 OA
ENDBRANCH  17  19
ENDBRANCH  16  17
ENDBRANCH  15  16
ENDBRANCH   9  15
ENDBRANCH   1  13
BRANCH   7  20
ATOM     20  N   UNL     1       7.282   6.322  17.601  0.00  0.00    +0.000 N 
ATOM     21  C   UNL     1       7.984   6.464  18.765  0.00  0.00    +0.000 A 
ATOM     22  C   UNL     1       8.390   7.777  18.809  0.00  0.00    +0.000 A 
ATOM     23  C   UNL     1       7.866   8.351  17.638  0.00  0.00    +0.000 A 
ATOM     24  N   UNL     1       7.181   7.472  16.904  0.00  0.00    +0.000 NA
ENDBRANCH   7  20
TORSDOF 6
ENDMDL
MODEL 5
REMARK VINA RESULT:      -6.8      2.880      6.156
REMARK  Name = 
REMARK  7 active torsions:
REMARK  status: ('A' for Active; 'I' for Inactive)
REMARK    1  A    between atoms: C_1  and  O_2
REMARK    2  A    between atoms: O_2  and  C_3
REMARK    3  A    between atoms: C_3  and  C_4
REMARK    4  A    between atoms: C_4  and  O_5
REMARK    5  A    between atoms: O_5  and  C_6
REMARK    6  A    between atoms: C_10  and  C_11
REMARK    7  A    between atoms: C_17  and  N_18
REMARK                            x       y       z     vdW  Elec       q    Type
REMARK                         _______ _______ _______ _____ _____    ______ ____
ROOT
ATOM      1  C   UNL     1       3.272   4.027  17.400  0.00  0.00    +0.000 C 
ATOM      2  O   UNL     1       2.798   2.959  17.012  0.00  0.00    +0.000 OA
ATOM      3  N   UNL     1       4.368   4.636  16.779  0.00  0.00    +0.000 N 
ATOM      4  C   UNL     1       4.786   4.143  15.466  0.00  0.00    +0.000 C 
ATOM      5  C   UNL     1       6.269   3.788  15.466  0.00  0.00    +0.000 C 
ATOM      6  C   UNL     1       7.125   4.974  15.910  0.00  0.00    +0.000 C 
ATOM      7  C   UNL     1       6.653   5.522  17.264  0.00  0.00    +0.000 C 
ATOM      8  C   UNL     1       5.143   5.779  17.281  0.00  0.00    +0.000 C 
ENDROOT
BRANCH   1  13
ATOM      9  C   UNL     1       2.023   6.646  19.844  0.00  0.00    +0.000 A 
ATOM     10  C   UNL     1       1.517   5.832  20.859  0.00  0.00    +0.000 A 
ATOM     11  C   UNL     1       1.530   4.440  20.724  0.00  0.00    +0.000 A 
ATOM     12  C   UNL     1       2.101   3.853  19.593  0.00  0.00    +0.000 A 
ATOM     13  C   UNL     1       2.632   4.666  18.584  0.00  0.00    +0.000 A 
ATOM     14  C   UNL     1       2.512   6.055  18.680  0.00  0.00    +0.000 A 
BRANCH   9  15
ATOM     15  O   UNL     1       2.005   7.993  20.094  0.00  0.00    +0.000 OA
BRANCH  15  16
ATOM     16  C   UNL     1       1.196   8.415  21.197  0.00  0.00    +0.000 C 
BRANCH  16  17
ATOM     17  C   UNL     1       0.441   9.684  20.822  0.00  0.00    +0.000 C 
BRANCH  17  19
ATOM     18  C   UNL     1       0.435  12.016  21.164  0.00  0.00    +0.000 C 
ATOM     19  O   UNL     1       0.937  10.764  21.612  0.00  0.00    +0.000 OA
ENDBRANCH  17  19
ENDBRANCH  16  17
ENDBRANCH  15  16
ENDBRANCH   9  15
ENDBRANCH   1  13
BRANCH   7  20
ATOM     20  N   UNL     1       7.365   6.732  17.655  0.00  0.00    +0.000 N 
ATOM     21  C   UNL     1       8.166   6.895  18.750  0.00  0.00    +0.000 A 
ATOM     22  C   UNL     1       8.574   8.208  18.734  0.00  0.00    +0.000 A 
ATOM     23  C   UNL     1       7.948   8.761  17.604  0.00  0.00    +0.000 A 
ATOM     24  N   UNL     1       7.202   7.869  16.949  0.00  0.00    +0.000 NA
ENDBRANCH   7  20
TORSDOF 6
ENDMDL
MODEL 6
REMARK VINA RESULT:      -6.7      3.938      7.757
REMARK  Name = 
REMARK  7 active torsions:
REMARK  status: ('A' for Active; 'I' for Inactive)
REMARK    1  A    between atoms: C_1  and  O_2
REMARK    2  A    between atoms: O_2  and  C_3
REMARK    3  A    between atoms: C_3  and  C_4
REMARK    4  A    between atoms: C_4  and  O_5
REMARK    5  A    between atoms: O_5  and  C_6
REMARK    6  A    between atoms: C_10  and  C_11
REMARK    7  A    between atoms: C_17  and  N_18
REMARK                            x       y       z     vdW  Elec       q    Type
REMARK                         _______ _______ _______ _____ _____    ______ ____
ROOT
ATOM      1  C   UNL     1       2.325   8.473  18.174  0.00  0.00    +0.000 C 
ATOM      2  O   UNL     1       2.558   9.158  17.178  0.00  0.00    +0.000 OA
ATOM      3  N   UNL     1       2.969   7.256  18.421  0.00  0.00    +0.000 N 
ATOM      4  C   UNL     1       4.155   6.924  17.630  0.00  0.00    +0.000 C 
ATOM      5  C   UNL     1       4.005   5.554  16.976  0.00  0.00    +0.000 C 
ATOM      6  C   UNL     1       3.712   4.471  18.015  0.00  0.00    +0.000 C 
ATOM      7  C   UNL     1       2.498   4.845  18.877  0.00  0.00    +0.000 C 
ATOM      8  C   UNL     1       2.617   6.262  19.445  0.00  0.00    +0.000 C 
ENDROOT
BRANCH   1  13
ATOM      9  C   UNL     1      -0.660  10.328  19.603  0.00  0.00    +0.000 A 
ATOM     10  C   UNL     1      -0.537  10.012  20.957  0.00  0.00    +0.000 A 
ATOM     11  C   UNL     1       0.475   9.153  21.395  0.00  0.00    +0.000 A 
ATOM     12  C   UNL     1       1.407   8.651  20.485  0.00  0.00    +0.000 A 
ATOM     13  C   UNL     1       1.303   8.986  19.130  0.00  0.00    +0.000 A 
ATOM     14  C   UNL     1       0.221   9.753  18.689  0.00  0.00    +0.000 A 
BRANCH   9  15
ATOM     15  O   UNL     1      -1.657  11.213  19.284  0.00  0.00    +0.000 OA
BRANCH  15  16
ATOM     16  C   UNL     1      -1.655  11.701  17.938  0.00  0.00    +0.000 C 
BRANCH  16  17
ATOM     17  C   UNL     1      -2.926  11.250  17.228  0.00  0.00    +0.000 C 
BRANCH  17  19
ATOM     18  C   UNL     1      -2.886  10.387  15.035  0.00  0.00    +0.000 C 
ATOM     19  O   UNL     1      -2.619  10.125  16.406  0.00  0.00    +0.000 OA
ENDBRANCH  17  19
ENDBRANCH  16  17
ENDBRANCH  15  16
ENDBRANCH   9  15
ENDBRANCH   1  13
BRANCH   7  20
ATOM     20  N   UNL     1       2.270   3.896  19.959  0.00  0.00    +0.000 N 
ATOM     21  C   UNL     1       1.098   3.678  20.626  0.00  0.00    +0.000 A 
ATOM     22  C   UNL     1       1.375   2.738  21.591  0.00  0.00    +0.000 A 
ATOM     23  C   UNL     1       2.746   2.468  21.441  0.00  0.00    +0.000 A 
ATOM     24  N   UNL     1       3.299   3.178  20.456  0.00  0.00    +0.000 NA
ENDBRANCH   7  20
TORSDOF 6
ENDMDL
MODEL 7
REMARK VINA RESULT:      -6.6      2.862      6.169
REMARK  Name = 
REMARK  7 active torsions:
REMARK  status: ('A' for Active; 'I' for Inactive)
REMARK    1  A    between atoms: C_1  and  O_2
REMARK    2  A    between atoms: O_2  and  C_3
REMARK    3  A    between atoms: C_3  and  C_4
REMARK    4  A    between atoms: C_4  and  O_5
REMARK    5  A    between atoms: O_5  and  C_6
REMARK    6  A    between atoms: C_10  and  C_11
REMARK    7  A    between atoms: C_17  and  N_18
REMARK                            x       y       z     vdW  Elec       q    Type
REMARK                         _______ _______ _______ _____ _____    ______ ____
ROOT
ATOM      1  C   UNL     1       3.322   4.021  17.413  0.00  0.00    +0.000 C 
ATOM      2  O   UNL     1       2.857   2.945  17.033  0.00  0.00    +0.000 OA
ATOM      3  N   UNL     1       4.414   4.632  16.789  0.00  0.00    +0.000 N 
ATOM      4  C   UNL     1       4.838   4.132  15.481  0.00  0.00    +0.000 C 
ATOM      5  C   UNL     1       6.323   3.788  15.487  0.00  0.00    +0.000 C 
ATOM      6  C   UNL     1       7.170   4.984  15.923  0.00  0.00    +0.000 C 
ATOM      7  C   UNL     1       6.692   5.539  17.271  0.00  0.00    +0.000 C 
ATOM      8  C   UNL     1       5.181   5.785  17.284  0.00  0.00    +0.000 C 
ENDROOT
BRANCH   1  13
ATOM      9  C   UNL     1       1.939   6.648  19.774  0.00  0.00    +0.000 A 
ATOM     10  C   UNL     1       1.553   5.850  20.852  0.00  0.00    +0.000 A 
ATOM     11  C   UNL     1       1.688   4.460  20.789  0.00  0.00    +0.000 A 
ATOM     12  C   UNL     1       2.264   3.864  19.665  0.00  0.00    +0.000 A 
ATOM     13  C   UNL     1       2.676   4.664  18.592  0.00  0.00    +0.000 A 
ATOM     14  C   UNL     1       2.432   6.040  18.621  0.00  0.00    +0.000 A 
BRANCH   9  15
ATOM     15  O   UNL     1       1.808   8.000  19.955  0.00  0.00    +0.000 OA
BRANCH  15  16
ATOM     16  C   UNL     1       1.792   8.793  18.763  0.00  0.00    +0.000 C 
BRANCH  16  17
ATOM     17  C   UNL     1       1.089  10.117  19.038  0.00  0.00    +0.000 C 
BRANCH  17  19
ATOM     18  C   UNL     1      -1.177  10.732  19.243  0.00  0.00    +0.000 C 
ATOM     19  O   UNL     1      -0.154   9.850  19.686  0.00  0.00    +0.000 OA
ENDBRANCH  17  19
ENDBRANCH  16  17
ENDBRANCH  15  16
ENDBRANCH   9  15
ENDBRANCH   1  13
BRANCH   7  20
ATOM     20  N   UNL     1       7.395   6.757  17.653  0.00  0.00    +0.000 N 
ATOM     21  C   UNL     1       8.186   6.938  18.753  0.00  0.00    +0.000 A 
ATOM     22  C   UNL     1       8.587   8.253  18.724  0.00  0.00    +0.000 A 
ATOM     23  C   UNL     1       7.968   8.788  17.582  0.00  0.00    +0.000 A 
ATOM     24  N   UNL     1       7.232   7.885  16.932  0.00  0.00    +0.000 NA
ENDBRANCH   7  20
TORSDOF 6
ENDMDL
MODEL 8
REMARK VINA RESULT:      -6.6      2.980      6.319
REMARK  Name = 
REMARK  7 active torsions:
REMARK  status: ('A' for Active; 'I' for Inactive)
REMARK    1  A    between atoms: C_1  and  O_2
REMARK    2  A    between atoms: O_2  and  C_3
REMARK    3  A    between atoms: C_3  and  C_4
REMARK    4  A    between atoms: C_4  and  O_5
REMARK    5  A    between atoms: O_5  and  C_6
REMARK    6  A    between atoms: C_10  and  C_11
REMARK    7  A    between atoms: C_17  and  N_18
REMARK                            x       y       z     vdW  Elec       q    Type
REMARK                         _______ _______ _______ _____ _____    ______ ____
ROOT
ATOM      1  C   UNL     1       3.181   3.954  17.374  0.00  0.00    +0.000 C 
ATOM      2  O   UNL     1       2.706   2.907  16.932  0.00  0.00    +0.000 OA
ATOM      3  N   UNL     1       4.274   4.596  16.783  0.00  0.00    +0.000 N 
ATOM      4  C   UNL     1       4.687   4.175  15.444  0.00  0.00    +0.000 C 
ATOM      5  C   UNL     1       6.170   3.821  15.420  0.00  0.00    +0.000 C 
ATOM      6  C   UNL     1       7.028   4.982  15.923  0.00  0.00    +0.000 C 
ATOM      7  C   UNL     1       6.561   5.457  17.306  0.00  0.00    +0.000 C 
ATOM      8  C   UNL     1       5.051   5.711  17.343  0.00  0.00    +0.000 C 
ENDROOT
BRANCH   1  13
ATOM      9  C   UNL     1       1.960   6.435  19.971  0.00  0.00    +0.000 A 
ATOM     10  C   UNL     1       1.438   5.568  20.932  0.00  0.00    +0.000 A 
ATOM     11  C   UNL     1       1.430   4.188  20.711  0.00  0.00    +0.000 A 
ATOM     12  C   UNL     1       1.997   3.663  19.549  0.00  0.00    +0.000 A 
ATOM     13  C   UNL     1       2.546   4.528  18.594  0.00  0.00    +0.000 A 
ATOM     14  C   UNL     1       2.445   5.910  18.775  0.00  0.00    +0.000 A 
BRANCH   9  15
ATOM     15  O   UNL     1       1.961   7.765  20.304  0.00  0.00    +0.000 OA
BRANCH  15  16
ATOM     16  C   UNL     1       0.926   8.188  21.198  0.00  0.00    +0.000 C 
BRANCH  16  17
ATOM     17  C   UNL     1       1.509   9.124  22.249  0.00  0.00    +0.000 C 
BRANCH  17  19
ATOM     18  C   UNL     1      -0.551   9.996  22.992  0.00  0.00    +0.000 C 
ATOM     19  O   UNL     1       0.681  10.282  22.343  0.00  0.00    +0.000 OA
ENDBRANCH  17  19
ENDBRANCH  16  17
ENDBRANCH  15  16
ENDBRANCH   9  15
ENDBRANCH   1  13
BRANCH   7  20
ATOM     20  N   UNL     1       7.274   6.644  17.759  0.00  0.00    +0.000 N 
ATOM     21  C   UNL     1       7.298   7.868  17.151  0.00  0.00    +0.000 A 
ATOM     22  C   UNL     1       8.138   8.653  17.906  0.00  0.00    +0.000 A 
ATOM     23  C   UNL     1       8.588   7.807  18.934  0.00  0.00    +0.000 A 
ATOM     24  N   UNL     1       8.073   6.580  18.843  0.00  0.00    +0.000 NA
ENDBRANCH   7  20
TORSDOF 6
ENDMDL
MODEL 9
REMARK VINA RESULT:      -6.6      4.396      7.062
REMARK  Name = 
REMARK  7 active torsions:
REMARK  status: ('A' for Active; 'I' for Inactive)
REMARK    1  A    between atoms: C_1  and  O_2
REMARK    2  A    between atoms: O_2  and  C_3
REMARK    3  A    between atoms: C_3  and  C_4
REMARK    4  A    between atoms: C_4  and  O_5
REMARK    5  A    between atoms: O_5  and  C_6
REMARK    6  A    between atoms: C_10  and  C_11
REMARK    7  A    between atoms: C_17  and  N_18
REMARK                            x       y       z     vdW  Elec       q    Type
REMARK                         _______ _______ _______ _____ _____    ______ ____
ROOT
ATOM      1  C   UNL     1       1.013   9.767  20.881  0.00  0.00    +0.000 C 
ATOM      2  O   UNL     1       1.370   9.963  22.044  0.00  0.00    +0.000 OA
ATOM      3  N   UNL     1       0.212  10.671  20.176  0.00  0.00    +0.000 N 
ATOM      4  C   UNL     1       0.027  12.014  20.727  0.00  0.00    +0.000 C 
ATOM      5  C   UNL     1      -1.455  12.353  20.846  0.00  0.00    +0.000 C 
ATOM      6  C   UNL     1      -2.171  12.202  19.504  0.00  0.00    +0.000 C 
ATOM      7  C   UNL     1      -1.934  10.810  18.904  0.00  0.00    +0.000 C 
ATOM      8  C   UNL     1      -0.448  10.442  18.882  0.00  0.00    +0.000 C 
ENDROOT
BRANCH   1  13
ATOM      9  C   UNL     1       1.874   6.115  20.323  0.00  0.00    +0.000 A 
ATOM     10  C   UNL     1       2.407   6.169  19.034  0.00  0.00    +0.000 A 
ATOM     11  C   UNL     1       2.434   7.375  18.328  0.00  0.00    +0.000 A 
ATOM     12  C   UNL     1       1.977   8.548  18.932  0.00  0.00    +0.000 A 
ATOM     13  C   UNL     1       1.464   8.503  20.235  0.00  0.00    +0.000 A 
ATOM     14  C   UNL     1       1.339   7.273  20.886  0.00  0.00    +0.000 A 
BRANCH   9  15
ATOM     15  O   UNL     1       1.936   4.895  20.945  0.00  0.00    +0.000 OA
BRANCH  15  16
ATOM     16  C   UNL     1       1.082   3.876  20.413  0.00  0.00    +0.000 C 
BRANCH  16  17
ATOM     17  C   UNL     1       1.858   2.571  20.290  0.00  0.00    +0.000 C 
BRANCH  17  19
ATOM     18  C   UNL     1       4.144   2.458  19.727  0.00  0.00    +0.000 C 
ATOM     19  O   UNL     1       3.197   2.790  20.733  0.00  0.00    +0.000 OA
ENDBRANCH  17  19
ENDBRANCH  16  17
ENDBRANCH  15  16
ENDBRANCH   9  15
ENDBRANCH   1  13
BRANCH   7  20
ATOM     20  N   UNL     1      -2.496  10.677  17.566  0.00  0.00    +0.000 N 
ATOM     21  C   UNL     1      -3.586  11.331  17.065  0.00  0.00    +0.000 A 
ATOM     22  C   UNL     1      -3.768  10.850  15.789  0.00  0.00    +0.000 A 
ATOM     23  C   UNL     1      -2.752   9.894  15.621  0.00  0.00    +0.000 A 
ATOM     24  N   UNL     1      -1.981   9.776  16.704  0.00  0.00    +0.000 NA
ENDBRANCH   7  20
TORSDOF 6
ENDMDL
