MODEL 1
REMARK VINA RESULT:      -8.5      0.000      0.000
REMARK  Name = 
REMARK  1 active torsions:
REMARK  status: ('A' for Active; 'I' for Inactive)
REMARK    1  A    between atoms: C_2  and  C_14
REMARK                            x       y       z     vdW  Elec       q    Type
REMARK                         _______ _______ _______ _____ _____    ______ ____
ROOT
ATOM      1  O   UNL     1       7.236   4.367  16.703  0.00  0.00    +0.000 OA
ATOM      2  C   UNL     1       6.399   4.477  15.812  0.00  0.00    +0.000 C 
ATOM      3  N   UNL     1       5.027   4.419  15.955  0.00  0.00    +0.000 N 
ATOM      4  C   UNL     1       4.394   4.237  17.191  0.00  0.00    +0.000 A 
ATOM      5  C   UNL     1       3.071   3.813  17.215  0.00  0.00    +0.000 A 
ATOM      6  C   UNL     1       2.466   3.516  18.453  0.00  0.00    +0.000 A 
ATOM      7  C   UNL     1       1.162   3.000  18.554  0.00  0.00    +0.000 A 
ATOM      8  C   UNL     1       0.606   2.701  19.803  0.00  0.00    +0.000 A 
ATOM      9  C   UNL     1       1.336   2.925  20.968  0.00  0.00    +0.000 A 
ATOM     10  C   UNL     1       2.630   3.431  20.888  0.00  0.00    +0.000 A 
ATOM     11  C   UNL     1       3.201   3.717  19.635  0.00  0.00    +0.000 A 
ATOM     12  C   UNL     1       4.501   4.188  19.503  0.00  0.00    +0.000 A 
ATOM     13  N   UNL     1       5.094   4.442  18.320  0.00  0.00    +0.000 NA
ATOM     14  H   UNL     1       4.492   4.400  15.096  0.00  0.00    +0.000 HD
ENDROOT
BRANCH   2  15
ATOM     15  C   UNL     1       6.847   4.626  14.418  0.00  0.00    +0.000 A 
ATOM     16  C   UNL     1       6.360   3.867  13.321  0.00  0.00    +0.000 A 
ATOM     17  C   UNL     1       7.075   4.292  12.233  0.00  0.00    +0.000 A 
ATOM     18  N   UNL     1       7.932   5.242  12.703  0.00  0.00    +0.000 N 
ATOM     19  N   UNL     1       7.784   5.512  14.018  0.00  0.00    +0.000 NA
ATOM     20  H   UNL     1       8.645   5.743  12.182  0.00  0.00    +0.000 HD
ENDBRANCH   2  15
TORSDOF 1
ENDMDL
MODEL 2
REMARK VINA RESULT:      -7.5      1.379      1.510
REMARK  Name = 
REMARK  1 active torsions:
REMARK  status: ('A' for Active; 'I' for Inactive)
REMARK    1  A    between atoms: C_2  and  C_14
REMARK                            x       y       z     vdW  Elec       q    Type
REMARK                         _______ _______ _______ _____ _____    ______ ____
ROOT
ATOM      1  O   UNL     1       5.502   6.483  15.654  0.00  0.00    +0.000 OA
ATOM      2  C   UNL     1       5.548   5.303  15.321  0.00  0.00    +0.000 C 
ATOM      3  N   UNL     1       4.968   4.236  15.978  0.00  0.00    +0.000 N 
ATOM      4  C   UNL     1       4.210   4.378  17.147  0.00  0.00    +0.000 A 
ATOM      5  C   UNL     1       3.988   3.262  17.946  0.00  0.00    +0.000 A 
ATOM      6  C   UNL     1       3.328   3.422  19.181  0.00  0.00    +0.000 A 
ATOM      7  C   UNL     1       3.142   2.360  20.083  0.00  0.00    +0.000 A 
ATOM      8  C   UNL     1       2.497   2.565  21.307  0.00  0.00    +0.000 A 
ATOM      9  C   UNL     1       2.015   3.828  21.643  0.00  0.00    +0.000 A 
ATOM     10  C   UNL     1       2.192   4.893  20.764  0.00  0.00    +0.000 A 
ATOM     11  C   UNL     1       2.855   4.697  19.541  0.00  0.00    +0.000 A 
ATOM     12  C   UNL     1       3.088   5.736  18.649  0.00  0.00    +0.000 A 
ATOM     13  N   UNL     1       3.749   5.595  17.483  0.00  0.00    +0.000 NA
ATOM     14  H   UNL     1       5.215   3.316  15.634  0.00  0.00    +0.000 HD
ENDROOT
BRANCH   2  15
ATOM     15  C   UNL     1       6.338   4.919  14.141  0.00  0.00    +0.000 A 
ATOM     16  C   UNL     1       5.980   3.898  13.219  0.00  0.00    +0.000 A 
ATOM     17  C   UNL     1       7.008   3.843  12.316  0.00  0.00    +0.000 A 
ATOM     18  N   UNL     1       7.907   4.785  12.719  0.00  0.00    +0.000 N 
ATOM     19  N   UNL     1       7.507   5.498  13.794  0.00  0.00    +0.000 NA
ATOM     20  H   UNL     1       8.812   4.990  12.309  0.00  0.00    +0.000 HD
ENDBRANCH   2  15
TORSDOF 1
ENDMDL
MODEL 3
REMARK VINA RESULT:      -7.3      3.807      3.966
REMARK  Name = 
REMARK  1 active torsions:
REMARK  status: ('A' for Active; 'I' for Inactive)
REMARK    1  A    between atoms: C_2  and  C_14
REMARK                            x       y       z     vdW  Elec       q    Type
REMARK                         _______ _______ _______ _____ _____    ______ ____
ROOT
ATOM      1  O   UNL     1       4.717   4.390  17.585  0.00  0.00    +0.000 OA
ATOM      2  C   UNL     1       4.983   5.340  16.855  0.00  0.00    +0.000 C 
ATOM      3  N   UNL     1       4.503   6.630  16.970  0.00  0.00    +0.000 N 
ATOM      4  C   UNL     1       3.629   7.033  17.988  0.00  0.00    +0.000 A 
ATOM      5  C   UNL     1       2.902   8.207  17.826  0.00  0.00    +0.000 A 
ATOM      6  C   UNL     1       1.937   8.556  18.792  0.00  0.00    +0.000 A 
ATOM      7  C   UNL     1       1.102   9.679  18.657  0.00  0.00    +0.000 A 
ATOM      8  C   UNL     1       0.143   9.979  19.630  0.00  0.00    +0.000 A 
ATOM      9  C   UNL     1       0.012   9.173  20.759  0.00  0.00    +0.000 A 
ATOM     10  C   UNL     1       0.827   8.054  20.908  0.00  0.00    +0.000 A 
ATOM     11  C   UNL     1       1.780   7.737  19.925  0.00  0.00    +0.000 A 
ATOM     12  C   UNL     1       2.589   6.612  20.013  0.00  0.00    +0.000 A 
ATOM     13  N   UNL     1       3.490   6.256  19.075  0.00  0.00    +0.000 NA
ATOM     14  H   UNL     1       4.725   7.255  16.206  0.00  0.00    +0.000 HD
ENDROOT
BRANCH   2  15
ATOM     15  C   UNL     1       5.849   5.128  15.686  0.00  0.00    +0.000 A 
ATOM     16  C   UNL     1       5.530   4.300  14.576  0.00  0.00    +0.000 A 
ATOM     17  C   UNL     1       6.623   4.352  13.752  0.00  0.00    +0.000 A 
ATOM     18  N   UNL     1       7.519   5.167  14.378  0.00  0.00    +0.000 N 
ATOM     19  N   UNL     1       7.061   5.702  15.530  0.00  0.00    +0.000 NA
ATOM     20  H   UNL     1       8.460   5.397  14.075  0.00  0.00    +0.000 HD
ENDBRANCH   2  15
TORSDOF 1
ENDMDL
MODEL 4
REMARK VINA RESULT:      -7.2      2.040      7.012
REMARK  Name = 
REMARK  1 active torsions:
REMARK  status: ('A' for Active; 'I' for Inactive)
REMARK    1  A    between atoms: C_2  and  C_14
REMARK                            x       y       z     vdW  Elec       q    Type
REMARK                         _______ _______ _______ _____ _____    ______ ____
ROOT
ATOM      1  O   UNL     1       4.254   5.496  19.213  0.00  0.00    +0.000 OA
ATOM      2  C   UNL     1       3.706   4.464  18.839  0.00  0.00    +0.000 C 
ATOM      3  N   UNL     1       3.986   3.748  17.692  0.00  0.00    +0.000 N 
ATOM      4  C   UNL     1       4.984   4.121  16.783  0.00  0.00    +0.000 A 
ATOM      5  C   UNL     1       4.955   3.595  15.496  0.00  0.00    +0.000 A 
ATOM      6  C   UNL     1       5.886   4.054  14.544  0.00  0.00    +0.000 A 
ATOM      7  C   UNL     1       5.867   3.636  13.202  0.00  0.00    +0.000 A 
ATOM      8  C   UNL     1       6.799   4.132  12.284  0.00  0.00    +0.000 A 
ATOM      9  C   UNL     1       7.773   5.040  12.694  0.00  0.00    +0.000 A 
ATOM     10  C   UNL     1       7.806   5.468  14.018  0.00  0.00    +0.000 A 
ATOM     11  C   UNL     1       6.861   4.988  14.941  0.00  0.00    +0.000 A 
ATOM     12  C   UNL     1       6.832   5.415  16.262  0.00  0.00    +0.000 A 
ATOM     13  N   UNL     1       5.922   5.003  17.168  0.00  0.00    +0.000 NA
ATOM     14  H   UNL     1       3.349   2.992  17.474  0.00  0.00    +0.000 HD
ENDROOT
BRANCH   2  15
ATOM     15  C   UNL     1       2.587   3.919  19.624  0.00  0.00    +0.000 A 
ATOM     16  C   UNL     1       2.716   3.266  20.879  0.00  0.00    +0.000 A 
ATOM     17  C   UNL     1       1.448   2.881  21.225  0.00  0.00    +0.000 A 
ATOM     18  N   UNL     1       0.645   3.293  20.203  0.00  0.00    +0.000 N 
ATOM     19  N   UNL     1       1.295   3.977  19.237  0.00  0.00    +0.000 NA
ATOM     20  H   UNL     1      -0.352   3.137  20.100  0.00  0.00    +0.000 HD
ENDBRANCH   2  15
TORSDOF 1
ENDMDL
MODEL 5
REMARK VINA RESULT:      -7.2      5.253      7.876
REMARK  Name = 
REMARK  1 active torsions:
REMARK  status: ('A' for Active; 'I' for Inactive)
REMARK    1  A    between atoms: C_2  and  C_14
REMARK                            x       y       z     vdW  Elec       q    Type
REMARK                         _______ _______ _______ _____ _____    ______ ____
ROOT
ATOM      1  O   UNL     1       1.385   9.314  19.422  0.00  0.00    +0.000 OA
ATOM      2  C   UNL     1       1.115   8.853  20.526  0.00  0.00    +0.000 C 
ATOM      3  N   UNL     1       1.343   7.562  20.961  0.00  0.00    +0.000 N 
ATOM      4  C   UNL     1       1.952   6.583  20.165  0.00  0.00    +0.000 A 
ATOM      5  C   UNL     1       1.804   5.245  20.511  0.00  0.00    +0.000 A 
ATOM      6  C   UNL     1       2.314   4.253  19.652  0.00  0.00    +0.000 A 
ATOM      7  C   UNL     1       2.130   2.879  19.887  0.00  0.00    +0.000 A 
ATOM      8  C   UNL     1       2.638   1.926  18.998  0.00  0.00    +0.000 A 
ATOM      9  C   UNL     1       3.348   2.327  17.868  0.00  0.00    +0.000 A 
ATOM     10  C   UNL     1       3.538   3.683  17.616  0.00  0.00    +0.000 A 
ATOM     11  C   UNL     1       3.015   4.646  18.496  0.00  0.00    +0.000 A 
ATOM     12  C   UNL     1       3.146   6.009  18.267  0.00  0.00    +0.000 A 
ATOM     13  N   UNL     1       2.630   6.962  19.069  0.00  0.00    +0.000 NA
ATOM     14  H   UNL     1       0.939   7.318  21.857  0.00  0.00    +0.000 HD
ENDROOT
BRANCH   2  15
ATOM     15  C   UNL     1       0.421   9.699  21.509  0.00  0.00    +0.000 A 
ATOM     16  C   UNL     1      -0.408   9.216  22.558  0.00  0.00    +0.000 A 
ATOM     17  C   UNL     1      -0.884  10.332  23.193  0.00  0.00    +0.000 A 
ATOM     18  N   UNL     1      -0.351  11.394  22.525  0.00  0.00    +0.000 N 
ATOM     19  N   UNL     1       0.492  11.047  21.529  0.00  0.00    +0.000 NA
ATOM     20  H   UNL     1      -0.524  12.379  22.694  0.00  0.00    +0.000 HD
ENDBRANCH   2  15
TORSDOF 1
ENDMDL
MODEL 6
REMARK VINA RESULT:      -7.2      1.275      1.347
REMARK  Name = 
REMARK  1 active torsions:
REMARK  status: ('A' for Active; 'I' for Inactive)
REMARK    1  A    between atoms: C_2  and  C_14
REMARK                            x       y       z     vdW  Elec       q    Type
REMARK                         _______ _______ _______ _____ _____    ______ ____
ROOT
ATOM      1  O   UNL     1       6.369   5.885  16.057  0.00  0.00    +0.000 OA
ATOM      2  C   UNL     1       5.843   4.984  15.409  0.00  0.00    +0.000 C 
ATOM      3  N   UNL     1       4.777   4.199  15.800  0.00  0.00    +0.000 N 
ATOM      4  C   UNL     1       4.126   4.351  17.031  0.00  0.00    +0.000 A 
ATOM      5  C   UNL     1       3.339   3.310  17.510  0.00  0.00    +0.000 A 
ATOM      6  C   UNL     1       2.777   3.410  18.798  0.00  0.00    +0.000 A 
ATOM      7  C   UNL     1       2.042   2.366  19.387  0.00  0.00    +0.000 A 
ATOM      8  C   UNL     1       1.517   2.500  20.677  0.00  0.00    +0.000 A 
ATOM      9  C   UNL     1       1.704   3.681  21.393  0.00  0.00    +0.000 A 
ATOM     10  C   UNL     1       2.432   4.724  20.828  0.00  0.00    +0.000 A 
ATOM     11  C   UNL     1       2.977   4.589  19.540  0.00  0.00    +0.000 A 
ATOM     12  C   UNL     1       3.741   5.588  18.950  0.00  0.00    +0.000 A 
ATOM     13  N   UNL     1       4.309   5.483  17.731  0.00  0.00    +0.000 NA
ATOM     14  H   UNL     1       4.556   3.419  15.195  0.00  0.00    +0.000 HD
ENDROOT
BRANCH   2  15
ATOM     15  C   UNL     1       6.404   4.620  14.099  0.00  0.00    +0.000 A 
ATOM     16  C   UNL     1       7.525   5.247  13.491  0.00  0.00    +0.000 A 
ATOM     17  C   UNL     1       7.670   4.638  12.273  0.00  0.00    +0.000 A 
ATOM     18  N   UNL     1       6.669   3.716  12.199  0.00  0.00    +0.000 N 
ATOM     19  N   UNL     1       5.912   3.638  13.314  0.00  0.00    +0.000 NA
ATOM     20  H   UNL     1       6.444   3.110  11.416  0.00  0.00    +0.000 HD
ENDBRANCH   2  15
TORSDOF 1
ENDMDL
MODEL 7
REMARK VINA RESULT:      -7.2      1.910      2.180
REMARK  Name = 
REMARK  1 active torsions:
REMARK  status: ('A' for Active; 'I' for Inactive)
REMARK    1  A    between atoms: C_2  and  C_14
REMARK                            x       y       z     vdW  Elec       q    Type
REMARK                         _______ _______ _______ _____ _____    ______ ____
ROOT
ATOM      1  O   UNL     1       5.700   3.095  15.661  0.00  0.00    +0.000 OA
ATOM      2  C   UNL     1       5.924   4.264  15.362  0.00  0.00    +0.000 C 
ATOM      3  N   UNL     1       5.507   5.388  16.048  0.00  0.00    +0.000 N 
ATOM      4  C   UNL     1       4.757   5.327  17.229  0.00  0.00    +0.000 A 
ATOM      5  C   UNL     1       4.061   6.457  17.644  0.00  0.00    +0.000 A 
ATOM      6  C   UNL     1       3.213   6.369  18.765  0.00  0.00    +0.000 A 
ATOM      7  C   UNL     1       2.411   7.440  19.195  0.00  0.00    +0.000 A 
ATOM      8  C   UNL     1       1.568   7.304  20.303  0.00  0.00    +0.000 A 
ATOM      9  C   UNL     1       1.522   6.103  21.008  0.00  0.00    +0.000 A 
ATOM     10  C   UNL     1       2.306   5.029  20.595  0.00  0.00    +0.000 A 
ATOM     11  C   UNL     1       3.142   5.154  19.472  0.00  0.00    +0.000 A 
ATOM     12  C   UNL     1       3.913   4.100  19.001  0.00  0.00    +0.000 A 
ATOM     13  N   UNL     1       4.700   4.170  17.909  0.00  0.00    +0.000 NA
ATOM     14  H   UNL     1       5.673   6.274  15.589  0.00  0.00    +0.000 HD
ENDROOT
BRANCH   2  15
ATOM     15  C   UNL     1       6.659   4.561  14.123  0.00  0.00    +0.000 A 
ATOM     16  C   UNL     1       6.446   3.913  12.876  0.00  0.00    +0.000 A 
ATOM     17  C   UNL     1       7.366   4.456  12.018  0.00  0.00    +0.000 A 
ATOM     18  N   UNL     1       8.069   5.362  12.755  0.00  0.00    +0.000 N 
ATOM     19  N   UNL     1       7.630   5.493  14.025  0.00  0.00    +0.000 NA
ATOM     20  H   UNL     1       8.861   5.920  12.454  0.00  0.00    +0.000 HD
ENDBRANCH   2  15
TORSDOF 1
ENDMDL
MODEL 8
REMARK VINA RESULT:      -7.2      5.450      6.803
REMARK  Name = 
REMARK  1 active torsions:
REMARK  status: ('A' for Active; 'I' for Inactive)
REMARK    1  A    between atoms: C_2  and  C_14
REMARK                            x       y       z     vdW  Elec       q    Type
REMARK                         _______ _______ _______ _____ _____    ______ ____
ROOT
ATOM      1  O   UNL     1       3.577   7.234  18.156  0.00  0.00    +0.000 OA
ATOM      2  C   UNL     1       3.309   6.431  19.045  0.00  0.00    +0.000 C 
ATOM      3  N   UNL     1       2.402   6.608  20.071  0.00  0.00    +0.000 N 
ATOM      4  C   UNL     1       1.633   7.769  20.221  0.00  0.00    +0.000 A 
ATOM      5  C   UNL     1       1.045   8.033  21.453  0.00  0.00    +0.000 A 
ATOM      6  C   UNL     1       0.369   9.254  21.643  0.00  0.00    +0.000 A 
ATOM      7  C   UNL     1      -0.177   9.633  22.883  0.00  0.00    +0.000 A 
ATOM      8  C   UNL     1      -0.824  10.863  23.034  0.00  0.00    +0.000 A 
ATOM      9  C   UNL     1      -0.950  11.729  21.949  0.00  0.00    +0.000 A 
ATOM     10  C   UNL     1      -0.413  11.373  20.715  0.00  0.00    +0.000 A 
ATOM     11  C   UNL     1       0.255  10.146  20.561  0.00  0.00    +0.000 A 
ATOM     12  C   UNL     1       0.838   9.765  19.360  0.00  0.00    +0.000 A 
ATOM     13  N   UNL     1       1.515   8.613  19.182  0.00  0.00    +0.000 NA
ATOM     14  H   UNL     1       2.402   5.894  20.789  0.00  0.00    +0.000 HD
ENDROOT
BRANCH   2  15
ATOM     15  C   UNL     1       4.041   5.157  19.108  0.00  0.00    +0.000 A 
ATOM     16  C   UNL     1       3.453   3.894  19.387  0.00  0.00    +0.000 A 
ATOM     17  C   UNL     1       4.490   2.999  19.396  0.00  0.00    +0.000 A 
ATOM     18  N   UNL     1       5.611   3.731  19.141  0.00  0.00    +0.000 N 
ATOM     19  N   UNL     1       5.370   5.039  18.905  0.00  0.00    +0.000 NA
ATOM     20  H   UNL     1       6.570   3.402  19.117  0.00  0.00    +0.000 HD
ENDBRANCH   2  15
TORSDOF 1
ENDMDL
MODEL 9
REMARK VINA RESULT:      -7.1      2.777      2.966
REMARK  Name = 
REMARK  1 active torsions:
REMARK  status: ('A' for Active; 'I' for Inactive)
REMARK    1  A    between atoms: C_2  and  C_14
REMARK                            x       y       z     vdW  Elec       q    Type
REMARK                         _______ _______ _______ _____ _____    ______ ____
ROOT
ATOM      1  O   UNL     1       5.320   3.628  16.355  0.00  0.00    +0.000 OA
ATOM      2  C   UNL     1       5.549   4.695  15.793  0.00  0.00    +0.000 C 
ATOM      3  N   UNL     1       5.123   5.946  16.191  0.00  0.00    +0.000 N 
ATOM      4  C   UNL     1       4.356   6.163  17.343  0.00  0.00    +0.000 A 
ATOM      5  C   UNL     1       3.655   7.356  17.472  0.00  0.00    +0.000 A 
ATOM      6  C   UNL     1       2.792   7.531  18.571  0.00  0.00    +0.000 A 
ATOM      7  C   UNL     1       1.984   8.671  18.727  0.00  0.00    +0.000 A 
ATOM      8  C   UNL     1       1.126   8.797  19.824  0.00  0.00    +0.000 A 
ATOM      9  C   UNL     1       1.071   7.794  20.791  0.00  0.00    +0.000 A 
ATOM     10  C   UNL     1       1.860   6.656  20.652  0.00  0.00    +0.000 A 
ATOM     11  C   UNL     1       2.711   6.516  19.542  0.00  0.00    +0.000 A 
ATOM     12  C   UNL     1       3.489   5.383  19.342  0.00  0.00    +0.000 A 
ATOM     13  N   UNL     1       4.291   5.197  18.275  0.00  0.00    +0.000 NA
ATOM     14  H   UNL     1       5.295   6.701  15.539  0.00  0.00    +0.000 HD
ENDROOT
BRANCH   2  15
ATOM     15  C   UNL     1       6.301   4.695  14.528  0.00  0.00    +0.000 A 
ATOM     16  C   UNL     1       6.011   3.867  13.410  0.00  0.00    +0.000 A 
ATOM     17  C   UNL     1       6.975   4.154  12.481  0.00  0.00    +0.000 A 
ATOM     18  N   UNL     1       7.775   5.095  13.058  0.00  0.00    +0.000 N 
ATOM     19  N   UNL     1       7.363   5.489  14.281  0.00  0.00    +0.000 NA
ATOM     20  H   UNL     1       8.619   5.507  12.673  0.00  0.00    +0.000 HD
ENDBRANCH   2  15
TORSDOF 1
ENDMDL
