MODEL 1
REMARK VINA RESULT:      -7.2      0.000      0.000
REMARK  Name = 
REMARK  8 active torsions:
REMARK  status: ('A' for Active; 'I' for Inactive)
REMARK    1  A    between atoms: C_1  and  C_2
REMARK    2  A    between atoms: C_2  and  C_3
REMARK    3  A    between atoms: C_2  and  C_4
REMARK    4  A    between atoms: C_2  and  C_5
REMARK    5  A    between atoms: C_8  and  O_9
REMARK    6  A    between atoms: C_10  and  C_11
REMARK    7  A    between atoms: C_11  and  N_12
REMARK    8  A    between atoms: N_15  and  C_16
REMARK                            x       y       z     vdW  Elec       q    Type
REMARK                         _______ _______ _______ _____ _____    ______ ____
ROOT
ATOM      1  C   UNL     1       2.701   6.003  18.017  0.00  0.00    +0.000 C 
ENDROOT
BRANCH   1   6
ATOM      2  C   UNL     1       1.206   9.309  19.411  0.00  0.00    +0.000 A 
ATOM      3  C   UNL     1       0.955   8.907  20.738  0.00  0.00    +0.000 A 
ATOM      4  C   UNL     1       1.383   7.672  21.209  0.00  0.00    +0.000 A 
ATOM      5  C   UNL     1       2.028   6.795  20.346  0.00  0.00    +0.000 A 
ATOM      6  C   UNL     1       2.110   7.046  18.970  0.00  0.00    +0.000 A 
ATOM      7  C   UNL     1       1.733   8.334  18.519  0.00  0.00    +0.000 A 
BRANCH   2   9
ATOM      8  C   UNL     1       1.109  11.572  20.400  0.00  0.00    +0.000 C 
ATOM      9  C   UNL     1       1.051  10.805  19.057  0.00  0.00    +0.000 C 
ATOM     10  C   UNL     1      -0.303  11.138  18.377  0.00  0.00    +0.000 C 
ATOM     11  C   UNL     1       2.156  11.359  18.137  0.00  0.00    +0.000 C 
ENDBRANCH   2   9
BRANCH   5  12
ATOM     12  O   UNL     1       2.642   5.696  20.881  0.00  0.00    +0.000 OA
ATOM     13  H   UNL     1       1.969   5.165  21.336  0.00  0.00    +0.000 HD
ENDBRANCH   5  12
ENDBRANCH   1   6
BRANCH   1  14
ATOM     14  N   UNL     1       4.147   5.830  18.192  0.00  0.00    +0.000 NA
ATOM     15  C   UNL     1       4.649   4.468  18.056  0.00  0.00    +0.000 C 
ATOM     16  C   UNL     1       5.109   3.977  16.661  0.00  0.00    +0.000 C 
ATOM     17  N   UNL     1       5.524   5.009  15.691  0.00  0.00    +0.000 N 
ATOM     18  C   UNL     1       5.201   6.415  15.953  0.00  0.00    +0.000 C 
ATOM     19  C   UNL     1       4.994   6.747  17.439  0.00  0.00    +0.000 C 
BRANCH  17  20
ATOM     20  C   UNL     1       6.104   4.639  14.474  0.00  0.00    +0.000 A 
ATOM     21  C   UNL     1       7.263   5.265  13.977  0.00  0.00    +0.000 A 
ATOM     22  C   UNL     1       7.779   4.997  12.701  0.00  0.00    +0.000 A 
ATOM     23  C   UNL     1       7.162   4.060  11.883  0.00  0.00    +0.000 A 
ATOM     24  C   UNL     1       6.056   3.373  12.360  0.00  0.00    +0.000 A 
ATOM     25  C   UNL     1       5.548   3.653  13.638  0.00  0.00    +0.000 A 
ENDBRANCH  17  20
ENDBRANCH   1  14
TORSDOF 5
ENDMDL
MODEL 2
REMARK VINA RESULT:      -7.0      0.208      1.338
REMARK  Name = 
REMARK  8 active torsions:
REMARK  status: ('A' for Active; 'I' for Inactive)
REMARK    1  A    between atoms: C_1  and  C_2
REMARK    2  A    between atoms: C_2  and  C_3
REMARK    3  A    between atoms: C_2  and  C_4
REMARK    4  A    between atoms: C_2  and  C_5
REMARK    5  A    between atoms: C_8  and  O_9
REMARK    6  A    between atoms: C_10  and  C_11
REMARK    7  A    between atoms: C_11  and  N_12
REMARK    8  A    between atoms: N_15  and  C_16
REMARK                            x       y       z     vdW  Elec       q    Type
REMARK                         _______ _______ _______ _____ _____    ______ ____
ROOT
ATOM      1  C   UNL     1       2.568   6.179  17.941  0.00  0.00    +0.000 C 
ENDROOT
BRANCH   1   6
ATOM      2  C   UNL     1       1.182   9.481  19.449  0.00  0.00    +0.000 A 
ATOM      3  C   UNL     1       0.981   9.061  20.779  0.00  0.00    +0.000 A 
ATOM      4  C   UNL     1       1.411   7.814  21.212  0.00  0.00    +0.000 A 
ATOM      5  C   UNL     1       2.006   6.942  20.309  0.00  0.00    +0.000 A 
ATOM      6  C   UNL     1       2.033   7.214  18.935  0.00  0.00    +0.000 A 
ATOM      7  C   UNL     1       1.656   8.514  18.521  0.00  0.00    +0.000 A 
BRANCH   2   9
ATOM      8  C   UNL     1       2.158  11.320  18.116  0.00  0.00    +0.000 C 
ATOM      9  C   UNL     1       1.033  10.985  19.125  0.00  0.00    +0.000 C 
ATOM     10  C   UNL     1       1.216  11.901  20.363  0.00  0.00    +0.000 C 
ATOM     11  C   UNL     1      -0.316  11.368  18.486  0.00  0.00    +0.000 C 
ENDBRANCH   2   9
BRANCH   5  12
ATOM     12  O   UNL     1       2.626   5.826  20.801  0.00  0.00    +0.000 OA
ATOM     13  H   UNL     1       2.079   5.055  20.582  0.00  0.00    +0.000 HD
ENDBRANCH   5  12
ENDBRANCH   1   6
BRANCH   1  14
ATOM     14  N   UNL     1       3.999   5.908  18.120  0.00  0.00    +0.000 NA
ATOM     15  C   UNL     1       4.416   4.524  17.934  0.00  0.00    +0.000 C 
ATOM     16  C   UNL     1       4.857   4.059  16.523  0.00  0.00    +0.000 C 
ATOM     17  N   UNL     1       5.344   5.100  15.598  0.00  0.00    +0.000 N 
ATOM     18  C   UNL     1       5.108   6.512  15.912  0.00  0.00    +0.000 C 
ATOM     19  C   UNL     1       4.908   6.799  17.408  0.00  0.00    +0.000 C 
BRANCH  17  20
ATOM     20  C   UNL     1       5.911   4.742  14.371  0.00  0.00    +0.000 A 
ATOM     21  C   UNL     1       5.313   3.794  13.520  0.00  0.00    +0.000 A 
ATOM     22  C   UNL     1       5.935   3.327  12.351  0.00  0.00    +0.000 A 
ATOM     23  C   UNL     1       7.176   3.824  11.977  0.00  0.00    +0.000 A 
ATOM     24  C   UNL     1       7.770   4.808  12.753  0.00  0.00    +0.000 A 
ATOM     25  C   UNL     1       7.139   5.263  13.921  0.00  0.00    +0.000 A 
ENDBRANCH  17  20
ENDBRANCH   1  14
TORSDOF 5
ENDMDL
MODEL 3
REMARK VINA RESULT:      -6.8      2.347      8.458
REMARK  Name = 
REMARK  8 active torsions:
REMARK  status: ('A' for Active; 'I' for Inactive)
REMARK    1  A    between atoms: C_1  and  C_2
REMARK    2  A    between atoms: C_2  and  C_3
REMARK    3  A    between atoms: C_2  and  C_4
REMARK    4  A    between atoms: C_2  and  C_5
REMARK    5  A    between atoms: C_8  and  O_9
REMARK    6  A    between atoms: C_10  and  C_11
REMARK    7  A    between atoms: C_11  and  N_12
REMARK    8  A    between atoms: N_15  and  C_16
REMARK                            x       y       z     vdW  Elec       q    Type
REMARK                         _______ _______ _______ _____ _____    ______ ____
ROOT
ATOM      1  C   UNL     1       1.830   6.317  19.019  0.00  0.00    +0.000 C 
ENDROOT
BRANCH   1   6
ATOM      2  C   UNL     1       5.131   4.966  17.476  0.00  0.00    +0.000 A 
ATOM      3  C   UNL     1       4.672   3.719  17.006  0.00  0.00    +0.000 A 
ATOM      4  C   UNL     1       3.325   3.385  17.049  0.00  0.00    +0.000 A 
ATOM      5  C   UNL     1       2.416   4.274  17.611  0.00  0.00    +0.000 A 
ATOM      6  C   UNL     1       2.837   5.425  18.288  0.00  0.00    +0.000 A 
ATOM      7  C   UNL     1       4.201   5.785  18.175  0.00  0.00    +0.000 A 
BRANCH   2   9
ATOM      8  C   UNL     1       6.654   5.180  15.541  0.00  0.00    +0.000 C 
ATOM      9  C   UNL     1       6.547   5.429  17.065  0.00  0.00    +0.000 C 
ATOM     10  C   UNL     1       7.680   4.629  17.758  0.00  0.00    +0.000 C 
ATOM     11  C   UNL     1       6.831   6.920  17.330  0.00  0.00    +0.000 C 
ENDBRANCH   2   9
BRANCH   5  12
ATOM     12  O   UNL     1       1.081   4.030  17.434  0.00  0.00    +0.000 OA
ATOM     13  H   UNL     1       0.694   4.788  16.969  0.00  0.00    +0.000 HD
ENDBRANCH   5  12
ENDBRANCH   1   6
BRANCH   1  14
ATOM     14  N   UNL     1       2.346   7.668  19.269  0.00  0.00    +0.000 NA
ATOM     15  C   UNL     1       2.230   8.611  18.163  0.00  0.00    +0.000 C 
ATOM     16  C   UNL     1       0.959   9.490  18.061  0.00  0.00    +0.000 C 
ATOM     17  N   UNL     1       0.210   9.732  19.310  0.00  0.00    +0.000 N 
ATOM     18  C   UNL     1       0.495   8.912  20.491  0.00  0.00    +0.000 C 
ATOM     19  C   UNL     1       1.904   8.299  20.507  0.00  0.00    +0.000 C 
BRANCH  17  20
ATOM     20  C   UNL     1      -0.850  10.643  19.330  0.00  0.00    +0.000 A 
ATOM     21  C   UNL     1      -1.033  11.553  20.388  0.00  0.00    +0.000 A 
ATOM     22  C   UNL     1      -2.162  12.381  20.486  0.00  0.00    +0.000 A 
ATOM     23  C   UNL     1      -3.140  12.346  19.501  0.00  0.00    +0.000 A 
ATOM     24  C   UNL     1      -2.965  11.511  18.408  0.00  0.00    +0.000 A 
ATOM     25  C   UNL     1      -1.833  10.686  18.323  0.00  0.00    +0.000 A 
ENDBRANCH  17  20
ENDBRANCH   1  14
TORSDOF 5
ENDMDL
MODEL 4
REMARK VINA RESULT:      -6.8      2.375      8.225
REMARK  Name = 
REMARK  8 active torsions:
REMARK  status: ('A' for Active; 'I' for Inactive)
REMARK    1  A    between atoms: C_1  and  C_2
REMARK    2  A    between atoms: C_2  and  C_3
REMARK    3  A    between atoms: C_2  and  C_4
REMARK    4  A    between atoms: C_2  and  C_5
REMARK    5  A    between atoms: C_8  and  O_9
REMARK    6  A    between atoms: C_10  and  C_11
REMARK    7  A    between atoms: C_11  and  N_12
REMARK    8  A    between atoms: N_15  and  C_16
REMARK                            x       y       z     vdW  Elec       q    Type
REMARK                         _______ _______ _______ _____ _____    ______ ____
ROOT
ATOM      1  C   UNL     1       2.047   6.227  19.351  0.00  0.00    +0.000 C 
ENDROOT
BRANCH   1   6
ATOM      2  C   UNL     1       5.214   4.986  17.472  0.00  0.00    +0.000 A 
ATOM      3  C   UNL     1       4.694   3.810  16.895  0.00  0.00    +0.000 A 
ATOM      4  C   UNL     1       3.343   3.503  16.982  0.00  0.00    +0.000 A 
ATOM      5  C   UNL     1       2.493   4.343  17.692  0.00  0.00    +0.000 A 
ATOM      6  C   UNL     1       2.985   5.401  18.467  0.00  0.00    +0.000 A 
ATOM      7  C   UNL     1       4.350   5.741  18.313  0.00  0.00    +0.000 A 
BRANCH   2   9
ATOM      8  C   UNL     1       7.630   4.641  17.866  0.00  0.00    +0.000 C 
ATOM      9  C   UNL     1       6.617   5.460  17.031  0.00  0.00    +0.000 C 
ATOM     10  C   UNL     1       6.875   6.964  17.313  0.00  0.00    +0.000 C 
ATOM     11  C   UNL     1       6.926   5.230  15.539  0.00  0.00    +0.000 C 
ENDBRANCH   2   9
BRANCH   5  12
ATOM     12  O   UNL     1       1.144   4.151  17.569  0.00  0.00    +0.000 OA
ATOM     13  H   UNL     1       0.834   4.655  16.801  0.00  0.00    +0.000 HD
ENDBRANCH   5  12
ENDBRANCH   1   6
BRANCH   1  14
ATOM     14  N   UNL     1       2.457   7.633  19.453  0.00  0.00    +0.000 NA
ATOM     15  C   UNL     1       2.387   8.410  18.221  0.00  0.00    +0.000 C 
ATOM     16  C   UNL     1       1.080   9.173  17.893  0.00  0.00    +0.000 C 
ATOM     17  N   UNL     1       0.206   9.525  19.028  0.00  0.00    +0.000 N 
ATOM     18  C   UNL     1       0.429   8.893  20.332  0.00  0.00    +0.000 C 
ATOM     19  C   UNL     1       1.865   8.390  20.550  0.00  0.00    +0.000 C 
BRANCH  17  20
ATOM     20  C   UNL     1      -0.903  10.353  18.833  0.00  0.00    +0.000 A 
ATOM     21  C   UNL     1      -1.198  11.424  19.697  0.00  0.00    +0.000 A 
ATOM     22  C   UNL     1      -2.375  12.179  19.591  0.00  0.00    +0.000 A 
ATOM     23  C   UNL     1      -3.293  11.902  18.587  0.00  0.00    +0.000 A 
ATOM     24  C   UNL     1      -3.009  10.898  17.674  0.00  0.00    +0.000 A 
ATOM     25  C   UNL     1      -1.829  10.148  17.792  0.00  0.00    +0.000 A 
ENDBRANCH  17  20
ENDBRANCH   1  14
TORSDOF 5
ENDMDL
MODEL 5
REMARK VINA RESULT:      -6.7      2.320      8.610
REMARK  Name = 
REMARK  8 active torsions:
REMARK  status: ('A' for Active; 'I' for Inactive)
REMARK    1  A    between atoms: C_1  and  C_2
REMARK    2  A    between atoms: C_2  and  C_3
REMARK    3  A    between atoms: C_2  and  C_4
REMARK    4  A    between atoms: C_2  and  C_5
REMARK    5  A    between atoms: C_8  and  O_9
REMARK    6  A    between atoms: C_10  and  C_11
REMARK    7  A    between atoms: C_11  and  N_12
REMARK    8  A    between atoms: N_15  and  C_16
REMARK                            x       y       z     vdW  Elec       q    Type
REMARK                         _______ _______ _______ _____ _____    ______ ____
ROOT
ATOM      1  C   UNL     1       1.804   6.601  18.288  0.00  0.00    +0.000 C 
ENDROOT
BRANCH   1   6
ATOM      2  C   UNL     1       5.256   5.043  17.417  0.00  0.00    +0.000 A 
ATOM      3  C   UNL     1       4.881   3.688  17.325  0.00  0.00    +0.000 A 
ATOM      4  C   UNL     1       3.549   3.304  17.394  0.00  0.00    +0.000 A 
ATOM      5  C   UNL     1       2.568   4.266  17.606  0.00  0.00    +0.000 A 
ATOM      6  C   UNL     1       2.895   5.590  17.922  0.00  0.00    +0.000 A 
ATOM      7  C   UNL     1       4.248   5.979  17.780  0.00  0.00    +0.000 A 
BRANCH   2   9
ATOM      8  C   UNL     1       7.653   4.570  17.790  0.00  0.00    +0.000 C 
ATOM      9  C   UNL     1       6.679   5.442  16.963  0.00  0.00    +0.000 C 
ATOM     10  C   UNL     1       7.018   6.930  17.242  0.00  0.00    +0.000 C 
ATOM     11  C   UNL     1       6.962   5.196  15.468  0.00  0.00    +0.000 C 
ENDBRANCH   2   9
BRANCH   5  12
ATOM     12  O   UNL     1       1.259   3.902  17.438  0.00  0.00    +0.000 OA
ATOM     13  H   UNL     1       0.957   4.244  16.582  0.00  0.00    +0.000 HD
ENDBRANCH   5  12
ENDBRANCH   1   6
BRANCH   1  14
ATOM     14  N   UNL     1       2.348   7.840  18.857  0.00  0.00    +0.000 NA
ATOM     15  C   UNL     1       2.223   9.033  18.029  0.00  0.00    +0.000 C 
ATOM     16  C   UNL     1       0.963   9.921  18.185  0.00  0.00    +0.000 C 
ATOM     17  N   UNL     1       0.247   9.847  19.473  0.00  0.00    +0.000 N 
ATOM     18  C   UNL     1       0.545   8.753  20.401  0.00  0.00    +0.000 C 
ATOM     19  C   UNL     1       1.944   8.142  20.225  0.00  0.00    +0.000 C 
BRANCH  17  20
ATOM     20  C   UNL     1      -0.797  10.735  19.750  0.00  0.00    +0.000 A 
ATOM     21  C   UNL     1      -1.840  10.971  18.835  0.00  0.00    +0.000 A 
ATOM     22  C   UNL     1      -2.820  11.953  19.041  0.00  0.00    +0.000 A 
ATOM     23  C   UNL     1      -2.805  12.720  20.199  0.00  0.00    +0.000 A 
ATOM     24  C   UNL     1      -1.833  12.474  21.157  0.00  0.00    +0.000 A 
ATOM     25  C   UNL     1      -0.856  11.490  20.937  0.00  0.00    +0.000 A 
ENDBRANCH  17  20
ENDBRANCH   1  14
TORSDOF 5
ENDMDL
MODEL 6
REMARK VINA RESULT:      -6.7      4.380      9.915
REMARK  Name = 
REMARK  8 active torsions:
REMARK  status: ('A' for Active; 'I' for Inactive)
REMARK    1  A    between atoms: C_1  and  C_2
REMARK    2  A    between atoms: C_2  and  C_3
REMARK    3  A    between atoms: C_2  and  C_4
REMARK    4  A    between atoms: C_2  and  C_5
REMARK    5  A    between atoms: C_8  and  O_9
REMARK    6  A    between atoms: C_10  and  C_11
REMARK    7  A    between atoms: C_11  and  N_12
REMARK    8  A    between atoms: N_15  and  C_16
REMARK                            x       y       z     vdW  Elec       q    Type
REMARK                         _______ _______ _______ _____ _____    ______ ____
ROOT
ATOM      1  C   UNL     1       1.464   8.434  21.021  0.00  0.00    +0.000 C 
ENDROOT
BRANCH   1   6
ATOM      2  C   UNL     1       2.036   4.832  19.680  0.00  0.00    +0.000 A 
ATOM      3  C   UNL     1       2.328   5.130  18.334  0.00  0.00    +0.000 A 
ATOM      4  C   UNL     1       2.481   6.442  17.905  0.00  0.00    +0.000 A 
ATOM      5  C   UNL     1       2.296   7.485  18.805  0.00  0.00    +0.000 A 
ATOM      6  C   UNL     1       1.793   7.261  20.093  0.00  0.00    +0.000 A 
ATOM      7  C   UNL     1       1.709   5.919  20.536  0.00  0.00    +0.000 A 
BRANCH   2   9
ATOM      8  C   UNL     1       1.122   2.541  19.526  0.00  0.00    +0.000 C 
ATOM      9  C   UNL     1       2.249   3.382  20.171  0.00  0.00    +0.000 C 
ATOM     10  C   UNL     1       2.132   3.232  21.711  0.00  0.00    +0.000 C 
ATOM     11  C   UNL     1       3.602   2.765  19.767  0.00  0.00    +0.000 C 
ENDBRANCH   2   9
BRANCH   5  12
ATOM     12  O   UNL     1       2.676   8.743  18.425  0.00  0.00    +0.000 OA
ATOM     13  H   UNL     1       3.366   8.659  17.748  0.00  0.00    +0.000 HD
ENDBRANCH   5  12
ENDBRANCH   1   6
BRANCH   1  14
ATOM     14  N   UNL     1       0.040   8.785  21.008  0.00  0.00    +0.000 NA
ATOM     15  C   UNL     1      -0.580   8.991  22.311  0.00  0.00    +0.000 C 
ATOM     16  C   UNL     1      -0.589  10.416  22.918  0.00  0.00    +0.000 C 
ATOM     17  N   UNL     1      -0.479  11.546  21.975  0.00  0.00    +0.000 N 
ATOM     18  C   UNL     1      -0.062  11.292  20.592  0.00  0.00    +0.000 C 
ATOM     19  C   UNL     1      -0.342   9.863  20.103  0.00  0.00    +0.000 C 
BRANCH  17  20
ATOM     20  C   UNL     1      -0.643  12.858  22.426  0.00  0.00    +0.000 A 
ATOM     21  C   UNL     1       0.153  13.918  21.952  0.00  0.00    +0.000 A 
ATOM     22  C   UNL     1       0.090  15.212  22.490  0.00  0.00    +0.000 A 
ATOM     23  C   UNL     1      -0.806  15.498  23.512  0.00  0.00    +0.000 A 
ATOM     24  C   UNL     1      -1.655  14.499  23.963  0.00  0.00    +0.000 A 
ATOM     25  C   UNL     1      -1.580  13.208  23.418  0.00  0.00    +0.000 A 
ENDBRANCH  17  20
ENDBRANCH   1  14
TORSDOF 5
ENDMDL
MODEL 7
REMARK VINA RESULT:      -6.6      4.387      9.938
REMARK  Name = 
REMARK  8 active torsions:
REMARK  status: ('A' for Active; 'I' for Inactive)
REMARK    1  A    between atoms: C_1  and  C_2
REMARK    2  A    between atoms: C_2  and  C_3
REMARK    3  A    between atoms: C_2  and  C_4
REMARK    4  A    between atoms: C_2  and  C_5
REMARK    5  A    between atoms: C_8  and  O_9
REMARK    6  A    between atoms: C_10  and  C_11
REMARK    7  A    between atoms: C_11  and  N_12
REMARK    8  A    between atoms: N_15  and  C_16
REMARK                            x       y       z     vdW  Elec       q    Type
REMARK                         _______ _______ _______ _____ _____    ______ ____
ROOT
ATOM      1  C   UNL     1       1.477   8.374  21.032  0.00  0.00    +0.000 C 
ENDROOT
BRANCH   1   6
ATOM      2  C   UNL     1       2.030   4.771  19.684  0.00  0.00    +0.000 A 
ATOM      3  C   UNL     1       2.301   5.069  18.334  0.00  0.00    +0.000 A 
ATOM      4  C   UNL     1       2.447   6.381  17.902  0.00  0.00    +0.000 A 
ATOM      5  C   UNL     1       2.275   7.423  18.804  0.00  0.00    +0.000 A 
ATOM      6  C   UNL     1       1.792   7.200  20.100  0.00  0.00    +0.000 A 
ATOM      7  C   UNL     1       1.716   5.859  20.545  0.00  0.00    +0.000 A 
BRANCH   2   9
ATOM      8  C   UNL     1       3.752   3.017  19.949  0.00  0.00    +0.000 C 
ATOM      9  C   UNL     1       2.251   3.322  20.173  0.00  0.00    +0.000 C 
ATOM     10  C   UNL     1       1.429   2.273  19.379  0.00  0.00    +0.000 C 
ATOM     11  C   UNL     1       1.932   3.098  21.664  0.00  0.00    +0.000 C 
ENDBRANCH   2   9
BRANCH   5  12
ATOM     12  O   UNL     1       2.648   8.681  18.417  0.00  0.00    +0.000 OA
ATOM     13  H   UNL     1       2.721   8.692  17.450  0.00  0.00    +0.000 HD
ENDBRANCH   5  12
ENDBRANCH   1   6
BRANCH   1  14
ATOM     14  N   UNL     1       0.047   8.699  21.072  0.00  0.00    +0.000 NA
ATOM     15  C   UNL     1      -0.524   8.915  22.396  0.00  0.00    +0.000 C 
ATOM     16  C   UNL     1      -0.534  10.351  22.978  0.00  0.00    +0.000 C 
ATOM     17  N   UNL     1      -0.483  11.466  22.013  0.00  0.00    +0.000 N 
ATOM     18  C   UNL     1      -0.118  11.196  20.619  0.00  0.00    +0.000 C 
ATOM     19  C   UNL     1      -0.391   9.754  20.165  0.00  0.00    +0.000 C 
BRANCH  17  20
ATOM     20  C   UNL     1      -0.654  12.783  22.449  0.00  0.00    +0.000 A 
ATOM     21  C   UNL     1      -1.659  13.142  23.367  0.00  0.00    +0.000 A 
ATOM     22  C   UNL     1      -1.927  14.475  23.712  0.00  0.00    +0.000 A 
ATOM     23  C   UNL     1      -1.169  15.502  23.166  0.00  0.00    +0.000 A 
ATOM     24  C   UNL     1      -0.125  15.187  22.309  0.00  0.00    +0.000 A 
ATOM     25  C   UNL     1       0.130  13.849  21.970  0.00  0.00    +0.000 A 
ENDBRANCH  17  20
ENDBRANCH   1  14
TORSDOF 5
ENDMDL
MODEL 8
REMARK VINA RESULT:      -6.5      2.419      8.755
REMARK  Name = 
REMARK  8 active torsions:
REMARK  status: ('A' for Active; 'I' for Inactive)
REMARK    1  A    between atoms: C_1  and  C_2
REMARK    2  A    between atoms: C_2  and  C_3
REMARK    3  A    between atoms: C_2  and  C_4
REMARK    4  A    between atoms: C_2  and  C_5
REMARK    5  A    between atoms: C_8  and  O_9
REMARK    6  A    between atoms: C_10  and  C_11
REMARK    7  A    between atoms: C_11  and  N_12
REMARK    8  A    between atoms: N_15  and  C_16
REMARK                            x       y       z     vdW  Elec       q    Type
REMARK                         _______ _______ _______ _____ _____    ______ ____
ROOT
ATOM      1  C   UNL     1       1.736   6.788  18.210  0.00  0.00    +0.000 C 
ENDROOT
BRANCH   1   6
ATOM      2  C   UNL     1       5.086   5.012  17.361  0.00  0.00    +0.000 A 
ATOM      3  C   UNL     1       4.630   3.681  17.289  0.00  0.00    +0.000 A 
ATOM      4  C   UNL     1       3.277   3.379  17.363  0.00  0.00    +0.000 A 
ATOM      5  C   UNL     1       2.356   4.401  17.561  0.00  0.00    +0.000 A 
ATOM      6  C   UNL     1       2.763   5.708  17.858  0.00  0.00    +0.000 A 
ATOM      7  C   UNL     1       4.137   6.012  17.710  0.00  0.00    +0.000 A 
BRANCH   2   9
ATOM      8  C   UNL     1       6.737   6.836  17.120  0.00  0.00    +0.000 C 
ATOM      9  C   UNL     1       6.530   5.318  16.902  0.00  0.00    +0.000 C 
ATOM     10  C   UNL     1       6.774   5.016  15.400  0.00  0.00    +0.000 C 
ATOM     11  C   UNL     1       7.621   4.565  17.688  0.00  0.00    +0.000 C 
ENDBRANCH   2   9
BRANCH   5  12
ATOM     12  O   UNL     1       1.028   4.115  17.399  0.00  0.00    +0.000 OA
ATOM     13  H   UNL     1       0.559   4.945  17.218  0.00  0.00    +0.000 HD
ENDBRANCH   5  12
ENDBRANCH   1   6
BRANCH   1  14
ATOM     14  N   UNL     1       2.355   8.007  18.742  0.00  0.00    +0.000 NA
ATOM     15  C   UNL     1       2.011   9.250  18.061  0.00  0.00    +0.000 C 
ATOM     16  C   UNL     1       0.792  10.063  18.563  0.00  0.00    +0.000 C 
ATOM     17  N   UNL     1       0.386   9.863  19.967  0.00  0.00    +0.000 N 
ATOM     18  C   UNL     1       0.918   8.721  20.716  0.00  0.00    +0.000 C 
ATOM     19  C   UNL     1       2.260   8.191  20.185  0.00  0.00    +0.000 C 
BRANCH  17  20
ATOM     20  C   UNL     1      -0.596  10.678  20.539  0.00  0.00    +0.000 A 
ATOM     21  C   UNL     1      -1.412  11.523  19.763  0.00  0.00    +0.000 A 
ATOM     22  C   UNL     1      -2.308  12.440  20.332  0.00  0.00    +0.000 A 
ATOM     23  C   UNL     1      -2.439  12.521  21.712  0.00  0.00    +0.000 A 
ATOM     24  C   UNL     1      -1.703  11.660  22.511  0.00  0.00    +0.000 A 
ATOM     25  C   UNL     1      -0.808  10.749  21.930  0.00  0.00    +0.000 A 
ENDBRANCH  17  20
ENDBRANCH   1  14
TORSDOF 5
ENDMDL
MODEL 9
REMARK VINA RESULT:      -6.5      2.869      8.602
REMARK  Name = 
REMARK  8 active torsions:
REMARK  status: ('A' for Active; 'I' for Inactive)
REMARK    1  A    between atoms: C_1  and  C_2
REMARK    2  A    between atoms: C_2  and  C_3
REMARK    3  A    between atoms: C_2  and  C_4
REMARK    4  A    between atoms: C_2  and  C_5
REMARK    5  A    between atoms: C_8  and  O_9
REMARK    6  A    between atoms: C_10  and  C_11
REMARK    7  A    between atoms: C_11  and  N_12
REMARK    8  A    between atoms: N_15  and  C_16
REMARK                            x       y       z     vdW  Elec       q    Type
REMARK                         _______ _______ _______ _____ _____    ______ ____
ROOT
ATOM      1  C   UNL     1       1.796   6.982  18.180  0.00  0.00    +0.000 C 
ENDROOT
BRANCH   1   6
ATOM      2  C   UNL     1       5.281   5.262  18.125  0.00  0.00    +0.000 A 
ATOM      3  C   UNL     1       4.872   3.916  18.041  0.00  0.00    +0.000 A 
ATOM      4  C   UNL     1       3.537   3.579  17.860  0.00  0.00    +0.000 A 
ATOM      5  C   UNL     1       2.577   4.583  17.810  0.00  0.00    +0.000 A 
ATOM      6  C   UNL     1       2.892   5.915  18.105  0.00  0.00    +0.000 A 
ATOM      7  C   UNL     1       4.263   6.251  18.218  0.00  0.00    +0.000 A 
BRANCH   2   9
ATOM      8  C   UNL     1       7.381   5.637  19.372  0.00  0.00    +0.000 C 
ATOM      9  C   UNL     1       6.781   5.585  17.946  0.00  0.00    +0.000 C 
ATOM     10  C   UNL     1       7.039   6.957  17.272  0.00  0.00    +0.000 C 
ATOM     11  C   UNL     1       7.565   4.537  17.133  0.00  0.00    +0.000 C 
ENDBRANCH   2   9
BRANCH   5  12
ATOM     12  O   UNL     1       1.315   4.250  17.402  0.00  0.00    +0.000 OA
ATOM     13  H   UNL     1       0.681   4.658  18.013  0.00  0.00    +0.000 HD
ENDBRANCH   5  12
ENDBRANCH   1   6
BRANCH   1  14
ATOM     14  N   UNL     1       2.260   8.228  18.801  0.00  0.00    +0.000 NA
ATOM     15  C   UNL     1       2.156   9.429  17.981  0.00  0.00    +0.000 C 
ATOM     16  C   UNL     1       0.862  10.276  18.059  0.00  0.00    +0.000 C 
ATOM     17  N   UNL     1       0.060  10.162  19.292  0.00  0.00    +0.000 N 
ATOM     18  C   UNL     1       0.326   9.064  20.226  0.00  0.00    +0.000 C 
ATOM     19  C   UNL     1       1.753   8.498  20.141  0.00  0.00    +0.000 C 
BRANCH  17  20
ATOM     20  C   UNL     1      -1.028  11.014  19.506  0.00  0.00    +0.000 A 
ATOM     21  C   UNL     1      -1.190  11.734  20.705  0.00  0.00    +0.000 A 
ATOM     22  C   UNL     1      -2.339  12.488  20.986  0.00  0.00    +0.000 A 
ATOM     23  C   UNL     1      -3.364  12.569  20.052  0.00  0.00    +0.000 A 
ATOM     24  C   UNL     1      -3.216  11.929  18.831  0.00  0.00    +0.000 A 
ATOM     25  C   UNL     1      -2.062  11.176  18.564  0.00  0.00    +0.000 A 
ENDBRANCH  17  20
ENDBRANCH   1  14
TORSDOF 5
ENDMDL
