MODEL 1
REMARK VINA RESULT:      -5.2      0.000      0.000
REMARK  Name = 
REMARK  1 active torsions:
REMARK  status: ('A' for Active; 'I' for Inactive)
REMARK    1  A    between atoms: N_1  and  C_2
REMARK                            x       y       z     vdW  Elec       q    Type
REMARK                         _______ _______ _______ _____ _____    ______ ____
ROOT
ATOM      1  C   UNL     1       3.392   2.003  19.143  0.00  0.00    +0.000 C 
ATOM      2  C   UNL     1       1.850   1.989  19.215  0.00  0.00    +0.000 C 
ATOM      3  C   UNL     1       1.332   3.015  20.238  0.00  0.00    +0.000 C 
ATOM      4  C   UNL     1       2.021   4.330  20.084  0.00  0.00    +0.000 A 
ATOM      5  C   UNL     1       1.684   5.560  20.600  0.00  0.00    +0.000 A 
ATOM      6  N   UNL     1       2.630   6.465  20.189  0.00  0.00    +0.000 N 
ATOM      7  C   UNL     1       3.574   5.828  19.424  0.00  0.00    +0.000 A 
ATOM      8  C   UNL     1       3.229   4.497  19.348  0.00  0.00    +0.000 A 
ATOM      9  C   UNL     1       3.906   3.375  18.630  0.00  0.00    +0.000 C 
ATOM     10  H   UNL     1       2.631   7.450  20.413  0.00  0.00    +0.000 HD
ENDROOT
BRANCH   1  11
ATOM     11  N   UNL     1       3.870   0.910  18.286  0.00  0.00    +0.000 NA
ATOM     12  H   UNL     1       3.352   0.059  18.504  0.00  0.00    +0.000 HD
ATOM     13  H   UNL     1       4.847   0.713  18.504  0.00  0.00    +0.000 HD
ENDBRANCH   1  11
TORSDOF 1
ENDMDL
MODEL 2
REMARK VINA RESULT:      -5.2      1.412      4.234
REMARK  Name = 
REMARK  1 active torsions:
REMARK  status: ('A' for Active; 'I' for Inactive)
REMARK    1  A    between atoms: N_1  and  C_2
REMARK                            x       y       z     vdW  Elec       q    Type
REMARK                         _______ _______ _______ _____ _____    ______ ____
ROOT
ATOM      1  C   UNL     1       2.430   5.987  19.949  0.00  0.00    +0.000 C 
ATOM      2  C   UNL     1       2.458   6.203  18.420  0.00  0.00    +0.000 C 
ATOM      3  C   UNL     1       3.035   4.973  17.696  0.00  0.00    +0.000 C 
ATOM      4  C   UNL     1       2.444   3.707  18.222  0.00  0.00    +0.000 A 
ATOM      5  C   UNL     1       2.480   2.438  17.691  0.00  0.00    +0.000 A 
ATOM      6  N   UNL     1       1.802   1.604  18.544  0.00  0.00    +0.000 N 
ATOM      7  C   UNL     1       1.341   2.321  19.619  0.00  0.00    +0.000 A 
ATOM      8  C   UNL     1       1.732   3.631  19.453  0.00  0.00    +0.000 A 
ATOM      9  C   UNL     1       1.479   4.819  20.322  0.00  0.00    +0.000 C 
ATOM     10  H   UNL     1       1.662   0.614  18.401  0.00  0.00    +0.000 HD
ENDROOT
BRANCH   1  11
ATOM     11  N   UNL     1       2.032   7.227  20.628  0.00  0.00    +0.000 NA
ATOM     12  H   UNL     1       1.223   7.628  20.153  0.00  0.00    +0.000 HD
ATOM     13  H   UNL     1       2.782   7.914  20.542  0.00  0.00    +0.000 HD
ENDBRANCH   1  11
TORSDOF 1
ENDMDL
MODEL 3
REMARK VINA RESULT:      -5.1      2.188      2.726
REMARK  Name = 
REMARK  1 active torsions:
REMARK  status: ('A' for Active; 'I' for Inactive)
REMARK    1  A    between atoms: N_1  and  C_2
REMARK                            x       y       z     vdW  Elec       q    Type
REMARK                         _______ _______ _______ _____ _____    ______ ____
ROOT
ATOM      1  C   UNL     1       4.202   3.465  17.879  0.00  0.00    +0.000 C 
ATOM      2  C   UNL     1       3.239   4.624  17.540  0.00  0.00    +0.000 C 
ATOM      3  C   UNL     1       1.796   4.285  17.952  0.00  0.00    +0.000 C 
ATOM      4  C   UNL     1       1.745   3.702  19.325  0.00  0.00    +0.000 A 
ATOM      5  C   UNL     1       0.665   3.513  20.156  0.00  0.00    +0.000 A 
ATOM      6  N   UNL     1       1.119   2.932  21.314  0.00  0.00    +0.000 N 
ATOM      7  C   UNL     1       2.474   2.737  21.230  0.00  0.00    +0.000 A 
ATOM      8  C   UNL     1       2.893   3.197  20.001  0.00  0.00    +0.000 A 
ATOM      9  C   UNL     1       4.266   3.233  19.413  0.00  0.00    +0.000 C 
ATOM     10  H   UNL     1       0.544   2.687  22.108  0.00  0.00    +0.000 HD
ENDROOT
BRANCH   1  11
ATOM     11  N   UNL     1       5.537   3.739  17.334  0.00  0.00    +0.000 NA
ATOM     12  H   UNL     1       6.045   2.861  17.225  0.00  0.00    +0.000 HD
ATOM     13  H   UNL     1       6.068   4.293  18.005  0.00  0.00    +0.000 HD
ENDBRANCH   1  11
TORSDOF 1
ENDMDL
MODEL 4
REMARK VINA RESULT:      -5.1      2.060      2.880
REMARK  Name = 
REMARK  1 active torsions:
REMARK  status: ('A' for Active; 'I' for Inactive)
REMARK    1  A    between atoms: N_1  and  C_2
REMARK                            x       y       z     vdW  Elec       q    Type
REMARK                         _______ _______ _______ _____ _____    ______ ____
ROOT
ATOM      1  C   UNL     1       4.794   3.548  18.797  0.00  0.00    +0.000 C 
ATOM      2  C   UNL     1       4.113   3.244  17.446  0.00  0.00    +0.000 C 
ATOM      3  C   UNL     1       2.852   2.383  17.641  0.00  0.00    +0.000 C 
ATOM      4  C   UNL     1       2.009   2.899  18.759  0.00  0.00    +0.000 A 
ATOM      5  C   UNL     1       0.707   2.596  19.084  0.00  0.00    +0.000 A 
ATOM      6  N   UNL     1       0.373   3.318  20.202  0.00  0.00    +0.000 N 
ATOM      7  C   UNL     1       1.446   4.072  20.602  0.00  0.00    +0.000 A 
ATOM      8  C   UNL     1       2.484   3.826  19.730  0.00  0.00    +0.000 A 
ATOM      9  C   UNL     1       3.864   4.397  19.704  0.00  0.00    +0.000 C 
ATOM     10  H   UNL     1      -0.528   3.299  20.661  0.00  0.00    +0.000 HD
ENDROOT
BRANCH   1  11
ATOM     11  N   UNL     1       6.076   4.229  18.576  0.00  0.00    +0.000 NA
ATOM     12  H   UNL     1       6.800   3.536  18.391  0.00  0.00    +0.000 HD
ATOM     13  H   UNL     1       6.355   4.710  19.432  0.00  0.00    +0.000 HD
ENDBRANCH   1  11
TORSDOF 1
ENDMDL
MODEL 5
REMARK VINA RESULT:      -5.1      1.975      2.970
REMARK  Name = 
REMARK  1 active torsions:
REMARK  status: ('A' for Active; 'I' for Inactive)
REMARK    1  A    between atoms: N_1  and  C_2
REMARK                            x       y       z     vdW  Elec       q    Type
REMARK                         _______ _______ _______ _____ _____    ______ ____
ROOT
ATOM      1  C   UNL     1       4.828   4.129  18.691  0.00  0.00    +0.000 C 
ATOM      2  C   UNL     1       4.551   5.479  19.387  0.00  0.00    +0.000 C 
ATOM      3  C   UNL     1       3.039   5.748  19.495  0.00  0.00    +0.000 C 
ATOM      4  C   UNL     1       2.306   4.540  19.975  0.00  0.00    +0.000 A 
ATOM      5  C   UNL     1       1.020   4.430  20.452  0.00  0.00    +0.000 A 
ATOM      6  N   UNL     1       0.796   3.112  20.761  0.00  0.00    +0.000 N 
ATOM      7  C   UNL     1       1.918   2.375  20.479  0.00  0.00    +0.000 A 
ATOM      8  C   UNL     1       2.873   3.233  19.979  0.00  0.00    +0.000 A 
ATOM      9  C   UNL     1       4.270   2.951  19.534  0.00  0.00    +0.000 C 
ATOM     10  H   UNL     1      -0.064   2.740  21.140  0.00  0.00    +0.000 HD
ENDROOT
BRANCH   1  11
ATOM     11  N   UNL     1       6.268   3.968  18.453  0.00  0.00    +0.000 NA
ATOM     12  H   UNL     1       6.459   3.007  18.171  0.00  0.00    +0.000 HD
ATOM     13  H   UNL     1       6.773   4.113  19.328  0.00  0.00    +0.000 HD
ENDBRANCH   1  11
TORSDOF 1
ENDMDL
MODEL 6
REMARK VINA RESULT:      -5.1      2.965      4.661
REMARK  Name = 
REMARK  1 active torsions:
REMARK  status: ('A' for Active; 'I' for Inactive)
REMARK    1  A    between atoms: N_1  and  C_2
REMARK                            x       y       z     vdW  Elec       q    Type
REMARK                         _______ _______ _______ _____ _____    ______ ____
ROOT
ATOM      1  C   UNL     1       3.952   5.385  19.011  0.00  0.00    +0.000 C 
ATOM      2  C   UNL     1       3.408   4.241  18.128  0.00  0.00    +0.000 C 
ATOM      3  C   UNL     1       4.091   4.230  16.749  0.00  0.00    +0.000 C 
ATOM      4  C   UNL     1       5.570   4.384  16.875  0.00  0.00    +0.000 A 
ATOM      5  C   UNL     1       6.556   4.165  15.940  0.00  0.00    +0.000 A 
ATOM      6  N   UNL     1       7.764   4.453  16.524  0.00  0.00    +0.000 N 
ATOM      7  C   UNL     1       7.564   4.862  17.818  0.00  0.00    +0.000 A 
ATOM      8  C   UNL     1       6.209   4.840  18.064  0.00  0.00    +0.000 A 
ATOM      9  C   UNL     1       5.460   5.177  19.313  0.00  0.00    +0.000 C 
ATOM     10  H   UNL     1       8.664   4.373  16.071  0.00  0.00    +0.000 HD
ENDROOT
BRANCH   1  11
ATOM     11  N   UNL     1       3.176   5.479  20.254  0.00  0.00    +0.000 NA
ATOM     12  H   UNL     1       3.812   5.601  21.042  0.00  0.00    +0.000 HD
ATOM     13  H   UNL     1       2.690   4.596  20.415  0.00  0.00    +0.000 HD
ENDBRANCH   1  11
TORSDOF 1
ENDMDL
MODEL 7
REMARK VINA RESULT:      -5.0      1.100      1.964
REMARK  Name = 
REMARK  1 active torsions:
REMARK  status: ('A' for Active; 'I' for Inactive)
REMARK    1  A    between atoms: N_1  and  C_2
REMARK                            x       y       z     vdW  Elec       q    Type
REMARK                         _______ _______ _______ _____ _____    ______ ____
ROOT
ATOM      1  C   UNL     1       3.312   2.153  18.401  0.00  0.00    +0.000 C 
ATOM      2  C   UNL     1       4.119   3.217  17.624  0.00  0.00    +0.000 C 
ATOM      3  C   UNL     1       3.383   4.568  17.607  0.00  0.00    +0.000 C 
ATOM      4  C   UNL     1       2.865   4.922  18.961  0.00  0.00    +0.000 A 
ATOM      5  C   UNL     1       2.398   6.128  19.431  0.00  0.00    +0.000 A 
ATOM      6  N   UNL     1       2.024   5.954  20.740  0.00  0.00    +0.000 N 
ATOM      7  C   UNL     1       2.237   4.652  21.111  0.00  0.00    +0.000 A 
ATOM      8  C   UNL     1       2.751   3.981  20.023  0.00  0.00    +0.000 A 
ATOM      9  C   UNL     1       3.171   2.553  19.894  0.00  0.00    +0.000 C 
ATOM     10  H   UNL     1       1.651   6.677  21.340  0.00  0.00    +0.000 HD
ENDROOT
BRANCH   1  11
ATOM     11  N   UNL     1       3.949   0.837  18.267  0.00  0.00    +0.000 NA
ATOM     12  H   UNL     1       4.857   0.945  17.816  0.00  0.00    +0.000 HD
ATOM     13  H   UNL     1       3.389   0.253  17.646  0.00  0.00    +0.000 HD
ENDBRANCH   1  11
TORSDOF 1
ENDMDL
MODEL 8
REMARK VINA RESULT:      -4.9      1.884      4.329
REMARK  Name = 
REMARK  1 active torsions:
REMARK  status: ('A' for Active; 'I' for Inactive)
REMARK    1  A    between atoms: N_1  and  C_2
REMARK                            x       y       z     vdW  Elec       q    Type
REMARK                         _______ _______ _______ _____ _____    ______ ____
ROOT
ATOM      1  C   UNL     1       3.558   6.073  17.981  0.00  0.00    +0.000 C 
ATOM      2  C   UNL     1       4.450   5.360  16.940  0.00  0.00    +0.000 C 
ATOM      3  C   UNL     1       4.718   3.900  17.346  0.00  0.00    +0.000 C 
ATOM      4  C   UNL     1       3.465   3.220  17.788  0.00  0.00    +0.000 A 
ATOM      5  C   UNL     1       3.215   1.880  17.974  0.00  0.00    +0.000 A 
ATOM      6  N   UNL     1       1.916   1.747  18.397  0.00  0.00    +0.000 N 
ATOM      7  C   UNL     1       1.334   2.985  18.494  0.00  0.00    +0.000 A 
ATOM      8  C   UNL     1       2.275   3.924  18.131  0.00  0.00    +0.000 A 
ATOM      9  C   UNL     1       2.156   5.411  18.049  0.00  0.00    +0.000 C 
ATOM     10  H   UNL     1       1.457   0.870  18.603  0.00  0.00    +0.000 HD
ENDROOT
BRANCH   1  11
ATOM     11  N   UNL     1       3.450   7.501  17.661  0.00  0.00    +0.000 NA
ATOM     12  H   UNL     1       2.726   7.924  18.242  0.00  0.00    +0.000 HD
ATOM     13  H   UNL     1       3.138   7.608  16.695  0.00  0.00    +0.000 HD
ENDBRANCH   1  11
TORSDOF 1
ENDMDL
MODEL 9
REMARK VINA RESULT:      -4.9      1.931      2.880
REMARK  Name = 
REMARK  1 active torsions:
REMARK  status: ('A' for Active; 'I' for Inactive)
REMARK    1  A    between atoms: N_1  and  C_2
REMARK                            x       y       z     vdW  Elec       q    Type
REMARK                         _______ _______ _______ _____ _____    ______ ____
ROOT
ATOM      1  C   UNL     1       4.198   3.942  17.502  0.00  0.00    +0.000 C 
ATOM      2  C   UNL     1       4.710   4.489  18.852  0.00  0.00    +0.000 C 
ATOM      3  C   UNL     1       3.562   5.103  19.673  0.00  0.00    +0.000 C 
ATOM      4  C   UNL     1       2.362   4.216  19.678  0.00  0.00    +0.000 A 
ATOM      5  C   UNL     1       1.247   4.256  20.483  0.00  0.00    +0.000 A 
ATOM      6  N   UNL     1       0.412   3.236  20.100  0.00  0.00    +0.000 N 
ATOM      7  C   UNL     1       0.974   2.550  19.053  0.00  0.00    +0.000 A 
ATOM      8  C   UNL     1       2.183   3.141  18.760  0.00  0.00    +0.000 A 
ATOM      9  C   UNL     1       3.196   2.778  17.724  0.00  0.00    +0.000 C 
ATOM     10  H   UNL     1      -0.479   3.022  20.525  0.00  0.00    +0.000 HD
ENDROOT
BRANCH   1  11
ATOM     11  N   UNL     1       5.328   3.510  16.669  0.00  0.00    +0.000 NA
ATOM     12  H   UNL     1       5.794   2.720  17.114  0.00  0.00    +0.000 HD
ATOM     13  H   UNL     1       6.020   4.259  16.625  0.00  0.00    +0.000 HD
ENDBRANCH   1  11
TORSDOF 1
ENDMDL
