MODEL 1
REMARK VINA RESULT:      -7.6      0.000      0.000
REMARK  Name = 
REMARK  11 active torsions:
REMARK  status: ('A' for Active; 'I' for Inactive)
REMARK    1  A    between atoms: C_1  and  N_2
REMARK    2  A    between atoms: N_2  and  C_3
REMARK    3  A    between atoms: N_2  and  C_7
REMARK    4  A    between atoms: C_3  and  C_4
REMARK    5  A    between atoms: C_4  and  C_5
REMARK    6  A    between atoms: C_5  and  O_6
REMARK    7  A    between atoms: C_10  and  C_11
REMARK    8  A    between atoms: N_13  and  C_14
REMARK    9  A    between atoms: C_17  and  O_18
REMARK   10  A    between atoms: O_18  and  C_19
REMARK   11  A    between atoms: C_26  and  C_27
REMARK                            x       y       z     vdW  Elec       q    Type
REMARK                         _______ _______ _______ _____ _____    ______ ____
ROOT
ATOM      1  C   UNL     1       3.477   4.953  18.395  0.00  0.00    +0.000 A 
ATOM      2  N   UNL     1       2.532   5.363  19.275  0.00  0.00    +0.000 NA
ATOM      3  C   UNL     1       2.064   6.630  19.201  0.00  0.00    +0.000 A 
ATOM      4  C   UNL     1       2.478   7.554  18.260  0.00  0.00    +0.000 A 
ATOM      5  C   UNL     1       3.459   7.149  17.355  0.00  0.00    +0.000 A 
ATOM      6  C   UNL     1       3.990   5.832  17.398  0.00  0.00    +0.000 A 
ENDROOT
BRANCH   6   7
ATOM      7  C   UNL     1       5.095   5.483  16.466  0.00  0.00    +0.000 A 
ATOM      8  C   UNL     1       4.902   4.608  15.385  0.00  0.00    +0.000 A 
ATOM      9  C   UNL     1       5.950   4.300  14.517  0.00  0.00    +0.000 A 
ATOM     10  C   UNL     1       7.190   4.860  14.760  0.00  0.00    +0.000 A 
ATOM     11  N   UNL     1       7.434   5.705  15.778  0.00  0.00    +0.000 NA
ATOM     12  C   UNL     1       6.385   6.008  16.586  0.00  0.00    +0.000 A 
ENDBRANCH   6   7
BRANCH   4  13
ATOM     13  C   UNL     1       1.947   8.932  18.348  0.00  0.00    +0.000 C 
ATOM     14  O   UNL     1       2.317   9.723  17.493  0.00  0.00    +0.000 OA
ATOM     15  N   UNL     1       1.121   9.224  19.425  0.00  0.00    +0.000 N 
ATOM     16  H   UNL     1       1.060   8.548  20.175  0.00  0.00    +0.000 HD
BRANCH  15  17
ATOM     17  C   UNL     1       0.501  10.479  19.658  0.00  0.00    +0.000 A 
ATOM     18  C   UNL     1       1.035  11.448  20.509  0.00  0.00    +0.000 A 
ATOM     19  C   UNL     1       0.372  12.662  20.719  0.00  0.00    +0.000 A 
ATOM     20  C   UNL     1      -0.832  12.939  20.076  0.00  0.00    +0.000 A 
ATOM     21  C   UNL     1      -1.385  11.971  19.241  0.00  0.00    +0.000 A 
ATOM     22  C   UNL     1      -0.707  10.760  19.011  0.00  0.00    +0.000 A 
BRANCH  20  23
ATOM     23  O   UNL     1      -1.400  14.127  20.413  0.00  0.00    +0.000 OA
BRANCH  23  24
ATOM     24  C   UNL     1      -2.527  14.148  21.278  0.00  0.00    +0.000 C 
ATOM     25  F   UNL     1      -2.594  13.109  22.135  0.00  0.00    +0.000 F 
ATOM     26  F   UNL     1      -2.508  15.294  21.993  0.00  0.00    +0.000 F 
ATOM     27  F   UNL     1      -3.651  14.143  20.526  0.00  0.00    +0.000 F 
ENDBRANCH  23  24
ENDBRANCH  20  23
ENDBRANCH  15  17
ENDBRANCH   4  13
BRANCH   1  29
ATOM     28  C   UNL     1       4.679   3.411  19.802  0.00  0.00    +0.000 C 
ATOM     29  N   UNL     1       3.953   3.648  18.556  0.00  0.00    +0.000 N 
BRANCH  29  30
ATOM     30  C   UNL     1       3.163   2.561  17.960  0.00  0.00    +0.000 C 
BRANCH  30  31
ATOM     31  C   UNL     1       2.242   1.841  18.942  0.00  0.00    +0.000 C 
BRANCH  31  32
ATOM     32  C   UNL     1       0.818   2.371  18.838  0.00  0.00    +0.000 C 
BRANCH  32  33
ATOM     33  O   UNL     1       0.494   3.120  20.003  0.00  0.00    +0.000 OA
ATOM     34  H   UNL     1       1.246   3.052  20.617  0.00  0.00    +0.000 HD
ENDBRANCH  32  33
ENDBRANCH  31  32
ENDBRANCH  30  31
ENDBRANCH  29  30
ENDBRANCH   1  29
TORSDOF 10
ENDMDL
MODEL 2
REMARK VINA RESULT:      -7.4      1.972      3.907
REMARK  Name = 
REMARK  11 active torsions:
REMARK  status: ('A' for Active; 'I' for Inactive)
REMARK    1  A    between atoms: C_1  and  N_2
REMARK    2  A    between atoms: N_2  and  C_3
REMARK    3  A    between atoms: N_2  and  C_7
REMARK    4  A    between atoms: C_3  and  C_4
REMARK    5  A    between atoms: C_4  and  C_5
REMARK    6  A    between atoms: C_5  and  O_6
REMARK    7  A    between atoms: C_10  and  C_11
REMARK    8  A    between atoms: N_13  and  C_14
REMARK    9  A    between atoms: C_17  and  O_18
REMARK   10  A    between atoms: O_18  and  C_19
REMARK   11  A    between atoms: C_26  and  C_27
REMARK                            x       y       z     vdW  Elec       q    Type
REMARK                         _______ _______ _______ _____ _____    ______ ____
ROOT
ATOM      1  C   UNL     1       4.142   5.769  17.561  0.00  0.00    +0.000 A 
ATOM      2  N   UNL     1       4.514   6.968  17.051  0.00  0.00    +0.000 NA
ATOM      3  C   UNL     1       3.762   8.061  17.315  0.00  0.00    +0.000 A 
ATOM      4  C   UNL     1       2.623   8.045  18.098  0.00  0.00    +0.000 A 
ATOM      5  C   UNL     1       2.222   6.815  18.619  0.00  0.00    +0.000 A 
ATOM      6  C   UNL     1       2.973   5.637  18.363  0.00  0.00    +0.000 A 
ENDROOT
BRANCH   6   7
ATOM      7  C   UNL     1       2.451   4.341  18.872  0.00  0.00    +0.000 A 
ATOM      8  C   UNL     1       1.525   3.577  18.142  0.00  0.00    +0.000 A 
ATOM      9  C   UNL     1       1.055   2.359  18.632  0.00  0.00    +0.000 A 
ATOM     10  C   UNL     1       1.505   1.931  19.867  0.00  0.00    +0.000 A 
ATOM     11  N   UNL     1       2.391   2.618  20.611  0.00  0.00    +0.000 NA
ATOM     12  C   UNL     1       2.853   3.784  20.090  0.00  0.00    +0.000 A 
ENDBRANCH   6   7
BRANCH   4  13
ATOM     13  C   UNL     1       1.846   9.297  18.232  0.00  0.00    +0.000 C 
ATOM     14  O   UNL     1       2.129  10.208  17.469  0.00  0.00    +0.000 OA
ATOM     15  N   UNL     1       0.902   9.350  19.249  0.00  0.00    +0.000 N 
ATOM     16  H   UNL     1       0.909   8.615  19.943  0.00  0.00    +0.000 HD
BRANCH  15  17
ATOM     17  C   UNL     1       0.049  10.454  19.511  0.00  0.00    +0.000 A 
ATOM     18  C   UNL     1       0.309  11.401  20.503  0.00  0.00    +0.000 A 
ATOM     19  C   UNL     1      -0.576  12.460  20.734  0.00  0.00    +0.000 A 
ATOM     20  C   UNL     1      -1.733  12.602  19.972  0.00  0.00    +0.000 A 
ATOM     21  C   UNL     1      -2.013  11.651  18.993  0.00  0.00    +0.000 A 
ATOM     22  C   UNL     1      -1.112  10.600  18.745  0.00  0.00    +0.000 A 
BRANCH  20  23
ATOM     23  O   UNL     1      -2.534  13.637  20.337  0.00  0.00    +0.000 OA
BRANCH  23  24
ATOM     24  C   UNL     1      -3.780  13.375  20.968  0.00  0.00    +0.000 C 
ATOM     25  F   UNL     1      -4.284  14.415  21.663  0.00  0.00    +0.000 F 
ATOM     26  F   UNL     1      -4.679  13.011  20.027  0.00  0.00    +0.000 F 
ATOM     27  F   UNL     1      -3.624  12.339  21.822  0.00  0.00    +0.000 F 
ENDBRANCH  23  24
ENDBRANCH  20  23
ENDBRANCH  15  17
ENDBRANCH   4  13
BRANCH   1  29
ATOM     28  C   UNL     1       5.143   4.498  15.776  0.00  0.00    +0.000 C 
ATOM     29  N   UNL     1       4.936   4.671  17.212  0.00  0.00    +0.000 N 
BRANCH  29  30
ATOM     30  C   UNL     1       5.997   4.278  18.149  0.00  0.00    +0.000 C 
BRANCH  30  31
ATOM     31  C   UNL     1       7.362   4.894  17.850  0.00  0.00    +0.000 C 
BRANCH  31  32
ATOM     32  C   UNL     1       7.683   6.008  18.839  0.00  0.00    +0.000 C 
BRANCH  32  33
ATOM     33  O   UNL     1       8.318   5.466  19.989  0.00  0.00    +0.000 OA
ATOM     34  H   UNL     1       9.068   4.925  19.687  0.00  0.00    +0.000 HD
ENDBRANCH  32  33
ENDBRANCH  31  32
ENDBRANCH  30  31
ENDBRANCH  29  30
ENDBRANCH   1  29
TORSDOF 10
ENDMDL
MODEL 3
REMARK VINA RESULT:      -7.3      1.582      1.782
REMARK  Name = 
REMARK  11 active torsions:
REMARK  status: ('A' for Active; 'I' for Inactive)
REMARK    1  A    between atoms: C_1  and  N_2
REMARK    2  A    between atoms: N_2  and  C_3
REMARK    3  A    between atoms: N_2  and  C_7
REMARK    4  A    between atoms: C_3  and  C_4
REMARK    5  A    between atoms: C_4  and  C_5
REMARK    6  A    between atoms: C_5  and  O_6
REMARK    7  A    between atoms: C_10  and  C_11
REMARK    8  A    between atoms: N_13  and  C_14
REMARK    9  A    between atoms: C_17  and  O_18
REMARK   10  A    between atoms: O_18  and  C_19
REMARK   11  A    between atoms: C_26  and  C_27
REMARK                            x       y       z     vdW  Elec       q    Type
REMARK                         _______ _______ _______ _____ _____    ______ ____
ROOT
ATOM      1  C   UNL     1       3.531   4.155  19.274  0.00  0.00    +0.000 A 
ATOM      2  N   UNL     1       2.605   4.382  20.237  0.00  0.00    +0.000 NA
ATOM      3  C   UNL     1       2.064   5.616  20.356  0.00  0.00    +0.000 A 
ATOM      4  C   UNL     1       2.384   6.683  19.538  0.00  0.00    +0.000 A 
ATOM      5  C   UNL     1       3.345   6.467  18.551  0.00  0.00    +0.000 A 
ATOM      6  C   UNL     1       3.949   5.192  18.391  0.00  0.00    +0.000 A 
ENDROOT
BRANCH   6   7
ATOM      7  C   UNL     1       5.029   5.041  17.380  0.00  0.00    +0.000 A 
ATOM      8  C   UNL     1       4.757   4.649  16.059  0.00  0.00    +0.000 A 
ATOM      9  C   UNL     1       5.784   4.523  15.123  0.00  0.00    +0.000 A 
ATOM     10  C   UNL     1       7.080   4.771  15.533  0.00  0.00    +0.000 A 
ATOM     11  N   UNL     1       7.402   5.150  16.784  0.00  0.00    +0.000 NA
ATOM     12  C   UNL     1       6.375   5.294  17.661  0.00  0.00    +0.000 A 
ENDBRANCH   6   7
BRANCH   4  13
ATOM     13  C   UNL     1       1.782   8.001  19.836  0.00  0.00    +0.000 C 
ATOM     14  O   UNL     1       1.864   8.856  18.967  0.00  0.00    +0.000 OA
ATOM     15  N   UNL     1       1.226   8.172  21.097  0.00  0.00    +0.000 N 
ATOM     16  H   UNL     1       1.408   7.465  21.797  0.00  0.00    +0.000 HD
BRANCH  15  17
ATOM     17  C   UNL     1       0.584   9.354  21.550  0.00  0.00    +0.000 A 
ATOM     18  C   UNL     1       0.785  10.605  20.964  0.00  0.00    +0.000 A 
ATOM     19  C   UNL     1       0.142  11.743  21.463  0.00  0.00    +0.000 A 
ATOM     20  C   UNL     1      -0.726  11.654  22.550  0.00  0.00    +0.000 A 
ATOM     21  C   UNL     1      -0.918  10.415  23.154  0.00  0.00    +0.000 A 
ATOM     22  C   UNL     1      -0.290   9.266  22.639  0.00  0.00    +0.000 A 
BRANCH  20  23
ATOM     23  O   UNL     1      -1.238  12.841  22.970  0.00  0.00    +0.000 OA
BRANCH  23  24
ATOM     24  C   UNL     1      -2.431  13.339  22.383  0.00  0.00    +0.000 C 
ATOM     25  F   UNL     1      -3.236  14.009  23.233  0.00  0.00    +0.000 F 
ATOM     26  F   UNL     1      -2.105  14.163  21.362  0.00  0.00    +0.000 F 
ATOM     27  F   UNL     1      -3.132  12.301  21.875  0.00  0.00    +0.000 F 
ENDBRANCH  23  24
ENDBRANCH  20  23
ENDBRANCH  15  17
ENDBRANCH   4  13
BRANCH   1  29
ATOM     28  C   UNL     1       4.503   2.346  20.532  0.00  0.00    +0.000 C 
ATOM     29  N   UNL     1       4.086   2.871  19.235  0.00  0.00    +0.000 N 
BRANCH  29  30
ATOM     30  C   UNL     1       3.584   1.949  18.206  0.00  0.00    +0.000 C 
BRANCH  30  31
ATOM     31  C   UNL     1       2.131   2.186  17.802  0.00  0.00    +0.000 C 
BRANCH  31  32
ATOM     32  C   UNL     1       1.178   1.624  18.848  0.00  0.00    +0.000 C 
BRANCH  32  33
ATOM     33  O   UNL     1       0.352   2.663  19.359  0.00  0.00    +0.000 OA
ATOM     34  H   UNL     1      -0.022   2.357  20.203  0.00  0.00    +0.000 HD
ENDBRANCH  32  33
ENDBRANCH  31  32
ENDBRANCH  30  31
ENDBRANCH  29  30
ENDBRANCH   1  29
TORSDOF 10
ENDMDL
MODEL 4
REMARK VINA RESULT:      -7.3      2.127      4.148
REMARK  Name = 
REMARK  11 active torsions:
REMARK  status: ('A' for Active; 'I' for Inactive)
REMARK    1  A    between atoms: C_1  and  N_2
REMARK    2  A    between atoms: N_2  and  C_3
REMARK    3  A    between atoms: N_2  and  C_7
REMARK    4  A    between atoms: C_3  and  C_4
REMARK    5  A    between atoms: C_4  and  C_5
REMARK    6  A    between atoms: C_5  and  O_6
REMARK    7  A    between atoms: C_10  and  C_11
REMARK    8  A    between atoms: N_13  and  C_14
REMARK    9  A    between atoms: C_17  and  O_18
REMARK   10  A    between atoms: O_18  and  C_19
REMARK   11  A    between atoms: C_26  and  C_27
REMARK                            x       y       z     vdW  Elec       q    Type
REMARK                         _______ _______ _______ _____ _____    ______ ____
ROOT
ATOM      1  C   UNL     1       3.627   5.850  18.203  0.00  0.00    +0.000 A 
ATOM      2  N   UNL     1       3.890   6.962  17.474  0.00  0.00    +0.000 NA
ATOM      3  C   UNL     1       3.185   8.091  17.713  0.00  0.00    +0.000 A 
ATOM      4  C   UNL     1       2.202   8.199  18.680  0.00  0.00    +0.000 A 
ATOM      5  C   UNL     1       1.914   7.059  19.428  0.00  0.00    +0.000 A 
ATOM      6  C   UNL     1       2.620   5.846  19.210  0.00  0.00    +0.000 A 
ENDROOT
BRANCH   6   7
ATOM      7  C   UNL     1       2.211   4.640  19.977  0.00  0.00    +0.000 A 
ATOM      8  C   UNL     1       1.431   3.624  19.399  0.00  0.00    +0.000 A 
ATOM      9  C   UNL     1       1.066   2.496  20.133  0.00  0.00    +0.000 A 
ATOM     10  C   UNL     1       1.469   2.412  21.452  0.00  0.00    +0.000 A 
ATOM     11  N   UNL     1       2.217   3.352  22.059  0.00  0.00    +0.000 NA
ATOM     12  C   UNL     1       2.582   4.422  21.307  0.00  0.00    +0.000 A 
ENDBRANCH   6   7
BRANCH   4  13
ATOM     13  C   UNL     1       1.448   9.468  18.774  0.00  0.00    +0.000 C 
ATOM     14  O   UNL     1       1.811  10.383  18.050  0.00  0.00    +0.000 OA
ATOM     15  N   UNL     1       0.431   9.531  19.718  0.00  0.00    +0.000 N 
ATOM     16  H   UNL     1       0.367   8.786  20.398  0.00  0.00    +0.000 HD
BRANCH  15  17
ATOM     17  C   UNL     1      -0.413  10.652  19.932  0.00  0.00    +0.000 A 
ATOM     18  C   UNL     1      -1.432  11.020  19.052  0.00  0.00    +0.000 A 
ATOM     19  C   UNL     1      -2.222  12.148  19.300  0.00  0.00    +0.000 A 
ATOM     20  C   UNL     1      -2.019  12.925  20.438  0.00  0.00    +0.000 A 
ATOM     21  C   UNL     1      -0.992  12.579  21.312  0.00  0.00    +0.000 A 
ATOM     22  C   UNL     1      -0.212  11.432  21.075  0.00  0.00    +0.000 A 
BRANCH  20  23
ATOM     23  O   UNL     1      -2.815  14.023  20.529  0.00  0.00    +0.000 OA
BRANCH  23  24
ATOM     24  C   UNL     1      -3.957  13.997  21.373  0.00  0.00    +0.000 C 
ATOM     25  F   UNL     1      -3.808  14.661  22.537  0.00  0.00    +0.000 F 
ATOM     26  F   UNL     1      -5.006  14.527  20.707  0.00  0.00    +0.000 F 
ATOM     27  F   UNL     1      -4.253  12.709  21.662  0.00  0.00    +0.000 F 
ENDBRANCH  23  24
ENDBRANCH  20  23
ENDBRANCH  15  17
ENDBRANCH   4  13
BRANCH   1  29
ATOM     28  C   UNL     1       4.550   4.490  16.441  0.00  0.00    +0.000 C 
ATOM     29  N   UNL     1       4.359   4.703  17.874  0.00  0.00    +0.000 N 
BRANCH  29  30
ATOM     30  C   UNL     1       5.401   4.272  18.816  0.00  0.00    +0.000 C 
BRANCH  30  31
ATOM     31  C   UNL     1       6.362   5.379  19.242  0.00  0.00    +0.000 C 
BRANCH  31  32
ATOM     32  C   UNL     1       7.609   5.381  18.367  0.00  0.00    +0.000 C 
BRANCH  32  33
ATOM     33  O   UNL     1       7.860   4.069  17.879  0.00  0.00    +0.000 OA
ATOM     34  H   UNL     1       7.977   3.484  18.648  0.00  0.00    +0.000 HD
ENDBRANCH  32  33
ENDBRANCH  31  32
ENDBRANCH  30  31
ENDBRANCH  29  30
ENDBRANCH   1  29
TORSDOF 10
ENDMDL
MODEL 5
REMARK VINA RESULT:      -7.2      1.722      2.031
REMARK  Name = 
REMARK  11 active torsions:
REMARK  status: ('A' for Active; 'I' for Inactive)
REMARK    1  A    between atoms: C_1  and  N_2
REMARK    2  A    between atoms: N_2  and  C_3
REMARK    3  A    between atoms: N_2  and  C_7
REMARK    4  A    between atoms: C_3  and  C_4
REMARK    5  A    between atoms: C_4  and  C_5
REMARK    6  A    between atoms: C_5  and  O_6
REMARK    7  A    between atoms: C_10  and  C_11
REMARK    8  A    between atoms: N_13  and  C_14
REMARK    9  A    between atoms: C_17  and  O_18
REMARK   10  A    between atoms: O_18  and  C_19
REMARK   11  A    between atoms: C_26  and  C_27
REMARK                            x       y       z     vdW  Elec       q    Type
REMARK                         _______ _______ _______ _____ _____    ______ ____
ROOT
ATOM      1  C   UNL     1       3.486   4.059  19.448  0.00  0.00    +0.000 A 
ATOM      2  N   UNL     1       2.541   4.328  20.381  0.00  0.00    +0.000 NA
ATOM      3  C   UNL     1       2.011   5.571  20.446  0.00  0.00    +0.000 A 
ATOM      4  C   UNL     1       2.360   6.606  19.600  0.00  0.00    +0.000 A 
ATOM      5  C   UNL     1       3.340   6.347  18.643  0.00  0.00    +0.000 A 
ATOM      6  C   UNL     1       3.934   5.061  18.540  0.00  0.00    +0.000 A 
ENDROOT
BRANCH   6   7
ATOM      7  C   UNL     1       5.035   4.866  17.559  0.00  0.00    +0.000 A 
ATOM      8  C   UNL     1       4.780   4.574  16.209  0.00  0.00    +0.000 A 
ATOM      9  C   UNL     1       5.827   4.403  15.303  0.00  0.00    +0.000 A 
ATOM     10  C   UNL     1       7.123   4.505  15.770  0.00  0.00    +0.000 A 
ATOM     11  N   UNL     1       7.429   4.784  17.051  0.00  0.00    +0.000 NA
ATOM     12  C   UNL     1       6.387   4.975  17.900  0.00  0.00    +0.000 A 
ENDBRANCH   6   7
BRANCH   4  13
ATOM     13  C   UNL     1       1.765   7.939  19.840  0.00  0.00    +0.000 C 
ATOM     14  O   UNL     1       2.170   8.859  19.144  0.00  0.00    +0.000 OA
ATOM     15  N   UNL     1       0.842   8.044  20.871  0.00  0.00    +0.000 N 
ATOM     16  H   UNL     1       0.749   7.263  21.507  0.00  0.00    +0.000 HD
BRANCH  15  17
ATOM     17  C   UNL     1       0.151   9.231  21.228  0.00  0.00    +0.000 A 
ATOM     18  C   UNL     1      -0.322  10.151  20.291  0.00  0.00    +0.000 A 
ATOM     19  C   UNL     1      -0.979  11.317  20.698  0.00  0.00    +0.000 A 
ATOM     20  C   UNL     1      -1.187  11.585  22.049  0.00  0.00    +0.000 A 
ATOM     21  C   UNL     1      -0.701  10.685  22.993  0.00  0.00    +0.000 A 
ATOM     22  C   UNL     1      -0.061   9.500  22.584  0.00  0.00    +0.000 A 
BRANCH  20  23
ATOM     23  O   UNL     1      -1.785  12.777  22.309  0.00  0.00    +0.000 OA
BRANCH  23  24
ATOM     24  C   UNL     1      -1.001  13.873  22.761  0.00  0.00    +0.000 C 
ATOM     25  F   UNL     1      -1.417  15.078  22.319  0.00  0.00    +0.000 F 
ATOM     26  F   UNL     1      -1.005  13.886  24.112  0.00  0.00    +0.000 F 
ATOM     27  F   UNL     1       0.274  13.694  22.348  0.00  0.00    +0.000 F 
ENDBRANCH  23  24
ENDBRANCH  20  23
ENDBRANCH  15  17
ENDBRANCH   4  13
BRANCH   1  29
ATOM     28  C   UNL     1       4.485   2.315  20.775  0.00  0.00    +0.000 C 
ATOM     29  N   UNL     1       4.028   2.769  19.464  0.00  0.00    +0.000 N 
BRANCH  29  30
ATOM     30  C   UNL     1       3.483   1.794  18.509  0.00  0.00    +0.000 C 
BRANCH  30  31
ATOM     31  C   UNL     1       2.131   2.182  17.915  0.00  0.00    +0.000 C 
BRANCH  31  32
ATOM     32  C   UNL     1       0.990   1.614  18.749  0.00  0.00    +0.000 C 
BRANCH  32  33
ATOM     33  O   UNL     1       0.232   2.674  19.319  0.00  0.00    +0.000 OA
ATOM     34  H   UNL     1      -0.680   2.597  18.990  0.00  0.00    +0.000 HD
ENDBRANCH  32  33
ENDBRANCH  31  32
ENDBRANCH  30  31
ENDBRANCH  29  30
ENDBRANCH   1  29
TORSDOF 10
ENDMDL
MODEL 6
REMARK VINA RESULT:      -7.2      1.255      1.635
REMARK  Name = 
REMARK  11 active torsions:
REMARK  status: ('A' for Active; 'I' for Inactive)
REMARK    1  A    between atoms: C_1  and  N_2
REMARK    2  A    between atoms: N_2  and  C_3
REMARK    3  A    between atoms: N_2  and  C_7
REMARK    4  A    between atoms: C_3  and  C_4
REMARK    5  A    between atoms: C_4  and  C_5
REMARK    6  A    between atoms: C_5  and  O_6
REMARK    7  A    between atoms: C_10  and  C_11
REMARK    8  A    between atoms: N_13  and  C_14
REMARK    9  A    between atoms: C_17  and  O_18
REMARK   10  A    between atoms: O_18  and  C_19
REMARK   11  A    between atoms: C_26  and  C_27
REMARK                            x       y       z     vdW  Elec       q    Type
REMARK                         _______ _______ _______ _____ _____    ______ ____
ROOT
ATOM      1  C   UNL     1       3.780   5.023  18.416  0.00  0.00    +0.000 A 
ATOM      2  N   UNL     1       2.891   5.459  19.341  0.00  0.00    +0.000 NA
ATOM      3  C   UNL     1       2.359   6.697  19.215  0.00  0.00    +0.000 A 
ATOM      4  C   UNL     1       2.653   7.563  18.179  0.00  0.00    +0.000 A 
ATOM      5  C   UNL     1       3.576   7.132  17.227  0.00  0.00    +0.000 A 
ATOM      6  C   UNL     1       4.169   5.845  17.319  0.00  0.00    +0.000 A 
ENDROOT
BRANCH   6   7
ATOM      7  C   UNL     1       5.210   5.471  16.326  0.00  0.00    +0.000 A 
ATOM      8  C   UNL     1       4.914   4.680  15.204  0.00  0.00    +0.000 A 
ATOM      9  C   UNL     1       5.904   4.349  14.278  0.00  0.00    +0.000 A 
ATOM     10  C   UNL     1       7.190   4.799  14.504  0.00  0.00    +0.000 A 
ATOM     11  N   UNL     1       7.534   5.560  15.559  0.00  0.00    +0.000 NA
ATOM     12  C   UNL     1       6.541   5.891  16.424  0.00  0.00    +0.000 A 
ENDBRANCH   6   7
BRANCH   4  13
ATOM     13  C   UNL     1       2.067   8.921  18.212  0.00  0.00    +0.000 C 
ATOM     14  O   UNL     1       2.369   9.677  17.301  0.00  0.00    +0.000 OA
ATOM     15  N   UNL     1       1.272   9.240  19.304  0.00  0.00    +0.000 N 
ATOM     16  H   UNL     1       1.269   8.606  20.092  0.00  0.00    +0.000 HD
BRANCH  15  17
ATOM     17  C   UNL     1       0.608  10.481  19.493  0.00  0.00    +0.000 A 
ATOM     18  C   UNL     1      -0.384  10.955  18.632  0.00  0.00    +0.000 A 
ATOM     19  C   UNL     1      -0.993  12.195  18.853  0.00  0.00    +0.000 A 
ATOM     20  C   UNL     1      -0.633  12.983  19.944  0.00  0.00    +0.000 A 
ATOM     21  C   UNL     1       0.369  12.529  20.797  0.00  0.00    +0.000 A 
ATOM     22  C   UNL     1       0.965  11.272  20.590  0.00  0.00    +0.000 A 
BRANCH  20  23
ATOM     23  O   UNL     1      -1.258  14.188  20.009  0.00  0.00    +0.000 OA
BRANCH  23  24
ATOM     24  C   UNL     1      -0.523  15.376  19.757  0.00  0.00    +0.000 C 
ATOM     25  F   UNL     1      -0.050  15.987  20.863  0.00  0.00    +0.000 F 
ATOM     26  F   UNL     1       0.520  15.083  18.950  0.00  0.00    +0.000 F 
ATOM     27  F   UNL     1      -1.322  16.252  19.106  0.00  0.00    +0.000 F 
ENDBRANCH  23  24
ENDBRANCH  20  23
ENDBRANCH  15  17
ENDBRANCH   4  13
BRANCH   1  29
ATOM     28  C   UNL     1       4.779   3.505  19.997  0.00  0.00    +0.000 C 
ATOM     29  N   UNL     1       4.328   3.754  18.630  0.00  0.00    +0.000 N 
BRANCH  29  30
ATOM     30  C   UNL     1       3.794   2.643  17.829  0.00  0.00    +0.000 C 
BRANCH  30  31
ATOM     31  C   UNL     1       2.288   2.709  17.585  0.00  0.00    +0.000 C 
BRANCH  31  32
ATOM     32  C   UNL     1       1.520   2.156  18.779  0.00  0.00    +0.000 C 
BRANCH  32  33
ATOM     33  O   UNL     1       0.127   2.145  18.495  0.00  0.00    +0.000 OA
ATOM     34  H   UNL     1      -0.065   2.908  17.922  0.00  0.00    +0.000 HD
ENDBRANCH  32  33
ENDBRANCH  31  32
ENDBRANCH  30  31
ENDBRANCH  29  30
ENDBRANCH   1  29
TORSDOF 10
ENDMDL
MODEL 7
REMARK VINA RESULT:      -7.2      1.683      2.009
REMARK  Name = 
REMARK  11 active torsions:
REMARK  status: ('A' for Active; 'I' for Inactive)
REMARK    1  A    between atoms: C_1  and  N_2
REMARK    2  A    between atoms: N_2  and  C_3
REMARK    3  A    between atoms: N_2  and  C_7
REMARK    4  A    between atoms: C_3  and  C_4
REMARK    5  A    between atoms: C_4  and  C_5
REMARK    6  A    between atoms: C_5  and  O_6
REMARK    7  A    between atoms: C_10  and  C_11
REMARK    8  A    between atoms: N_13  and  C_14
REMARK    9  A    between atoms: C_17  and  O_18
REMARK   10  A    between atoms: O_18  and  C_19
REMARK   11  A    between atoms: C_26  and  C_27
REMARK                            x       y       z     vdW  Elec       q    Type
REMARK                         _______ _______ _______ _____ _____    ______ ____
ROOT
ATOM      1  C   UNL     1       3.632   4.390  18.866  0.00  0.00    +0.000 A 
ATOM      2  N   UNL     1       2.763   4.649  19.873  0.00  0.00    +0.000 NA
ATOM      3  C   UNL     1       2.223   5.885  19.979  0.00  0.00    +0.000 A 
ATOM      4  C   UNL     1       2.489   6.923  19.105  0.00  0.00    +0.000 A 
ATOM      5  C   UNL     1       3.391   6.673  18.072  0.00  0.00    +0.000 A 
ATOM      6  C   UNL     1       3.992   5.395  17.923  0.00  0.00    +0.000 A 
ENDROOT
BRANCH   6   7
ATOM      7  C   UNL     1       5.011   5.211  16.856  0.00  0.00    +0.000 A 
ATOM      8  C   UNL     1       4.738   4.478  15.689  0.00  0.00    +0.000 A 
ATOM      9  C   UNL     1       5.706   4.325  14.696  0.00  0.00    +0.000 A 
ATOM     10  C   UNL     1       6.949   4.893  14.898  0.00  0.00    +0.000 A 
ATOM     11  N   UNL     1       7.269   5.606  15.993  0.00  0.00    +0.000 NA
ATOM     12  C   UNL     1       6.294   5.763  16.926  0.00  0.00    +0.000 A 
ENDBRANCH   6   7
BRANCH   4  13
ATOM     13  C   UNL     1       1.898   8.249  19.390  0.00  0.00    +0.000 C 
ATOM     14  O   UNL     1       1.519   8.451  20.534  0.00  0.00    +0.000 OA
ATOM     15  N   UNL     1       1.772   9.128  18.322  0.00  0.00    +0.000 N 
ATOM     16  H   UNL     1       1.926   8.768  17.390  0.00  0.00    +0.000 HD
BRANCH  15  17
ATOM     17  C   UNL     1       1.255  10.447  18.411  0.00  0.00    +0.000 A 
ATOM     18  C   UNL     1      -0.105  10.725  18.555  0.00  0.00    +0.000 A 
ATOM     19  C   UNL     1      -0.565  12.045  18.617  0.00  0.00    +0.000 A 
ATOM     20  C   UNL     1       0.325  13.115  18.547  0.00  0.00    +0.000 A 
ATOM     21  C   UNL     1       1.682  12.849  18.383  0.00  0.00    +0.000 A 
ATOM     22  C   UNL     1       2.147  11.521  18.344  0.00  0.00    +0.000 A 
BRANCH  20  23
ATOM     23  O   UNL     1      -0.256  14.343  18.560  0.00  0.00    +0.000 OA
BRANCH  23  24
ATOM     24  C   UNL     1      -0.032  15.216  19.658  0.00  0.00    +0.000 C 
ATOM     25  F   UNL     1      -1.030  16.095  19.887  0.00  0.00    +0.000 F 
ATOM     26  F   UNL     1       0.153  14.477  20.774  0.00  0.00    +0.000 F 
ATOM     27  F   UNL     1       1.099  15.920  19.430  0.00  0.00    +0.000 F 
ENDBRANCH  23  24
ENDBRANCH  20  23
ENDBRANCH  15  17
ENDBRANCH   4  13
BRANCH   1  29
ATOM     28  C   UNL     1       4.805   2.684  20.097  0.00  0.00    +0.000 C 
ATOM     29  N   UNL     1       4.191   3.107  18.841  0.00  0.00    +0.000 N 
BRANCH  29  30
ATOM     30  C   UNL     1       3.551   2.108  17.973  0.00  0.00    +0.000 C 
BRANCH  30  31
ATOM     31  C   UNL     1       2.050   2.310  17.779  0.00  0.00    +0.000 C 
BRANCH  31  32
ATOM     32  C   UNL     1       1.272   1.778  18.976  0.00  0.00    +0.000 C 
BRANCH  32  33
ATOM     33  O   UNL     1       0.347   2.759  19.427  0.00  0.00    +0.000 OA
ATOM     34  H   UNL     1      -0.476   2.302  19.671  0.00  0.00    +0.000 HD
ENDBRANCH  32  33
ENDBRANCH  31  32
ENDBRANCH  30  31
ENDBRANCH  29  30
ENDBRANCH   1  29
TORSDOF 10
ENDMDL
MODEL 8
REMARK VINA RESULT:      -7.2      1.581      1.991
REMARK  Name = 
REMARK  11 active torsions:
REMARK  status: ('A' for Active; 'I' for Inactive)
REMARK    1  A    between atoms: C_1  and  N_2
REMARK    2  A    between atoms: N_2  and  C_3
REMARK    3  A    between atoms: N_2  and  C_7
REMARK    4  A    between atoms: C_3  and  C_4
REMARK    5  A    between atoms: C_4  and  C_5
REMARK    6  A    between atoms: C_5  and  O_6
REMARK    7  A    between atoms: C_10  and  C_11
REMARK    8  A    between atoms: N_13  and  C_14
REMARK    9  A    between atoms: C_17  and  O_18
REMARK   10  A    between atoms: O_18  and  C_19
REMARK   11  A    between atoms: C_26  and  C_27
REMARK                            x       y       z     vdW  Elec       q    Type
REMARK                         _______ _______ _______ _____ _____    ______ ____
ROOT
ATOM      1  C   UNL     1       3.634   5.353  18.965  0.00  0.00    +0.000 A 
ATOM      2  N   UNL     1       2.759   5.845  19.875  0.00  0.00    +0.000 NA
ATOM      3  C   UNL     1       2.196   7.057  19.664  0.00  0.00    +0.000 A 
ATOM      4  C   UNL     1       2.445   7.842  18.554  0.00  0.00    +0.000 A 
ATOM      5  C   UNL     1       3.353   7.354  17.616  0.00  0.00    +0.000 A 
ATOM      6  C   UNL     1       3.977   6.090  17.796  0.00  0.00    +0.000 A 
ENDROOT
BRANCH   6   7
ATOM      7  C   UNL     1       5.001   5.659  16.808  0.00  0.00    +0.000 A 
ATOM      8  C   UNL     1       4.768   4.601  15.914  0.00  0.00    +0.000 A 
ATOM      9  C   UNL     1       5.739   4.218  14.989  0.00  0.00    +0.000 A 
ATOM     10  C   UNL     1       6.946   4.890  14.987  0.00  0.00    +0.000 A 
ATOM     11  N   UNL     1       7.226   5.911  15.818  0.00  0.00    +0.000 NA
ATOM     12  C   UNL     1       6.248   6.280  16.685  0.00  0.00    +0.000 A 
ENDBRANCH   6   7
BRANCH   4  13
ATOM     13  C   UNL     1       1.830   9.186  18.494  0.00  0.00    +0.000 C 
ATOM     14  O   UNL     1       1.988   9.821  17.462  0.00  0.00    +0.000 OA
ATOM     15  N   UNL     1       1.175   9.634  19.633  0.00  0.00    +0.000 N 
ATOM     16  H   UNL     1       1.294   9.107  20.488  0.00  0.00    +0.000 HD
BRANCH  15  17
ATOM     17  C   UNL     1       0.506  10.880  19.751  0.00  0.00    +0.000 A 
ATOM     18  C   UNL     1      -0.837  11.061  19.416  0.00  0.00    +0.000 A 
ATOM     19  C   UNL     1      -1.443  12.316  19.531  0.00  0.00    +0.000 A 
ATOM     20  C   UNL     1      -0.725  13.416  19.994  0.00  0.00    +0.000 A 
ATOM     21  C   UNL     1       0.621  13.252  20.312  0.00  0.00    +0.000 A 
ATOM     22  C   UNL     1       1.225  11.985  20.219  0.00  0.00    +0.000 A 
BRANCH  20  23
ATOM     23  O   UNL     1      -1.414  14.587  20.003  0.00  0.00    +0.000 OA
BRANCH  23  24
ATOM     24  C   UNL     1      -0.805  15.766  19.497  0.00  0.00    +0.000 C 
ATOM     25  F   UNL     1      -0.240  15.626  18.280  0.00  0.00    +0.000 F 
ATOM     26  F   UNL     1      -1.735  16.744  19.428  0.00  0.00    +0.000 F 
ATOM     27  F   UNL     1       0.157  16.163  20.360  0.00  0.00    +0.000 F 
ENDBRANCH  23  24
ENDBRANCH  20  23
ENDBRANCH  15  17
ENDBRANCH   4  13
BRANCH   1  29
ATOM     28  C   UNL     1       5.662   4.153  19.462  0.00  0.00    +0.000 C 
ATOM     29  N   UNL     1       4.215   4.116  19.266  0.00  0.00    +0.000 N 
BRANCH  29  30
ATOM     30  C   UNL     1       3.405   3.154  20.025  0.00  0.00    +0.000 C 
BRANCH  30  31
ATOM     31  C   UNL     1       2.486   2.287  19.167  0.00  0.00    +0.000 C 
BRANCH  31  32
ATOM     32  C   UNL     1       3.223   1.768  17.939  0.00  0.00    +0.000 C 
BRANCH  32  33
ATOM     33  O   UNL     1       4.051   0.670  18.300  0.00  0.00    +0.000 OA
ATOM     34  H   UNL     1       4.974   0.980  18.295  0.00  0.00    +0.000 HD
ENDBRANCH  32  33
ENDBRANCH  31  32
ENDBRANCH  30  31
ENDBRANCH  29  30
ENDBRANCH   1  29
TORSDOF 10
ENDMDL
MODEL 9
REMARK VINA RESULT:      -7.1      1.072      1.605
REMARK  Name = 
REMARK  11 active torsions:
REMARK  status: ('A' for Active; 'I' for Inactive)
REMARK    1  A    between atoms: C_1  and  N_2
REMARK    2  A    between atoms: N_2  and  C_3
REMARK    3  A    between atoms: N_2  and  C_7
REMARK    4  A    between atoms: C_3  and  C_4
REMARK    5  A    between atoms: C_4  and  C_5
REMARK    6  A    between atoms: C_5  and  O_6
REMARK    7  A    between atoms: C_10  and  C_11
REMARK    8  A    between atoms: N_13  and  C_14
REMARK    9  A    between atoms: C_17  and  O_18
REMARK   10  A    between atoms: O_18  and  C_19
REMARK   11  A    between atoms: C_26  and  C_27
REMARK                            x       y       z     vdW  Elec       q    Type
REMARK                         _______ _______ _______ _____ _____    ______ ____
ROOT
ATOM      1  C   UNL     1       3.699   5.283  18.973  0.00  0.00    +0.000 A 
ATOM      2  N   UNL     1       2.824   5.766  19.888  0.00  0.00    +0.000 NA
ATOM      3  C   UNL     1       2.239   6.966  19.674  0.00  0.00    +0.000 A 
ATOM      4  C   UNL     1       2.462   7.748  18.556  0.00  0.00    +0.000 A 
ATOM      5  C   UNL     1       3.369   7.269  17.612  0.00  0.00    +0.000 A 
ATOM      6  C   UNL     1       4.018   6.018  17.795  0.00  0.00    +0.000 A 
ENDROOT
BRANCH   6   7
ATOM      7  C   UNL     1       5.040   5.598  16.800  0.00  0.00    +0.000 A 
ATOM      8  C   UNL     1       4.821   4.523  15.923  0.00  0.00    +0.000 A 
ATOM      9  C   UNL     1       5.790   4.150  14.990  0.00  0.00    +0.000 A 
ATOM     10  C   UNL     1       6.981   4.850  14.965  0.00  0.00    +0.000 A 
ATOM     11  N   UNL     1       7.247   5.889  15.779  0.00  0.00    +0.000 NA
ATOM     12  C   UNL     1       6.271   6.246  16.653  0.00  0.00    +0.000 A 
ENDBRANCH   6   7
BRANCH   4  13
ATOM     13  C   UNL     1       1.822   9.080  18.492  0.00  0.00    +0.000 C 
ATOM     14  O   UNL     1       2.015   9.738  17.480  0.00  0.00    +0.000 OA
ATOM     15  N   UNL     1       1.107   9.493  19.608  0.00  0.00    +0.000 N 
ATOM     16  H   UNL     1       1.198   8.952  20.458  0.00  0.00    +0.000 HD
BRANCH  15  17
ATOM     17  C   UNL     1       0.408  10.723  19.717  0.00  0.00    +0.000 A 
ATOM     18  C   UNL     1      -0.873  10.923  19.198  0.00  0.00    +0.000 A 
ATOM     19  C   UNL     1      -1.510  12.163  19.315  0.00  0.00    +0.000 A 
ATOM     20  C   UNL     1      -0.887  13.227  19.964  0.00  0.00    +0.000 A 
ATOM     21  C   UNL     1       0.399  13.045  20.468  0.00  0.00    +0.000 A 
ATOM     22  C   UNL     1       1.030  11.792  20.371  0.00  0.00    +0.000 A 
BRANCH  20  23
ATOM     23  O   UNL     1      -1.589  14.390  19.957  0.00  0.00    +0.000 OA
BRANCH  23  24
ATOM     24  C   UNL     1      -2.195  14.853  21.155  0.00  0.00    +0.000 C 
ATOM     25  F   UNL     1      -3.323  15.569  20.971  0.00  0.00    +0.000 F 
ATOM     26  F   UNL     1      -2.483  13.791  21.939  0.00  0.00    +0.000 F 
ATOM     27  F   UNL     1      -1.310  15.633  21.816  0.00  0.00    +0.000 F 
ENDBRANCH  23  24
ENDBRANCH  20  23
ENDBRANCH  15  17
ENDBRANCH   4  13
BRANCH   1  29
ATOM     28  C   UNL     1       5.747   4.132  19.506  0.00  0.00    +0.000 C 
ATOM     29  N   UNL     1       4.306   4.060  19.276  0.00  0.00    +0.000 N 
BRANCH  29  30
ATOM     30  C   UNL     1       3.503   3.070  20.010  0.00  0.00    +0.000 C 
BRANCH  30  31
ATOM     31  C   UNL     1       2.482   2.327  19.152  0.00  0.00    +0.000 C 
BRANCH  31  32
ATOM     32  C   UNL     1       3.149   1.703  17.933  0.00  0.00    +0.000 C 
BRANCH  32  33
ATOM     33  O   UNL     1       4.066   0.697  18.345  0.00  0.00    +0.000 OA
ATOM     34  H   UNL     1       4.869   0.788  17.804  0.00  0.00    +0.000 HD
ENDBRANCH  32  33
ENDBRANCH  31  32
ENDBRANCH  30  31
ENDBRANCH  29  30
ENDBRANCH   1  29
TORSDOF 10
ENDMDL
