MODEL 1
REMARK VINA RESULT:      -7.0      0.000      0.000
REMARK  Name = 
REMARK  5 active torsions:
REMARK  status: ('A' for Active; 'I' for Inactive)
REMARK    1  A    between atoms: C_2  and  C_3
REMARK    2  A    between atoms: C_3  and  C_4
REMARK    3  A    between atoms: C_5  and  O_6
REMARK    4  A    between atoms: C_8  and  O_9
REMARK    5  A    between atoms: C_14  and  C_15
REMARK                            x       y       z     vdW  Elec       q    Type
REMARK                         _______ _______ _______ _____ _____    ______ ____
ROOT
ATOM      1  C   UNL     1       2.350   3.756  18.499  0.00  0.00    +0.000 A 
ATOM      2  C   UNL     1       2.992   2.556  18.159  0.00  0.00    +0.000 A 
ATOM      3  C   UNL     1       4.168   2.546  17.413  0.00  0.00    +0.000 A 
ATOM      4  C   UNL     1       4.730   3.742  16.979  0.00  0.00    +0.000 A 
ATOM      5  C   UNL     1       4.119   4.962  17.295  0.00  0.00    +0.000 A 
ATOM      6  C   UNL     1       4.682   6.260  16.858  0.00  0.00    +0.000 A 
ATOM      7  O   UNL     1       5.697   6.398  16.192  0.00  0.00    +0.000 OA
ATOM      8  C   UNL     1       3.948   7.464  17.274  0.00  0.00    +0.000 A 
ATOM      9  C   UNL     1       2.828   7.348  17.992  0.00  0.00    +0.000 A 
ATOM     10  C   UNL     1       2.051   8.549  18.439  0.00  0.00    +0.000 C 
ATOM     11  O   UNL     1       2.285   6.137  18.385  0.00  0.00    +0.000 OA
ATOM     12  C   UNL     1       2.933   4.966  18.049  0.00  0.00    +0.000 A 
ENDROOT
BRANCH   2  13
ATOM     13  O   UNL     1       2.535   1.320  18.527  0.00  0.00    +0.000 OA
ATOM     14  H   UNL     1       2.638   1.197  19.483  0.00  0.00    +0.000 HD
ENDBRANCH   2  13
BRANCH   4  15
ATOM     15  O   UNL     1       5.878   3.698  16.243  0.00  0.00    +0.000 OA
ATOM     16  H   UNL     1       6.185   4.596  16.043  0.00  0.00    +0.000 HD
ENDBRANCH   4  15
BRANCH   1  17
ATOM     17  C   UNL     1       1.062   3.774  19.294  0.00  0.00    +0.000 C 
BRANCH  17  19
ATOM     18  C   UNL     1       1.472   2.740  21.560  0.00  0.00    +0.000 C 
ATOM     19  C   UNL     1       1.306   3.816  20.778  0.00  0.00    +0.000 C 
ENDBRANCH  17  19
ENDBRANCH   1  17
TORSDOF 4
ENDMDL
MODEL 2
REMARK VINA RESULT:      -6.4      1.517      4.328
REMARK  Name = 
REMARK  5 active torsions:
REMARK  status: ('A' for Active; 'I' for Inactive)
REMARK    1  A    between atoms: C_2  and  C_3
REMARK    2  A    between atoms: C_3  and  C_4
REMARK    3  A    between atoms: C_5  and  O_6
REMARK    4  A    between atoms: C_8  and  O_9
REMARK    5  A    between atoms: C_14  and  C_15
REMARK                            x       y       z     vdW  Elec       q    Type
REMARK                         _______ _______ _______ _____ _____    ______ ____
ROOT
ATOM      1  C   UNL     1       4.348   4.947  17.606  0.00  0.00    +0.000 A 
ATOM      2  C   UNL     1       4.648   3.692  17.056  0.00  0.00    +0.000 A 
ATOM      3  C   UNL     1       3.963   2.544  17.447  0.00  0.00    +0.000 A 
ATOM      4  C   UNL     1       2.962   2.623  18.411  0.00  0.00    +0.000 A 
ATOM      5  C   UNL     1       2.635   3.856  18.987  0.00  0.00    +0.000 A 
ATOM      6  C   UNL     1       1.575   3.989  20.012  0.00  0.00    +0.000 A 
ATOM      7  O   UNL     1       0.906   3.067  20.455  0.00  0.00    +0.000 OA
ATOM      8  C   UNL     1       1.323   5.346  20.520  0.00  0.00    +0.000 A 
ATOM      9  C   UNL     1       2.046   6.373  20.067  0.00  0.00    +0.000 A 
ATOM     10  C   UNL     1       1.819   7.771  20.555  0.00  0.00    +0.000 C 
ATOM     11  O   UNL     1       3.052   6.252  19.124  0.00  0.00    +0.000 OA
ATOM     12  C   UNL     1       3.329   5.011  18.587  0.00  0.00    +0.000 A 
ENDROOT
BRANCH   2  13
ATOM     13  O   UNL     1       5.609   3.490  16.104  0.00  0.00    +0.000 OA
ATOM     14  H   UNL     1       6.490   3.632  16.483  0.00  0.00    +0.000 HD
ENDBRANCH   2  13
BRANCH   4  15
ATOM     15  O   UNL     1       2.315   1.479  18.778  0.00  0.00    +0.000 OA
ATOM     16  H   UNL     1       1.357   1.627  18.805  0.00  0.00    +0.000 HD
ENDBRANCH   4  15
BRANCH   1  17
ATOM     17  C   UNL     1       5.101   6.196  17.199  0.00  0.00    +0.000 C 
BRANCH  17  19
ATOM     18  C   UNL     1       7.424   7.133  17.509  0.00  0.00    +0.000 C 
ATOM     19  C   UNL     1       6.439   6.304  17.880  0.00  0.00    +0.000 C 
ENDBRANCH  17  19
ENDBRANCH   1  17
TORSDOF 4
ENDMDL
MODEL 3
REMARK VINA RESULT:      -6.2      1.509      4.725
REMARK  Name = 
REMARK  5 active torsions:
REMARK  status: ('A' for Active; 'I' for Inactive)
REMARK    1  A    between atoms: C_2  and  C_3
REMARK    2  A    between atoms: C_3  and  C_4
REMARK    3  A    between atoms: C_5  and  O_6
REMARK    4  A    between atoms: C_8  and  O_9
REMARK    5  A    between atoms: C_14  and  C_15
REMARK                            x       y       z     vdW  Elec       q    Type
REMARK                         _______ _______ _______ _____ _____    ______ ____
ROOT
ATOM      1  C   UNL     1       2.848   6.271  19.012  0.00  0.00    +0.000 A 
ATOM      2  C   UNL     1       2.091   6.103  20.181  0.00  0.00    +0.000 A 
ATOM      3  C   UNL     1       1.808   4.837  20.688  0.00  0.00    +0.000 A 
ATOM      4  C   UNL     1       2.270   3.702  20.031  0.00  0.00    +0.000 A 
ATOM      5  C   UNL     1       3.026   3.826  18.859  0.00  0.00    +0.000 A 
ATOM      6  C   UNL     1       3.542   2.647  18.126  0.00  0.00    +0.000 A 
ATOM      7  O   UNL     1       3.359   1.483  18.451  0.00  0.00    +0.000 OA
ATOM      8  C   UNL     1       4.336   2.923  16.920  0.00  0.00    +0.000 A 
ATOM      9  C   UNL     1       4.543   4.183  16.531  0.00  0.00    +0.000 A 
ATOM     10  C   UNL     1       5.349   4.507  15.310  0.00  0.00    +0.000 C 
ATOM     11  O   UNL     1       4.045   5.289  17.199  0.00  0.00    +0.000 OA
ATOM     12  C   UNL     1       3.309   5.106  18.352  0.00  0.00    +0.000 A 
ENDROOT
BRANCH   2  13
ATOM     13  O   UNL     1       1.584   7.142  20.913  0.00  0.00    +0.000 OA
ATOM     14  H   UNL     1       2.132   7.297  21.697  0.00  0.00    +0.000 HD
ENDBRANCH   2  13
BRANCH   4  15
ATOM     15  O   UNL     1       1.969   2.476  20.549  0.00  0.00    +0.000 OA
ATOM     16  H   UNL     1       1.185   2.533  21.117  0.00  0.00    +0.000 HD
ENDBRANCH   4  15
BRANCH   1  17
ATOM     17  C   UNL     1       3.144   7.643  18.444  0.00  0.00    +0.000 C 
BRANCH  17  19
ATOM     18  C   UNL     1       1.536   9.516  17.918  0.00  0.00    +0.000 C 
ATOM     19  C   UNL     1       1.947   8.250  17.764  0.00  0.00    +0.000 C 
ENDBRANCH  17  19
ENDBRANCH   1  17
TORSDOF 4
ENDMDL
MODEL 4
REMARK VINA RESULT:      -6.1      1.390      1.518
REMARK  Name = 
REMARK  5 active torsions:
REMARK  status: ('A' for Active; 'I' for Inactive)
REMARK    1  A    between atoms: C_2  and  C_3
REMARK    2  A    between atoms: C_3  and  C_4
REMARK    3  A    between atoms: C_5  and  O_6
REMARK    4  A    between atoms: C_8  and  O_9
REMARK    5  A    between atoms: C_14  and  C_15
REMARK                            x       y       z     vdW  Elec       q    Type
REMARK                         _______ _______ _______ _____ _____    ______ ____
ROOT
ATOM      1  C   UNL     1       3.056   4.568  19.762  0.00  0.00    +0.000 A 
ATOM      2  C   UNL     1       3.923   3.473  19.887  0.00  0.00    +0.000 A 
ATOM      3  C   UNL     1       5.093   3.383  19.136  0.00  0.00    +0.000 A 
ATOM      4  C   UNL     1       5.421   4.386  18.230  0.00  0.00    +0.000 A 
ATOM      5  C   UNL     1       4.580   5.495  18.073  0.00  0.00    +0.000 A 
ATOM      6  C   UNL     1       4.889   6.589  17.125  0.00  0.00    +0.000 A 
ATOM      7  O   UNL     1       5.871   6.633  16.398  0.00  0.00    +0.000 OA
ATOM      8  C   UNL     1       3.929   7.701  17.073  0.00  0.00    +0.000 A 
ATOM      9  C   UNL     1       2.839   7.677  17.845  0.00  0.00    +0.000 A 
ATOM     10  C   UNL     1       1.837   8.792  17.826  0.00  0.00    +0.000 C 
ATOM     11  O   UNL     1       2.533   6.648  18.718  0.00  0.00    +0.000 OA
ATOM     12  C   UNL     1       3.402   5.581  18.834  0.00  0.00    +0.000 A 
ENDROOT
BRANCH   2  13
ATOM     13  O   UNL     1       3.707   2.427  20.742  0.00  0.00    +0.000 OA
ATOM     14  H   UNL     1       2.806   2.466  21.096  0.00  0.00    +0.000 HD
ENDBRANCH   2  13
BRANCH   4  15
ATOM     15  O   UNL     1       6.569   4.264  17.504  0.00  0.00    +0.000 OA
ATOM     16  H   UNL     1       7.240   4.888  17.824  0.00  0.00    +0.000 HD
ENDBRANCH   4  15
BRANCH   1  17
ATOM     17  C   UNL     1       1.773   4.665  20.561  0.00  0.00    +0.000 C 
BRANCH  17  19
ATOM     18  C   UNL     1       0.709   3.033  18.956  0.00  0.00    +0.000 C 
ATOM     19  C   UNL     1       0.770   3.617  20.160  0.00  0.00    +0.000 C 
ENDBRANCH  17  19
ENDBRANCH   1  17
TORSDOF 4
ENDMDL
MODEL 5
REMARK VINA RESULT:      -6.1      2.980      5.112
REMARK  Name = 
REMARK  5 active torsions:
REMARK  status: ('A' for Active; 'I' for Inactive)
REMARK    1  A    between atoms: C_2  and  C_3
REMARK    2  A    between atoms: C_3  and  C_4
REMARK    3  A    between atoms: C_5  and  O_6
REMARK    4  A    between atoms: C_8  and  O_9
REMARK    5  A    between atoms: C_14  and  C_15
REMARK                            x       y       z     vdW  Elec       q    Type
REMARK                         _______ _______ _______ _____ _____    ______ ____
ROOT
ATOM      1  C   UNL     1       2.113   6.923  19.887  0.00  0.00    +0.000 A 
ATOM      2  C   UNL     1       2.654   6.835  18.596  0.00  0.00    +0.000 A 
ATOM      3  C   UNL     1       2.617   7.915  17.717  0.00  0.00    +0.000 A 
ATOM      4  C   UNL     1       2.027   9.113  18.107  0.00  0.00    +0.000 A 
ATOM      5  C   UNL     1       1.472   9.240  19.386  0.00  0.00    +0.000 A 
ATOM      6  C   UNL     1       0.837  10.496  19.846  0.00  0.00    +0.000 A 
ATOM      7  O   UNL     1       0.725  11.514  19.178  0.00  0.00    +0.000 OA
ATOM      8  C   UNL     1       0.310  10.498  21.219  0.00  0.00    +0.000 A 
ATOM      9  C   UNL     1       0.405   9.399  21.971  0.00  0.00    +0.000 A 
ATOM     10  C   UNL     1      -0.116   9.359  23.376  0.00  0.00    +0.000 C 
ATOM     11  O   UNL     1       0.978   8.215  21.540  0.00  0.00    +0.000 OA
ATOM     12  C   UNL     1       1.513   8.148  20.269  0.00  0.00    +0.000 A 
ENDROOT
BRANCH   2  13
ATOM     13  O   UNL     1       3.258   5.712  18.101  0.00  0.00    +0.000 OA
ATOM     14  H   UNL     1       4.222   5.806  18.141  0.00  0.00    +0.000 HD
ENDBRANCH   2  13
BRANCH   4  15
ATOM     15  O   UNL     1       2.000  10.149  17.219  0.00  0.00    +0.000 OA
ATOM     16  H   UNL     1       2.326   9.860  16.353  0.00  0.00    +0.000 HD
ENDBRANCH   4  15
BRANCH   1  17
ATOM     17  C   UNL     1       2.132   5.748  20.842  0.00  0.00    +0.000 C 
BRANCH  17  19
ATOM     18  C   UNL     1       1.238   3.388  20.788  0.00  0.00    +0.000 C 
ATOM     19  C   UNL     1       1.141   4.683  20.458  0.00  0.00    +0.000 C 
ENDBRANCH  17  19
ENDBRANCH   1  17
TORSDOF 4
ENDMDL
MODEL 6
REMARK VINA RESULT:      -6.1      1.592      5.319
REMARK  Name = 
REMARK  5 active torsions:
REMARK  status: ('A' for Active; 'I' for Inactive)
REMARK    1  A    between atoms: C_2  and  C_3
REMARK    2  A    between atoms: C_3  and  C_4
REMARK    3  A    between atoms: C_5  and  O_6
REMARK    4  A    between atoms: C_8  and  O_9
REMARK    5  A    between atoms: C_14  and  C_15
REMARK                            x       y       z     vdW  Elec       q    Type
REMARK                         _______ _______ _______ _____ _____    ______ ____
ROOT
ATOM      1  C   UNL     1       4.785   5.166  16.661  0.00  0.00    +0.000 A 
ATOM      2  C   UNL     1       4.668   6.558  16.530  0.00  0.00    +0.000 A 
ATOM      3  C   UNL     1       3.846   7.301  17.374  0.00  0.00    +0.000 A 
ATOM      4  C   UNL     1       3.111   6.666  18.370  0.00  0.00    +0.000 A 
ATOM      5  C   UNL     1       3.197   5.278  18.531  0.00  0.00    +0.000 A 
ATOM      6  C   UNL     1       2.436   4.559  19.579  0.00  0.00    +0.000 A 
ATOM      7  O   UNL     1       1.672   5.083  20.377  0.00  0.00    +0.000 OA
ATOM      8  C   UNL     1       2.633   3.104  19.648  0.00  0.00    +0.000 A 
ATOM      9  C   UNL     1       3.450   2.499  18.782  0.00  0.00    +0.000 A 
ATOM     10  C   UNL     1       3.682   1.020  18.820  0.00  0.00    +0.000 C 
ATOM     11  O   UNL     1       4.148   3.163  17.787  0.00  0.00    +0.000 OA
ATOM     12  C   UNL     1       4.028   4.533  17.678  0.00  0.00    +0.000 A 
ENDROOT
BRANCH   2  13
ATOM     13  O   UNL     1       5.340   7.291  15.590  0.00  0.00    +0.000 OA
ATOM     14  H   UNL     1       5.211   6.904  14.711  0.00  0.00    +0.000 HD
ENDBRANCH   2  13
BRANCH   4  15
ATOM     15  O   UNL     1       2.309   7.422  19.175  0.00  0.00    +0.000 OA
ATOM     16  H   UNL     1       1.985   6.893  19.921  0.00  0.00    +0.000 HD
ENDBRANCH   4  15
BRANCH   1  17
ATOM     17  C   UNL     1       5.661   4.349  15.735  0.00  0.00    +0.000 C 
BRANCH  17  19
ATOM     18  C   UNL     1       7.545   4.579  17.399  0.00  0.00    +0.000 C 
ATOM     19  C   UNL     1       7.107   4.372  16.150  0.00  0.00    +0.000 C 
ENDBRANCH  17  19
ENDBRANCH   1  17
TORSDOF 4
ENDMDL
MODEL 7
REMARK VINA RESULT:      -6.1      1.615      2.127
REMARK  Name = 
REMARK  5 active torsions:
REMARK  status: ('A' for Active; 'I' for Inactive)
REMARK    1  A    between atoms: C_2  and  C_3
REMARK    2  A    between atoms: C_3  and  C_4
REMARK    3  A    between atoms: C_5  and  O_6
REMARK    4  A    between atoms: C_8  and  O_9
REMARK    5  A    between atoms: C_14  and  C_15
REMARK                            x       y       z     vdW  Elec       q    Type
REMARK                         _______ _______ _______ _____ _____    ______ ____
ROOT
ATOM      1  C   UNL     1       3.237   4.167  19.889  0.00  0.00    +0.000 A 
ATOM      2  C   UNL     1       4.052   3.432  19.015  0.00  0.00    +0.000 A 
ATOM      3  C   UNL     1       4.537   3.988  17.834  0.00  0.00    +0.000 A 
ATOM      4  C   UNL     1       4.211   5.297  17.492  0.00  0.00    +0.000 A 
ATOM      5  C   UNL     1       3.398   6.062  18.336  0.00  0.00    +0.000 A 
ATOM      6  C   UNL     1       3.028   7.460  18.016  0.00  0.00    +0.000 A 
ATOM      7  O   UNL     1       3.372   8.066  17.012  0.00  0.00    +0.000 OA
ATOM      8  C   UNL     1       2.182   8.154  18.999  0.00  0.00    +0.000 A 
ATOM      9  C   UNL     1       1.777   7.515  20.100  0.00  0.00    +0.000 A 
ATOM     10  C   UNL     1       0.918   8.187  21.128  0.00  0.00    +0.000 C 
ATOM     11  O   UNL     1       2.103   6.203  20.394  0.00  0.00    +0.000 OA
ATOM     12  C   UNL     1       2.912   5.497  19.527  0.00  0.00    +0.000 A 
ENDROOT
BRANCH   2  13
ATOM     13  O   UNL     1       4.438   2.139  19.243  0.00  0.00    +0.000 OA
ATOM     14  H   UNL     1       3.663   1.585  19.419  0.00  0.00    +0.000 HD
ENDBRANCH   2  13
BRANCH   4  15
ATOM     15  O   UNL     1       4.697   5.809  16.324  0.00  0.00    +0.000 OA
ATOM     16  H   UNL     1       3.985   5.893  15.671  0.00  0.00    +0.000 HD
ENDBRANCH   4  15
BRANCH   1  17
ATOM     17  C   UNL     1       2.690   3.563  21.166  0.00  0.00    +0.000 C 
BRANCH  17  19
ATOM     18  C   UNL     1       0.648   2.907  19.834  0.00  0.00    +0.000 C 
ATOM     19  C   UNL     1       1.402   2.820  20.940  0.00  0.00    +0.000 C 
ENDBRANCH  17  19
ENDBRANCH   1  17
TORSDOF 4
ENDMDL
MODEL 8
REMARK VINA RESULT:      -6.0      1.859      3.715
REMARK  Name = 
REMARK  5 active torsions:
REMARK  status: ('A' for Active; 'I' for Inactive)
REMARK    1  A    between atoms: C_2  and  C_3
REMARK    2  A    between atoms: C_3  and  C_4
REMARK    3  A    between atoms: C_5  and  O_6
REMARK    4  A    between atoms: C_8  and  O_9
REMARK    5  A    between atoms: C_14  and  C_15
REMARK                            x       y       z     vdW  Elec       q    Type
REMARK                         _______ _______ _______ _____ _____    ______ ____
ROOT
ATOM      1  C   UNL     1       3.495   3.951  19.605  0.00  0.00    +0.000 A 
ATOM      2  C   UNL     1       2.594   4.251  20.637  0.00  0.00    +0.000 A 
ATOM      3  C   UNL     1       2.006   5.509  20.747  0.00  0.00    +0.000 A 
ATOM      4  C   UNL     1       2.313   6.506  19.827  0.00  0.00    +0.000 A 
ATOM      5  C   UNL     1       3.210   6.248  18.783  0.00  0.00    +0.000 A 
ATOM      6  C   UNL     1       3.564   7.276  17.778  0.00  0.00    +0.000 A 
ATOM      7  O   UNL     1       3.134   8.420  17.761  0.00  0.00    +0.000 OA
ATOM      8  C   UNL     1       4.505   6.866  16.726  0.00  0.00    +0.000 A 
ATOM      9  C   UNL     1       5.004   5.627  16.723  0.00  0.00    +0.000 A 
ATOM     10  C   UNL     1       5.963   5.167  15.668  0.00  0.00    +0.000 C 
ATOM     11  O   UNL     1       4.694   4.668  17.672  0.00  0.00    +0.000 OA
ATOM     12  C   UNL     1       3.799   4.977  18.677  0.00  0.00    +0.000 A 
ENDROOT
BRANCH   2  13
ATOM     13  O   UNL     1       2.216   3.355  21.600  0.00  0.00    +0.000 OA
ATOM     14  H   UNL     1       2.999   2.973  22.026  0.00  0.00    +0.000 HD
ENDBRANCH   2  13
BRANCH   4  15
ATOM     15  O   UNL     1       1.726   7.730  19.966  0.00  0.00    +0.000 OA
ATOM     16  H   UNL     1       2.398   8.429  19.960  0.00  0.00    +0.000 HD
ENDBRANCH   4  15
BRANCH   1  17
ATOM     17  C   UNL     1       4.152   2.592  19.490  0.00  0.00    +0.000 C 
BRANCH  17  19
ATOM     18  C   UNL     1       2.414   2.011  17.754  0.00  0.00    +0.000 C 
ATOM     19  C   UNL     1       3.359   1.645  18.631  0.00  0.00    +0.000 C 
ENDBRANCH  17  19
ENDBRANCH   1  17
TORSDOF 4
ENDMDL
MODEL 9
REMARK VINA RESULT:      -6.0      1.992      4.591
REMARK  Name = 
REMARK  5 active torsions:
REMARK  status: ('A' for Active; 'I' for Inactive)
REMARK    1  A    between atoms: C_2  and  C_3
REMARK    2  A    between atoms: C_3  and  C_4
REMARK    3  A    between atoms: C_5  and  O_6
REMARK    4  A    between atoms: C_8  and  O_9
REMARK    5  A    between atoms: C_14  and  C_15
REMARK                            x       y       z     vdW  Elec       q    Type
REMARK                         _______ _______ _______ _____ _____    ______ ____
ROOT
ATOM      1  C   UNL     1       5.970   6.069  16.893  0.00  0.00    +0.000 A 
ATOM      2  C   UNL     1       6.568   4.818  16.685  0.00  0.00    +0.000 A 
ATOM      3  C   UNL     1       5.870   3.633  16.905  0.00  0.00    +0.000 A 
ATOM      4  C   UNL     1       4.552   3.670  17.348  0.00  0.00    +0.000 A 
ATOM      5  C   UNL     1       3.920   4.899  17.570  0.00  0.00    +0.000 A 
ATOM      6  C   UNL     1       2.518   4.989  18.038  0.00  0.00    +0.000 A 
ATOM      7  O   UNL     1       1.795   4.033  18.281  0.00  0.00    +0.000 OA
ATOM      8  C   UNL     1       1.972   6.342  18.214  0.00  0.00    +0.000 A 
ATOM      9  C   UNL     1       2.739   7.408  17.971  0.00  0.00    +0.000 A 
ATOM     10  C   UNL     1       2.222   8.805  18.134  0.00  0.00    +0.000 C 
ATOM     11  O   UNL     1       4.057   7.331  17.554  0.00  0.00    +0.000 OA
ATOM     12  C   UNL     1       4.628   6.091  17.346  0.00  0.00    +0.000 A 
ENDROOT
BRANCH   2  13
ATOM     13  O   UNL     1       7.856   4.654  16.252  0.00  0.00    +0.000 OA
ATOM     14  H   UNL     1       8.470   4.715  17.000  0.00  0.00    +0.000 HD
ENDBRANCH   2  13
BRANCH   4  15
ATOM     15  O   UNL     1       3.899   2.491  17.561  0.00  0.00    +0.000 OA
ATOM     16  H   UNL     1       3.413   2.226  16.765  0.00  0.00    +0.000 HD
ENDBRANCH   4  15
BRANCH   1  17
ATOM     17  C   UNL     1       6.728   7.362  16.675  0.00  0.00    +0.000 C 
BRANCH  17  19
ATOM     18  C   UNL     1       8.241   8.835  18.058  0.00  0.00    +0.000 C 
ATOM     19  C   UNL     1       7.723   7.632  17.770  0.00  0.00    +0.000 C 
ENDBRANCH  17  19
ENDBRANCH   1  17
TORSDOF 4
ENDMDL
