MODEL 1
REMARK VINA RESULT:      -6.2      0.000      0.000
REMARK  Name = 
REMARK  6 active torsions:
REMARK  status: ('A' for Active; 'I' for Inactive)
REMARK    1  A    between atoms: C_1  and  C_2
REMARK    2  A    between atoms: C_3  and  C_4
REMARK    3  A    between atoms: C_14  and  C_15
REMARK    4  A    between atoms: C_15  and  C_16
REMARK    5  A    between atoms: C_15  and  C_17
REMARK    6  A    between atoms: N_20  and  C_21
REMARK                            x       y       z     vdW  Elec       q    Type
REMARK                         _______ _______ _______ _____ _____    ______ ____
ROOT
ATOM      1  C   UNL     1       3.444   7.439  18.062  0.00  0.00    +0.000 C 
ATOM      2  O   UNL     1       4.575   7.899  17.921  0.00  0.00    +0.000 OA
ATOM      3  N   UNL     1       3.150   6.100  17.980  0.00  0.00    +0.000 N 
ATOM      4  C   UNL     1       1.987   5.350  18.445  0.00  0.00    +0.000 C 
ATOM      5  C   UNL     1       2.874   4.089  18.200  0.00  0.00    +0.000 C 
ATOM      6  C   UNL     1       2.082   2.893  17.654  0.00  0.00    +0.000 C 
ATOM      7  C   UNL     1       1.283   2.211  18.768  0.00  0.00    +0.000 C 
ATOM      8  C   UNL     1       2.178   1.804  19.935  0.00  0.00    +0.000 C 
ATOM      9  C   UNL     1       2.924   3.013  20.487  0.00  0.00    +0.000 C 
ATOM     10  C   UNL     1       3.758   3.681  19.396  0.00  0.00    +0.000 C 
ATOM     11  C   UNL     1       3.572   5.002  17.099  0.00  0.00    +0.000 C 
ENDROOT
BRANCH   1  14
ATOM     12  C   UNL     1       1.679   7.914  20.868  0.00  0.00    +0.000 C 
ATOM     13  C   UNL     1       1.597   8.514  19.517  0.00  0.00    +0.000 A 
ATOM     14  C   UNL     1       2.289   8.297  18.334  0.00  0.00    +0.000 A 
ATOM     15  N   UNL     1       1.771   9.129  17.365  0.00  0.00    +0.000 NA
ATOM     16  N   UNL     1       0.796   9.842  17.898  0.00  0.00    +0.000 NA
ATOM     17  N   UNL     1       0.712   9.506  19.188  0.00  0.00    +0.000 N 
ATOM     18  C   UNL     1      -0.223  10.201  20.040  0.00  0.00    +0.000 C 
ENDBRANCH   1  14
BRANCH  11  19
ATOM     19  C   UNL     1       5.054   4.910  16.736  0.00  0.00    +0.000 C 
ATOM     20  C   UNL     1       5.368   5.832  15.549  0.00  0.00    +0.000 C 
ATOM     21  C   UNL     1       5.378   3.475  16.292  0.00  0.00    +0.000 C 
ENDBRANCH  11  19
TORSDOF 2
ENDMDL
MODEL 2
REMARK VINA RESULT:      -6.1      1.931      3.994
REMARK  Name = 
REMARK  6 active torsions:
REMARK  status: ('A' for Active; 'I' for Inactive)
REMARK    1  A    between atoms: C_1  and  C_2
REMARK    2  A    between atoms: C_3  and  C_4
REMARK    3  A    between atoms: C_14  and  C_15
REMARK    4  A    between atoms: C_15  and  C_16
REMARK    5  A    between atoms: C_15  and  C_17
REMARK    6  A    between atoms: N_20  and  C_21
REMARK                            x       y       z     vdW  Elec       q    Type
REMARK                         _______ _______ _______ _____ _____    ______ ____
ROOT
ATOM      1  C   UNL     1       1.835   5.908  19.956  0.00  0.00    +0.000 C 
ATOM      2  O   UNL     1       0.907   5.115  20.104  0.00  0.00    +0.000 OA
ATOM      3  N   UNL     1       3.101   5.537  19.575  0.00  0.00    +0.000 N 
ATOM      4  C   UNL     1       4.200   6.326  19.026  0.00  0.00    +0.000 C 
ATOM      5  C   UNL     1       4.830   4.944  18.665  0.00  0.00    +0.000 C 
ATOM      6  C   UNL     1       6.356   4.916  18.831  0.00  0.00    +0.000 C 
ATOM      7  C   UNL     1       7.046   5.624  17.662  0.00  0.00    +0.000 C 
ATOM      8  C   UNL     1       6.619   5.041  16.318  0.00  0.00    +0.000 C 
ATOM      9  C   UNL     1       5.104   5.114  16.158  0.00  0.00    +0.000 C 
ATOM     10  C   UNL     1       4.401   4.378  17.296  0.00  0.00    +0.000 C 
ATOM     11  C   UNL     1       4.000   4.427  19.922  0.00  0.00    +0.000 C 
ENDROOT
BRANCH   1  14
ATOM     12  C   UNL     1       1.814   8.472  17.801  0.00  0.00    +0.000 C 
ATOM     13  C   UNL     1       1.617   8.390  19.267  0.00  0.00    +0.000 A 
ATOM     14  C   UNL     1       1.666   7.345  20.178  0.00  0.00    +0.000 A 
ATOM     15  N   UNL     1       1.428   7.852  21.438  0.00  0.00    +0.000 NA
ATOM     16  N   UNL     1       1.236   9.154  21.340  0.00  0.00    +0.000 NA
ATOM     17  N   UNL     1       1.312   9.475  20.046  0.00  0.00    +0.000 N 
ATOM     18  C   UNL     1       1.053  10.835  19.638  0.00  0.00    +0.000 C 
ENDBRANCH   1  14
BRANCH  11  19
ATOM     19  C   UNL     1       3.397   3.027  20.022  0.00  0.00    +0.000 C 
ATOM     20  C   UNL     1       2.749   2.825  21.399  0.00  0.00    +0.000 C 
ATOM     21  C   UNL     1       4.516   1.983  19.892  0.00  0.00    +0.000 C 
ENDBRANCH  11  19
TORSDOF 2
ENDMDL
MODEL 3
REMARK VINA RESULT:      -5.8      9.212     10.966
REMARK  Name = 
REMARK  6 active torsions:
REMARK  status: ('A' for Active; 'I' for Inactive)
REMARK    1  A    between atoms: C_1  and  C_2
REMARK    2  A    between atoms: C_3  and  C_4
REMARK    3  A    between atoms: C_14  and  C_15
REMARK    4  A    between atoms: C_15  and  C_16
REMARK    5  A    between atoms: C_15  and  C_17
REMARK    6  A    between atoms: N_20  and  C_21
REMARK                            x       y       z     vdW  Elec       q    Type
REMARK                         _______ _______ _______ _____ _____    ______ ____
ROOT
ATOM      1  C   UNL     1       7.735  16.017  19.129  0.00  0.00    +0.000 C 
ATOM      2  O   UNL     1       7.902  17.149  19.578  0.00  0.00    +0.000 OA
ATOM      3  N   UNL     1       8.758  15.216  18.682  0.00  0.00    +0.000 N 
ATOM      4  C   UNL     1       8.809  13.776  18.451  0.00  0.00    +0.000 C 
ATOM      5  C   UNL     1      10.355  13.980  18.384  0.00  0.00    +0.000 C 
ATOM      6  C   UNL     1      11.036  13.086  17.339  0.00  0.00    +0.000 C 
ATOM      7  C   UNL     1      11.169  11.648  17.851  0.00  0.00    +0.000 C 
ATOM      8  C   UNL     1      11.894  11.593  19.192  0.00  0.00    +0.000 C 
ATOM      9  C   UNL     1      11.179  12.456  20.226  0.00  0.00    +0.000 C 
ATOM     10  C   UNL     1      11.075  13.902  19.747  0.00  0.00    +0.000 C 
ATOM     11  C   UNL     1       9.972  15.441  17.884  0.00  0.00    +0.000 C 
ENDROOT
BRANCH   1  14
ATOM     12  C   UNL     1       5.546  15.132  21.503  0.00  0.00    +0.000 C 
ATOM     13  C   UNL     1       5.493  15.092  20.023  0.00  0.00    +0.000 A 
ATOM     14  C   UNL     1       6.406  15.412  19.029  0.00  0.00    +0.000 A 
ATOM     15  N   UNL     1       5.828  15.152  17.805  0.00  0.00    +0.000 NA
ATOM     16  N   UNL     1       4.608  14.688  18.003  0.00  0.00    +0.000 NA
ATOM     17  N   UNL     1       4.391  14.683  19.321  0.00  0.00    +0.000 N 
ATOM     18  C   UNL     1       3.092  14.301  19.821  0.00  0.00    +0.000 C 
ENDBRANCH   1  14
BRANCH  11  19
ATOM     19  C   UNL     1      10.803  16.687  18.187  0.00  0.00    +0.000 C 
ATOM     20  C   UNL     1      10.294  17.878  17.363  0.00  0.00    +0.000 C 
ATOM     21  C   UNL     1      12.260  16.438  17.768  0.00  0.00    +0.000 C 
ENDBRANCH  11  19
TORSDOF 2
ENDMDL
MODEL 4
REMARK VINA RESULT:      -5.8      1.997      5.050
REMARK  Name = 
REMARK  6 active torsions:
REMARK  status: ('A' for Active; 'I' for Inactive)
REMARK    1  A    between atoms: C_1  and  C_2
REMARK    2  A    between atoms: C_3  and  C_4
REMARK    3  A    between atoms: C_14  and  C_15
REMARK    4  A    between atoms: C_15  and  C_16
REMARK    5  A    between atoms: C_15  and  C_17
REMARK    6  A    between atoms: N_20  and  C_21
REMARK                            x       y       z     vdW  Elec       q    Type
REMARK                         _______ _______ _______ _____ _____    ______ ____
ROOT
ATOM      1  C   UNL     1       3.630   6.966  17.624  0.00  0.00    +0.000 C 
ATOM      2  O   UNL     1       2.989   7.870  17.091  0.00  0.00    +0.000 OA
ATOM      3  N   UNL     1       3.200   6.279  18.733  0.00  0.00    +0.000 N 
ATOM      4  C   UNL     1       3.627   4.996  19.283  0.00  0.00    +0.000 C 
ATOM      5  C   UNL     1       2.327   5.087  20.142  0.00  0.00    +0.000 C 
ATOM      6  C   UNL     1       2.504   4.537  21.564  0.00  0.00    +0.000 C 
ATOM      7  C   UNL     1       2.491   3.006  21.564  0.00  0.00    +0.000 C 
ATOM      8  C   UNL     1       1.231   2.453  20.903  0.00  0.00    +0.000 C 
ATOM      9  C   UNL     1       1.095   2.981  19.479  0.00  0.00    +0.000 C 
ATOM     10  C   UNL     1       1.066   4.508  19.466  0.00  0.00    +0.000 C 
ATOM     11  C   UNL     1       2.537   6.658  19.989  0.00  0.00    +0.000 C 
ENDROOT
BRANCH   1  14
ATOM     12  C   UNL     1       4.519   4.219  15.928  0.00  0.00    +0.000 C 
ATOM     13  C   UNL     1       5.274   5.413  16.372  0.00  0.00    +0.000 A 
ATOM     14  C   UNL     1       4.932   6.536  17.112  0.00  0.00    +0.000 A 
ATOM     15  N   UNL     1       6.053   7.326  17.251  0.00  0.00    +0.000 NA
ATOM     16  N   UNL     1       7.062   6.741  16.634  0.00  0.00    +0.000 NA
ATOM     17  N   UNL     1       6.596   5.619  16.078  0.00  0.00    +0.000 N 
ATOM     18  C   UNL     1       7.474   4.817  15.261  0.00  0.00    +0.000 C 
ENDBRANCH   1  14
BRANCH  11  19
ATOM     19  C   UNL     1       1.390   7.664  19.914  0.00  0.00    +0.000 C 
ATOM     20  C   UNL     1       1.930   9.061  19.576  0.00  0.00    +0.000 C 
ATOM     21  C   UNL     1       0.711   7.762  21.288  0.00  0.00    +0.000 C 
ENDBRANCH  11  19
TORSDOF 2
ENDMDL
MODEL 5
REMARK VINA RESULT:      -5.7      1.728      3.690
REMARK  Name = 
REMARK  6 active torsions:
REMARK  status: ('A' for Active; 'I' for Inactive)
REMARK    1  A    between atoms: C_1  and  C_2
REMARK    2  A    between atoms: C_3  and  C_4
REMARK    3  A    between atoms: C_14  and  C_15
REMARK    4  A    between atoms: C_15  and  C_16
REMARK    5  A    between atoms: C_15  and  C_17
REMARK    6  A    between atoms: N_20  and  C_21
REMARK                            x       y       z     vdW  Elec       q    Type
REMARK                         _______ _______ _______ _____ _____    ______ ____
ROOT
ATOM      1  C   UNL     1       2.066   5.986  18.859  0.00  0.00    +0.000 C 
ATOM      2  O   UNL     1       1.123   5.256  19.159  0.00  0.00    +0.000 OA
ATOM      3  N   UNL     1       3.344   5.530  18.646  0.00  0.00    +0.000 N 
ATOM      4  C   UNL     1       4.477   6.154  17.969  0.00  0.00    +0.000 C 
ATOM      5  C   UNL     1       5.107   4.726  18.003  0.00  0.00    +0.000 C 
ATOM      6  C   UNL     1       6.623   4.742  18.244  0.00  0.00    +0.000 C 
ATOM      7  C   UNL     1       7.376   5.129  16.968  0.00  0.00    +0.000 C 
ATOM      8  C   UNL     1       7.005   4.223  15.797  0.00  0.00    +0.000 C 
ATOM      9  C   UNL     1       5.501   4.252  15.550  0.00  0.00    +0.000 C 
ATOM     10  C   UNL     1       4.736   3.829  16.803  0.00  0.00    +0.000 C 
ATOM     11  C   UNL     1       4.213   4.545  19.307  0.00  0.00    +0.000 C 
ENDROOT
BRANCH   1  14
ATOM     12  C   UNL     1       1.140   8.342  21.051  0.00  0.00    +0.000 C 
ATOM     13  C   UNL     1       1.562   8.400  19.633  0.00  0.00    +0.000 A 
ATOM     14  C   UNL     1       1.905   7.432  18.700  0.00  0.00    +0.000 A 
ATOM     15  N   UNL     1       2.191   8.057  17.506  0.00  0.00    +0.000 NA
ATOM     16  N   UNL     1       2.039   9.359  17.663  0.00  0.00    +0.000 NA
ATOM     17  N   UNL     1       1.699   9.572  18.937  0.00  0.00    +0.000 N 
ATOM     18  C   UNL     1       1.552  10.927  19.412  0.00  0.00    +0.000 C 
ENDBRANCH   1  14
BRANCH  11  19
ATOM     19  C   UNL     1       3.589   3.216  19.731  0.00  0.00    +0.000 C 
ATOM     20  C   UNL     1       2.822   3.387  21.050  0.00  0.00    +0.000 C 
ATOM     21  C   UNL     1       4.705   2.191  19.986  0.00  0.00    +0.000 C 
ENDBRANCH  11  19
TORSDOF 2
ENDMDL
MODEL 6
REMARK VINA RESULT:      -5.6      9.185     10.965
REMARK  Name = 
REMARK  6 active torsions:
REMARK  status: ('A' for Active; 'I' for Inactive)
REMARK    1  A    between atoms: C_1  and  C_2
REMARK    2  A    between atoms: C_3  and  C_4
REMARK    3  A    between atoms: C_14  and  C_15
REMARK    4  A    between atoms: C_15  and  C_16
REMARK    5  A    between atoms: C_15  and  C_17
REMARK    6  A    between atoms: N_20  and  C_21
REMARK                            x       y       z     vdW  Elec       q    Type
REMARK                         _______ _______ _______ _____ _____    ______ ____
ROOT
ATOM      1  C   UNL     1       8.282  14.516  22.419  0.00  0.00    +0.000 C 
ATOM      2  O   UNL     1       8.583  15.561  22.990  0.00  0.00    +0.000 OA
ATOM      3  N   UNL     1       8.793  14.137  21.202  0.00  0.00    +0.000 N 
ATOM      4  C   UNL     1       8.833  12.832  20.550  0.00  0.00    +0.000 C 
ATOM      5  C   UNL     1       9.867  13.496  19.588  0.00  0.00    +0.000 C 
ATOM      6  C   UNL     1       9.731  13.020  18.135  0.00  0.00    +0.000 C 
ATOM      7  C   UNL     1      10.342  11.627  17.956  0.00  0.00    +0.000 C 
ATOM      8  C   UNL     1      11.793  11.584  18.426  0.00  0.00    +0.000 C 
ATOM      9  C   UNL     1      11.901  12.023  19.882  0.00  0.00    +0.000 C 
ATOM     10  C   UNL     1      11.331  13.427  20.069  0.00  0.00    +0.000 C 
ATOM     11  C   UNL     1       9.082  14.835  19.941  0.00  0.00    +0.000 C 
ENDROOT
BRANCH   1  14
ATOM     12  C   UNL     1       8.681  12.195  24.801  0.00  0.00    +0.000 C 
ATOM     13  C   UNL     1       7.505  12.638  24.018  0.00  0.00    +0.000 A 
ATOM     14  C   UNL     1       7.332  13.564  22.999  0.00  0.00    +0.000 A 
ATOM     15  N   UNL     1       6.009  13.548  22.614  0.00  0.00    +0.000 NA
ATOM     16  N   UNL     1       5.366  12.658  23.345  0.00  0.00    +0.000 NA
ATOM     17  N   UNL     1       6.244  12.138  24.207  0.00  0.00    +0.000 N 
ATOM     18  C   UNL     1       5.788  11.191  25.196  0.00  0.00    +0.000 C 
ENDBRANCH   1  14
BRANCH  11  19
ATOM     19  C   UNL     1       9.744  16.210  20.024  0.00  0.00    +0.000 C 
ATOM     20  C   UNL     1       8.676  17.309  20.112  0.00  0.00    +0.000 C 
ATOM     21  C   UNL     1      10.548  16.463  18.740  0.00  0.00    +0.000 C 
ENDBRANCH  11  19
TORSDOF 2
ENDMDL
MODEL 7
REMARK VINA RESULT:      -5.6      9.264     10.809
REMARK  Name = 
REMARK  6 active torsions:
REMARK  status: ('A' for Active; 'I' for Inactive)
REMARK    1  A    between atoms: C_1  and  C_2
REMARK    2  A    between atoms: C_3  and  C_4
REMARK    3  A    between atoms: C_14  and  C_15
REMARK    4  A    between atoms: C_15  and  C_16
REMARK    5  A    between atoms: C_15  and  C_17
REMARK    6  A    between atoms: N_20  and  C_21
REMARK                            x       y       z     vdW  Elec       q    Type
REMARK                         _______ _______ _______ _____ _____    ______ ____
ROOT
ATOM      1  C   UNL     1       8.298  16.609  19.440  0.00  0.00    +0.000 C 
ATOM      2  O   UNL     1       9.031  17.555  19.721  0.00  0.00    +0.000 OA
ATOM      3  N   UNL     1       8.758  15.399  18.979  0.00  0.00    +0.000 N 
ATOM      4  C   UNL     1       8.111  14.092  18.927  0.00  0.00    +0.000 C 
ATOM      5  C   UNL     1       9.547  13.545  18.652  0.00  0.00    +0.000 C 
ATOM      6  C   UNL     1       9.566  12.379  17.654  0.00  0.00    +0.000 C 
ATOM      7  C   UNL     1       9.114  11.078  18.323  0.00  0.00    +0.000 C 
ATOM      8  C   UNL     1       9.943  10.765  19.565  0.00  0.00    +0.000 C 
ATOM      9  C   UNL     1       9.878  11.919  20.560  0.00  0.00    +0.000 C 
ATOM     10  C   UNL     1      10.365  13.217  19.918  0.00  0.00    +0.000 C 
ATOM     11  C   UNL     1       9.792  14.985  18.020  0.00  0.00    +0.000 C 
ENDROOT
BRANCH   1  14
ATOM     12  C   UNL     1       6.258  15.526  21.864  0.00  0.00    +0.000 C 
ATOM     13  C   UNL     1       6.017  16.275  20.610  0.00  0.00    +0.000 A 
ATOM     14  C   UNL     1       6.843  16.692  19.576  0.00  0.00    +0.000 A 
ATOM     15  N   UNL     1       6.071  17.336  18.633  0.00  0.00    +0.000 NA
ATOM     16  N   UNL     1       4.816  17.333  19.039  0.00  0.00    +0.000 NA
ATOM     17  N   UNL     1       4.783  16.734  20.233  0.00  0.00    +0.000 N 
ATOM     18  C   UNL     1       3.536  16.668  20.956  0.00  0.00    +0.000 C 
ENDBRANCH   1  14
BRANCH  11  19
ATOM     19  C   UNL     1      11.136  15.713  18.064  0.00  0.00    +0.000 C 
ATOM     20  C   UNL     1      11.112  16.928  17.125  0.00  0.00    +0.000 C 
ATOM     21  C   UNL     1      12.238  14.771  17.555  0.00  0.00    +0.000 C 
ENDBRANCH  11  19
TORSDOF 2
ENDMDL
MODEL 8
REMARK VINA RESULT:      -5.5      6.953      9.366
REMARK  Name = 
REMARK  6 active torsions:
REMARK  status: ('A' for Active; 'I' for Inactive)
REMARK    1  A    between atoms: C_1  and  C_2
REMARK    2  A    between atoms: C_3  and  C_4
REMARK    3  A    between atoms: C_14  and  C_15
REMARK    4  A    between atoms: C_15  and  C_16
REMARK    5  A    between atoms: C_15  and  C_17
REMARK    6  A    between atoms: N_20  and  C_21
REMARK                            x       y       z     vdW  Elec       q    Type
REMARK                         _______ _______ _______ _____ _____    ______ ____
ROOT
ATOM      1  C   UNL     1      -3.878  13.004  20.520  0.00  0.00    +0.000 C 
ATOM      2  O   UNL     1      -4.828  13.440  19.874  0.00  0.00    +0.000 OA
ATOM      3  N   UNL     1      -2.796  12.375  19.955  0.00  0.00    +0.000 N 
ATOM      4  C   UNL     1      -1.461  12.112  20.486  0.00  0.00    +0.000 C 
ATOM      5  C   UNL     1      -1.086  11.786  19.006  0.00  0.00    +0.000 C 
ATOM      6  C   UNL     1      -0.093  10.623  18.879  0.00  0.00    +0.000 C 
ATOM      7  C   UNL     1       1.329  11.078  19.222  0.00  0.00    +0.000 C 
ATOM      8  C   UNL     1       1.757  12.275  18.377  0.00  0.00    +0.000 C 
ATOM      9  C   UNL     1       0.778  13.431  18.548  0.00  0.00    +0.000 C 
ATOM     10  C   UNL     1      -0.639  13.004  18.172  0.00  0.00    +0.000 C 
ATOM     11  C   UNL     1      -2.622  11.385  18.882  0.00  0.00    +0.000 C 
ENDROOT
BRANCH   1  14
ATOM     12  C   UNL     1      -2.382  15.276  22.475  0.00  0.00    +0.000 C 
ATOM     13  C   UNL     1      -3.226  14.096  22.771  0.00  0.00    +0.000 A 
ATOM     14  C   UNL     1      -3.815  13.122  21.978  0.00  0.00    +0.000 A 
ATOM     15  N   UNL     1      -4.477  12.233  22.797  0.00  0.00    +0.000 NA
ATOM     16  N   UNL     1      -4.321  12.615  24.051  0.00  0.00    +0.000 NA
ATOM     17  N   UNL     1      -3.607  13.744  24.039  0.00  0.00    +0.000 N 
ATOM     18  C   UNL     1      -3.358  14.435  25.281  0.00  0.00    +0.000 C 
ENDBRANCH   1  14
BRANCH  11  19
ATOM     19  C   UNL     1      -3.445  11.565  17.607  0.00  0.00    +0.000 C 
ATOM     20  C   UNL     1      -4.800  10.857  17.746  0.00  0.00    +0.000 C 
ATOM     21  C   UNL     1      -2.709  10.904  16.431  0.00  0.00    +0.000 C 
ENDBRANCH  11  19
TORSDOF 2
ENDMDL
MODEL 9
REMARK VINA RESULT:      -5.5      9.191     10.988
REMARK  Name = 
REMARK  6 active torsions:
REMARK  status: ('A' for Active; 'I' for Inactive)
REMARK    1  A    between atoms: C_1  and  C_2
REMARK    2  A    between atoms: C_3  and  C_4
REMARK    3  A    between atoms: C_14  and  C_15
REMARK    4  A    between atoms: C_15  and  C_16
REMARK    5  A    between atoms: C_15  and  C_17
REMARK    6  A    between atoms: N_20  and  C_21
REMARK                            x       y       z     vdW  Elec       q    Type
REMARK                         _______ _______ _______ _____ _____    ______ ____
ROOT
ATOM      1  C   UNL     1       7.867  16.004  20.289  0.00  0.00    +0.000 C 
ATOM      2  O   UNL     1       8.206  17.119  20.678  0.00  0.00    +0.000 OA
ATOM      3  N   UNL     1       8.657  15.198  19.505  0.00  0.00    +0.000 N 
ATOM      4  C   UNL     1       8.588  13.764  19.241  0.00  0.00    +0.000 C 
ATOM      5  C   UNL     1      10.025  13.941  18.658  0.00  0.00    +0.000 C 
ATOM      6  C   UNL     1      10.287  13.065  17.426  0.00  0.00    +0.000 C 
ATOM      7  C   UNL     1      10.547  11.612  17.832  0.00  0.00    +0.000 C 
ATOM      8  C   UNL     1      11.682  11.504  18.847  0.00  0.00    +0.000 C 
ATOM      9  C   UNL     1      11.383  12.351  20.079  0.00  0.00    +0.000 C 
ATOM     10  C   UNL     1      11.161  13.812  19.694  0.00  0.00    +0.000 C 
ATOM     11  C   UNL     1       9.534  15.423  18.347  0.00  0.00    +0.000 C 
ENDROOT
BRANCH   1  14
ATOM     12  C   UNL     1       4.982  15.930  18.590  0.00  0.00    +0.000 C 
ATOM     13  C   UNL     1       5.392  15.367  19.896  0.00  0.00    +0.000 A 
ATOM     14  C   UNL     1       6.567  15.426  20.633  0.00  0.00    +0.000 A 
ATOM     15  N   UNL     1       6.380  14.733  21.810  0.00  0.00    +0.000 NA
ATOM     16  N   UNL     1       5.150  14.256  21.829  0.00  0.00    +0.000 NA
ATOM     17  N   UNL     1       4.568  14.600  20.677  0.00  0.00    +0.000 N 
ATOM     18  C   UNL     1       3.235  14.129  20.390  0.00  0.00    +0.000 C 
ENDBRANCH   1  14
BRANCH  11  19
ATOM     19  C   UNL     1      10.451  16.644  18.376  0.00  0.00    +0.000 C 
ATOM     20  C   UNL     1       9.715  17.875  17.826  0.00  0.00    +0.000 C 
ATOM     21  C   UNL     1      11.658  16.393  17.459  0.00  0.00    +0.000 C 
ENDBRANCH  11  19
TORSDOF 2
ENDMDL
