MODEL 1
REMARK VINA RESULT:      -7.7      0.000      0.000
REMARK  Name = 
REMARK  12 active torsions:
REMARK  status: ('A' for Active; 'I' for Inactive)
REMARK    1  A    between atoms: C_1  and  C_2
REMARK    2  A    between atoms: C_5  and  O_6
REMARK    3  A    between atoms: O_6  and  C_7
REMARK    4  A    between atoms: C_7  and  C_8
REMARK    5  A    between atoms: C_10  and  C_11
REMARK    6  A    between atoms: N_13  and  C_14
REMARK    7  A    between atoms: N_13  and  C_15
REMARK    8  A    between atoms: C_15  and  C_16
REMARK    9  A    between atoms: C_15  and  C_17
REMARK   10  A    between atoms: C_18  and  C_19
REMARK   11  A    between atoms: N_21  and  C_22
REMARK   12  A    between atoms: C_23  and  C_24
REMARK                            x       y       z     vdW  Elec       q    Type
REMARK                         _______ _______ _______ _____ _____    ______ ____
ROOT
ATOM      1  C   UNL     1       3.979   5.775  18.644  0.00  0.00    +0.000 A 
ATOM      2  C   UNL     1       3.663   6.972  18.042  0.00  0.00    +0.000 A 
ATOM      3  C   UNL     1       2.534   7.473  18.761  0.00  0.00    +0.000 A 
ATOM      4  N   UNL     1       2.307   6.683  19.828  0.00  0.00    +0.000 NA
ATOM      5  O   UNL     1       3.171   5.611  19.725  0.00  0.00    +0.000 OA
ENDROOT
BRANCH   3   6
ATOM      6  C   UNL     1       1.764   8.708  18.448  0.00  0.00    +0.000 C 
ATOM      7  O   UNL     1       1.827   9.164  17.302  0.00  0.00    +0.000 OA
ATOM      8  N   UNL     1       0.957   9.324  19.424  0.00  0.00    +0.000 N 
ATOM      9  C   UNL     1       0.814   8.848  20.797  0.00  0.00    +0.000 C 
BRANCH   8  10
ATOM     10  C   UNL     1       0.295  10.625  19.151  0.00  0.00    +0.000 C 
ATOM     11  C   UNL     1      -1.221  10.511  18.994  0.00  0.00    +0.000 C 
BRANCH  10  12
ATOM     12  C   UNL     1       0.819  11.801  19.968  0.00  0.00    +0.000 A 
ATOM     13  C   UNL     1       0.397  12.351  21.228  0.00  0.00    +0.000 A 
ATOM     14  C   UNL     1      -0.617  11.921  22.224  0.00  0.00    +0.000 C 
ATOM     15  N   UNL     1       1.032  13.494  21.514  0.00  0.00    +0.000 NA
ATOM     16  N   UNL     1       1.858  13.694  20.489  0.00  0.00    +0.000 N 
ATOM     17  C   UNL     1       2.668  14.892  20.484  0.00  0.00    +0.000 C 
ATOM     18  C   UNL     1       1.792  12.712  19.539  0.00  0.00    +0.000 A 
ATOM     19  C   UNL     1       2.616  12.749  18.303  0.00  0.00    +0.000 C 
ENDBRANCH  10  12
ENDBRANCH   8  10
ENDBRANCH   3   6
BRANCH   1  20
ATOM     20  C   UNL     1       4.930   4.671  18.345  0.00  0.00    +0.000 C 
BRANCH  20  21
ATOM     21  O   UNL     1       6.033   5.235  17.639  0.00  0.00    +0.000 OA
BRANCH  21  26
ATOM     22  C   UNL     1       7.085   4.274  12.195  0.00  0.00    +0.000 C 
ATOM     23  C   UNL     1       6.738   4.473  13.640  0.00  0.00    +0.000 A 
ATOM     24  C   UNL     1       5.563   3.962  14.181  0.00  0.00    +0.000 A 
ATOM     25  C   UNL     1       5.276   4.185  15.530  0.00  0.00    +0.000 A 
ATOM     26  C   UNL     1       6.164   4.910  16.316  0.00  0.00    +0.000 A 
ATOM     27  C   UNL     1       7.318   5.370  15.692  0.00  0.00    +0.000 A 
ATOM     28  N   UNL     1       7.623   5.172  14.385  0.00  0.00    +0.000 NA
ENDBRANCH  21  26
ENDBRANCH  20  21
ENDBRANCH   1  20
TORSDOF 6
ENDMDL
MODEL 2
REMARK VINA RESULT:      -7.5      2.487      3.654
REMARK  Name = 
REMARK  12 active torsions:
REMARK  status: ('A' for Active; 'I' for Inactive)
REMARK    1  A    between atoms: C_1  and  C_2
REMARK    2  A    between atoms: C_5  and  O_6
REMARK    3  A    between atoms: O_6  and  C_7
REMARK    4  A    between atoms: C_7  and  C_8
REMARK    5  A    between atoms: C_10  and  C_11
REMARK    6  A    between atoms: N_13  and  C_14
REMARK    7  A    between atoms: N_13  and  C_15
REMARK    8  A    between atoms: C_15  and  C_16
REMARK    9  A    between atoms: C_15  and  C_17
REMARK   10  A    between atoms: C_18  and  C_19
REMARK   11  A    between atoms: N_21  and  C_22
REMARK   12  A    between atoms: C_23  and  C_24
REMARK                            x       y       z     vdW  Elec       q    Type
REMARK                         _______ _______ _______ _____ _____    ______ ____
ROOT
ATOM      1  C   UNL     1       2.061   7.079  19.664  0.00  0.00    +0.000 A 
ATOM      2  C   UNL     1       1.954   8.407  19.316  0.00  0.00    +0.000 A 
ATOM      3  C   UNL     1       1.184   9.012  20.357  0.00  0.00    +0.000 A 
ATOM      4  N   UNL     1       0.991   8.112  21.341  0.00  0.00    +0.000 NA
ATOM      5  O   UNL     1       1.492   6.909  20.887  0.00  0.00    +0.000 OA
ENDROOT
BRANCH   3   6
ATOM      6  C   UNL     1       0.725  10.427  20.408  0.00  0.00    +0.000 C 
ATOM      7  O   UNL     1       1.161  11.154  21.306  0.00  0.00    +0.000 OA
ATOM      8  N   UNL     1      -0.158  10.937  19.436  0.00  0.00    +0.000 N 
ATOM      9  C   UNL     1      -0.713  10.155  18.335  0.00  0.00    +0.000 C 
BRANCH   8  10
ATOM     10  C   UNL     1      -0.717  12.307  19.561  0.00  0.00    +0.000 C 
ATOM     11  C   UNL     1      -0.526  13.154  18.304  0.00  0.00    +0.000 C 
BRANCH  10  12
ATOM     12  C   UNL     1      -2.072  12.392  20.255  0.00  0.00    +0.000 A 
ATOM     13  C   UNL     1      -3.411  12.243  19.752  0.00  0.00    +0.000 A 
ATOM     14  C   UNL     1      -3.951  11.859  18.423  0.00  0.00    +0.000 C 
ATOM     15  N   UNL     1      -4.330  12.556  20.674  0.00  0.00    +0.000 NA
ATOM     16  N   UNL     1      -3.631  12.890  21.757  0.00  0.00    +0.000 N 
ATOM     17  C   UNL     1      -4.351  13.325  22.933  0.00  0.00    +0.000 C 
ATOM     18  C   UNL     1      -2.277  12.798  21.579  0.00  0.00    +0.000 A 
ATOM     19  C   UNL     1      -1.311  13.143  22.654  0.00  0.00    +0.000 C 
ENDBRANCH  10  12
ENDBRANCH   8  10
ENDBRANCH   3   6
BRANCH   1  20
ATOM     20  C   UNL     1       2.593   5.861  18.996  0.00  0.00    +0.000 C 
BRANCH  20  21
ATOM     21  O   UNL     1       3.991   6.057  18.798  0.00  0.00    +0.000 OA
BRANCH  21  26
ATOM     22  C   UNL     1       6.170   3.959  14.054  0.00  0.00    +0.000 C 
ATOM     23  C   UNL     1       5.582   4.595  15.278  0.00  0.00    +0.000 A 
ATOM     24  C   UNL     1       5.422   5.973  15.371  0.00  0.00    +0.000 A 
ATOM     25  C   UNL     1       4.883   6.522  16.539  0.00  0.00    +0.000 A 
ATOM     26  C   UNL     1       4.512   5.689  17.588  0.00  0.00    +0.000 A 
ATOM     27  C   UNL     1       4.699   4.325  17.398  0.00  0.00    +0.000 A 
ATOM     28  N   UNL     1       5.221   3.763  16.279  0.00  0.00    +0.000 NA
ENDBRANCH  21  26
ENDBRANCH  20  21
ENDBRANCH   1  20
TORSDOF 6
ENDMDL
MODEL 3
REMARK VINA RESULT:      -7.2      4.907      8.980
REMARK  Name = 
REMARK  12 active torsions:
REMARK  status: ('A' for Active; 'I' for Inactive)
REMARK    1  A    between atoms: C_1  and  C_2
REMARK    2  A    between atoms: C_5  and  O_6
REMARK    3  A    between atoms: O_6  and  C_7
REMARK    4  A    between atoms: C_7  and  C_8
REMARK    5  A    between atoms: C_10  and  C_11
REMARK    6  A    between atoms: N_13  and  C_14
REMARK    7  A    between atoms: N_13  and  C_15
REMARK    8  A    between atoms: C_15  and  C_16
REMARK    9  A    between atoms: C_15  and  C_17
REMARK   10  A    between atoms: C_18  and  C_19
REMARK   11  A    between atoms: N_21  and  C_22
REMARK   12  A    between atoms: C_23  and  C_24
REMARK                            x       y       z     vdW  Elec       q    Type
REMARK                         _______ _______ _______ _____ _____    ______ ____
ROOT
ATOM      1  C   UNL     1       8.433   9.241  18.290  0.00  0.00    +0.000 A 
ATOM      2  C   UNL     1       7.329   8.892  17.545  0.00  0.00    +0.000 A 
ATOM      3  C   UNL     1       7.220   7.472  17.670  0.00  0.00    +0.000 A 
ATOM      4  N   UNL     1       8.122   7.040  18.572  0.00  0.00    +0.000 NA
ATOM      5  O   UNL     1       8.899   8.128  18.915  0.00  0.00    +0.000 OA
ENDROOT
BRANCH   3   6
ATOM      6  C   UNL     1       6.228   6.599  16.985  0.00  0.00    +0.000 C 
ATOM      7  O   UNL     1       5.914   6.868  15.821  0.00  0.00    +0.000 OA
ATOM      8  N   UNL     1       5.687   5.472  17.634  0.00  0.00    +0.000 N 
ATOM      9  C   UNL     1       6.011   5.072  19.000  0.00  0.00    +0.000 C 
BRANCH   8  10
ATOM     10  C   UNL     1       4.603   4.678  17.000  0.00  0.00    +0.000 C 
ATOM     11  C   UNL     1       5.115   3.463  16.229  0.00  0.00    +0.000 C 
BRANCH  10  12
ATOM     12  C   UNL     1       3.360   4.479  17.861  0.00  0.00    +0.000 A 
ATOM     13  C   UNL     1       2.463   5.421  18.474  0.00  0.00    +0.000 A 
ATOM     14  C   UNL     1       2.359   6.901  18.409  0.00  0.00    +0.000 C 
ATOM     15  N   UNL     1       1.584   4.820  19.285  0.00  0.00    +0.000 NA
ATOM     16  N   UNL     1       1.875   3.523  19.209  0.00  0.00    +0.000 N 
ATOM     17  C   UNL     1       1.114   2.600  20.020  0.00  0.00    +0.000 C 
ATOM     18  C   UNL     1       2.915   3.249  18.363  0.00  0.00    +0.000 A 
ATOM     19  C   UNL     1       3.417   1.868  18.145  0.00  0.00    +0.000 C 
ENDBRANCH  10  12
ENDBRANCH   8  10
ENDBRANCH   3   6
BRANCH   1  20
ATOM     20  C   UNL     1       9.202  10.498  18.498  0.00  0.00    +0.000 C 
BRANCH  20  21
ATOM     21  O   UNL     1       9.452  10.621  19.895  0.00  0.00    +0.000 OA
BRANCH  21  26
ATOM     22  C   UNL     1      10.317  15.641  22.285  0.00  0.00    +0.000 C 
ATOM     23  C   UNL     1      10.153  14.320  21.595  0.00  0.00    +0.000 A 
ATOM     24  C   UNL     1      10.829  14.032  20.414  0.00  0.00    +0.000 A 
ATOM     25  C   UNL     1      10.633  12.792  19.799  0.00  0.00    +0.000 A 
ATOM     26  C   UNL     1       9.772  11.864  20.370  0.00  0.00    +0.000 A 
ATOM     27  C   UNL     1       9.150  12.237  21.556  0.00  0.00    +0.000 A 
ATOM     28  N   UNL     1       9.318  13.432  22.176  0.00  0.00    +0.000 NA
ENDBRANCH  21  26
ENDBRANCH  20  21
ENDBRANCH   1  20
TORSDOF 6
ENDMDL
MODEL 4
REMARK VINA RESULT:      -7.2      2.645      3.883
REMARK  Name = 
REMARK  12 active torsions:
REMARK  status: ('A' for Active; 'I' for Inactive)
REMARK    1  A    between atoms: C_1  and  C_2
REMARK    2  A    between atoms: C_5  and  O_6
REMARK    3  A    between atoms: O_6  and  C_7
REMARK    4  A    between atoms: C_7  and  C_8
REMARK    5  A    between atoms: C_10  and  C_11
REMARK    6  A    between atoms: N_13  and  C_14
REMARK    7  A    between atoms: N_13  and  C_15
REMARK    8  A    between atoms: C_15  and  C_16
REMARK    9  A    between atoms: C_15  and  C_17
REMARK   10  A    between atoms: C_18  and  C_19
REMARK   11  A    between atoms: N_21  and  C_22
REMARK   12  A    between atoms: C_23  and  C_24
REMARK                            x       y       z     vdW  Elec       q    Type
REMARK                         _______ _______ _______ _____ _____    ______ ____
ROOT
ATOM      1  C   UNL     1       2.077   7.269  19.979  0.00  0.00    +0.000 A 
ATOM      2  C   UNL     1       1.971   8.583  19.585  0.00  0.00    +0.000 A 
ATOM      3  C   UNL     1       1.033   9.176  20.487  0.00  0.00    +0.000 A 
ATOM      4  N   UNL     1       0.734   8.289  21.455  0.00  0.00    +0.000 NA
ATOM      5  O   UNL     1       1.343   7.099  21.111  0.00  0.00    +0.000 OA
ENDROOT
BRANCH   3   6
ATOM      6  C   UNL     1       0.517  10.571  20.433  0.00  0.00    +0.000 C 
ATOM      7  O   UNL     1       0.924  11.380  21.272  0.00  0.00    +0.000 OA
ATOM      8  N   UNL     1      -0.387  10.970  19.429  0.00  0.00    +0.000 N 
ATOM      9  C   UNL     1      -0.910  10.085  18.392  0.00  0.00    +0.000 C 
BRANCH   8  10
ATOM     10  C   UNL     1      -1.001  12.322  19.453  0.00  0.00    +0.000 C 
ATOM     11  C   UNL     1      -0.738  13.128  18.183  0.00  0.00    +0.000 C 
BRANCH  10  12
ATOM     12  C   UNL     1      -2.411  12.381  20.031  0.00  0.00    +0.000 A 
ATOM     13  C   UNL     1      -3.700  12.187  19.423  0.00  0.00    +0.000 A 
ATOM     14  C   UNL     1      -4.117  11.764  18.062  0.00  0.00    +0.000 C 
ATOM     15  N   UNL     1      -4.699  12.490  20.260  0.00  0.00    +0.000 NA
ATOM     16  N   UNL     1      -4.102  12.862  21.390  0.00  0.00    +0.000 N 
ATOM     17  C   UNL     1      -4.928  13.297  22.493  0.00  0.00    +0.000 C 
ATOM     18  C   UNL     1      -2.735  12.805  21.326  0.00  0.00    +0.000 A 
ATOM     19  C   UNL     1      -1.871  13.195  22.469  0.00  0.00    +0.000 C 
ENDBRANCH  10  12
ENDBRANCH   8  10
ENDBRANCH   3   6
BRANCH   1  20
ATOM     20  C   UNL     1       2.749   6.061  19.428  0.00  0.00    +0.000 C 
BRANCH  20  21
ATOM     21  O   UNL     1       2.666   6.136  18.007  0.00  0.00    +0.000 OA
BRANCH  21  26
ATOM     22  C   UNL     1       7.176   4.841  14.901  0.00  0.00    +0.000 C 
ATOM     23  C   UNL     1       5.968   5.102  15.751  0.00  0.00    +0.000 A 
ATOM     24  C   UNL     1       5.203   4.059  16.261  0.00  0.00    +0.000 A 
ATOM     25  C   UNL     1       4.077   4.351  17.036  0.00  0.00    +0.000 A 
ATOM     26  C   UNL     1       3.736   5.674  17.290  0.00  0.00    +0.000 A 
ATOM     27  C   UNL     1       4.567   6.648  16.748  0.00  0.00    +0.000 A 
ATOM     28  N   UNL     1       5.664   6.396  15.991  0.00  0.00    +0.000 NA
ENDBRANCH  21  26
ENDBRANCH  20  21
ENDBRANCH   1  20
TORSDOF 6
ENDMDL
MODEL 5
REMARK VINA RESULT:      -7.1      4.536      6.924
REMARK  Name = 
REMARK  12 active torsions:
REMARK  status: ('A' for Active; 'I' for Inactive)
REMARK    1  A    between atoms: C_1  and  C_2
REMARK    2  A    between atoms: C_5  and  O_6
REMARK    3  A    between atoms: O_6  and  C_7
REMARK    4  A    between atoms: C_7  and  C_8
REMARK    5  A    between atoms: C_10  and  C_11
REMARK    6  A    between atoms: N_13  and  C_14
REMARK    7  A    between atoms: N_13  and  C_15
REMARK    8  A    between atoms: C_15  and  C_16
REMARK    9  A    between atoms: C_15  and  C_17
REMARK   10  A    between atoms: C_18  and  C_19
REMARK   11  A    between atoms: N_21  and  C_22
REMARK   12  A    between atoms: C_23  and  C_24
REMARK                            x       y       z     vdW  Elec       q    Type
REMARK                         _______ _______ _______ _____ _____    ______ ____
ROOT
ATOM      1  C   UNL     1      -0.027  10.230  18.344  0.00  0.00    +0.000 A 
ATOM      2  C   UNL     1      -0.780  11.123  19.072  0.00  0.00    +0.000 A 
ATOM      3  C   UNL     1      -2.097  11.048  18.522  0.00  0.00    +0.000 A 
ATOM      4  N   UNL     1      -2.142  10.044  17.625  0.00  0.00    +0.000 NA
ATOM      5  O   UNL     1      -0.851   9.575  17.484  0.00  0.00    +0.000 OA
ENDROOT
BRANCH   3   6
ATOM      6  C   UNL     1      -3.268  11.879  18.915  0.00  0.00    +0.000 C 
ATOM      7  O   UNL     1      -3.182  12.568  19.937  0.00  0.00    +0.000 OA
ATOM      8  N   UNL     1      -4.433  11.909  18.124  0.00  0.00    +0.000 N 
ATOM      9  C   UNL     1      -4.616  11.139  16.897  0.00  0.00    +0.000 C 
BRANCH   8  10
ATOM     10  C   UNL     1      -5.645  12.633  18.583  0.00  0.00    +0.000 C 
ATOM     11  C   UNL     1      -6.572  13.045  17.440  0.00  0.00    +0.000 C 
BRANCH  10  12
ATOM     12  C   UNL     1      -6.302  12.066  19.836  0.00  0.00    +0.000 A 
ATOM     13  C   UNL     1      -6.895  10.784  20.105  0.00  0.00    +0.000 A 
ATOM     14  C   UNL     1      -6.994   9.534  19.310  0.00  0.00    +0.000 C 
ATOM     15  N   UNL     1      -7.505  10.754  21.296  0.00  0.00    +0.000 NA
ATOM     16  N   UNL     1      -7.315  11.967  21.811  0.00  0.00    +0.000 N 
ATOM     17  C   UNL     1      -7.901  12.266  23.098  0.00  0.00    +0.000 C 
ATOM     18  C   UNL     1      -6.590  12.795  20.997  0.00  0.00    +0.000 A 
ATOM     19  C   UNL     1      -6.279  14.199  21.370  0.00  0.00    +0.000 C 
ENDBRANCH  10  12
ENDBRANCH   8  10
ENDBRANCH   3   6
BRANCH   1  20
ATOM     20  C   UNL     1       1.420   9.892  18.275  0.00  0.00    +0.000 C 
BRANCH  20  21
ATOM     21  O   UNL     1       1.655   8.824  19.188  0.00  0.00    +0.000 OA
BRANCH  21  26
ATOM     22  C   UNL     1       4.631   4.222  17.913  0.00  0.00    +0.000 C 
ATOM     23  C   UNL     1       3.863   5.483  18.176  0.00  0.00    +0.000 A 
ATOM     24  C   UNL     1       4.015   6.605  17.369  0.00  0.00    +0.000 A 
ATOM     25  C   UNL     1       3.287   7.762  17.663  0.00  0.00    +0.000 A 
ATOM     26  C   UNL     1       2.422   7.779  18.751  0.00  0.00    +0.000 A 
ATOM     27  C   UNL     1       2.328   6.607  19.491  0.00  0.00    +0.000 A 
ATOM     28  N   UNL     1       3.022   5.469  19.233  0.00  0.00    +0.000 NA
ENDBRANCH  21  26
ENDBRANCH  20  21
ENDBRANCH   1  20
TORSDOF 6
ENDMDL
MODEL 6
REMARK VINA RESULT:      -7.1      1.609      2.583
REMARK  Name = 
REMARK  12 active torsions:
REMARK  status: ('A' for Active; 'I' for Inactive)
REMARK    1  A    between atoms: C_1  and  C_2
REMARK    2  A    between atoms: C_5  and  O_6
REMARK    3  A    between atoms: O_6  and  C_7
REMARK    4  A    between atoms: C_7  and  C_8
REMARK    5  A    between atoms: C_10  and  C_11
REMARK    6  A    between atoms: N_13  and  C_14
REMARK    7  A    between atoms: N_13  and  C_15
REMARK    8  A    between atoms: C_15  and  C_16
REMARK    9  A    between atoms: C_15  and  C_17
REMARK   10  A    between atoms: C_18  and  C_19
REMARK   11  A    between atoms: N_21  and  C_22
REMARK   12  A    between atoms: C_23  and  C_24
REMARK                            x       y       z     vdW  Elec       q    Type
REMARK                         _______ _______ _______ _____ _____    ______ ____
ROOT
ATOM      1  C   UNL     1       3.617   5.354  18.356  0.00  0.00    +0.000 A 
ATOM      2  C   UNL     1       3.692   6.718  18.529  0.00  0.00    +0.000 A 
ATOM      3  C   UNL     1       2.368   7.205  18.294  0.00  0.00    +0.000 A 
ATOM      4  N   UNL     1       1.535   6.157  18.149  0.00  0.00    +0.000 NA
ATOM      5  O   UNL     1       2.317   5.020  18.140  0.00  0.00    +0.000 OA
ENDROOT
BRANCH   3   6
ATOM      6  C   UNL     1       1.940   8.630  18.285  0.00  0.00    +0.000 C 
ATOM      7  O   UNL     1       2.104   9.285  17.251  0.00  0.00    +0.000 OA
ATOM      8  N   UNL     1       1.329   9.209  19.414  0.00  0.00    +0.000 N 
ATOM      9  C   UNL     1       1.086   8.507  20.671  0.00  0.00    +0.000 C 
BRANCH   8  10
ATOM     10  C   UNL     1       1.022  10.662  19.450  0.00  0.00    +0.000 C 
ATOM     11  C   UNL     1       1.928  11.494  18.544  0.00  0.00    +0.000 C 
BRANCH  10  12
ATOM     12  C   UNL     1      -0.462  11.009  19.452  0.00  0.00    +0.000 A 
ATOM     13  C   UNL     1      -1.504  10.749  18.495  0.00  0.00    +0.000 A 
ATOM     14  C   UNL     1      -1.536   9.974  17.229  0.00  0.00    +0.000 C 
ATOM     15  N   UNL     1      -2.645  11.372  18.815  0.00  0.00    +0.000 NA
ATOM     16  N   UNL     1      -2.380  12.015  19.950  0.00  0.00    +0.000 N 
ATOM     17  C   UNL     1      -3.421  12.828  20.538  0.00  0.00    +0.000 C 
ATOM     18  C   UNL     1      -1.099  11.827  20.394  0.00  0.00    +0.000 A 
ATOM     19  C   UNL     1      -0.588  12.469  21.632  0.00  0.00    +0.000 C 
ENDBRANCH  10  12
ENDBRANCH   8  10
ENDBRANCH   3   6
BRANCH   1  20
ATOM     20  C   UNL     1       4.611   4.248  18.310  0.00  0.00    +0.000 C 
BRANCH  20  21
ATOM     21  O   UNL     1       5.838   4.795  17.832  0.00  0.00    +0.000 OA
BRANCH  21  26
ATOM     22  C   UNL     1       7.405   4.713  12.429  0.00  0.00    +0.000 C 
ATOM     23  C   UNL     1       6.923   4.679  13.848  0.00  0.00    +0.000 A 
ATOM     24  C   UNL     1       5.708   4.094  14.187  0.00  0.00    +0.000 A 
ATOM     25  C   UNL     1       5.294   4.100  15.522  0.00  0.00    +0.000 A 
ATOM     26  C   UNL     1       6.096   4.685  16.493  0.00  0.00    +0.000 A 
ATOM     27  C   UNL     1       7.298   5.234  16.062  0.00  0.00    +0.000 A 
ATOM     28  N   UNL     1       7.727   5.246  14.775  0.00  0.00    +0.000 NA
ENDBRANCH  21  26
ENDBRANCH  20  21
ENDBRANCH   1  20
TORSDOF 6
ENDMDL
MODEL 7
REMARK VINA RESULT:      -7.1      3.863      6.052
REMARK  Name = 
REMARK  12 active torsions:
REMARK  status: ('A' for Active; 'I' for Inactive)
REMARK    1  A    between atoms: C_1  and  C_2
REMARK    2  A    between atoms: C_5  and  O_6
REMARK    3  A    between atoms: O_6  and  C_7
REMARK    4  A    between atoms: C_7  and  C_8
REMARK    5  A    between atoms: C_10  and  C_11
REMARK    6  A    between atoms: N_13  and  C_14
REMARK    7  A    between atoms: N_13  and  C_15
REMARK    8  A    between atoms: C_15  and  C_16
REMARK    9  A    between atoms: C_15  and  C_17
REMARK   10  A    between atoms: C_18  and  C_19
REMARK   11  A    between atoms: N_21  and  C_22
REMARK   12  A    between atoms: C_23  and  C_24
REMARK                            x       y       z     vdW  Elec       q    Type
REMARK                         _______ _______ _______ _____ _____    ______ ____
ROOT
ATOM      1  C   UNL     1       1.307   8.604  21.045  0.00  0.00    +0.000 A 
ATOM      2  C   UNL     1       0.233   9.460  20.948  0.00  0.00    +0.000 A 
ATOM      3  C   UNL     1       0.117  10.071  22.236  0.00  0.00    +0.000 A 
ATOM      4  N   UNL     1       1.171   9.706  22.991  0.00  0.00    +0.000 NA
ATOM      5  O   UNL     1       1.875   8.764  22.269  0.00  0.00    +0.000 OA
ENDROOT
BRANCH   3   6
ATOM      6  C   UNL     1      -0.942  11.023  22.670  0.00  0.00    +0.000 C 
ATOM      7  O   UNL     1      -1.838  10.605  23.410  0.00  0.00    +0.000 OA
ATOM      8  N   UNL     1      -0.906  12.374  22.276  0.00  0.00    +0.000 N 
ATOM      9  C   UNL     1       0.120  12.955  21.414  0.00  0.00    +0.000 C 
BRANCH   8  10
ATOM     10  C   UNL     1      -2.029  13.291  22.600  0.00  0.00    +0.000 C 
ATOM     11  C   UNL     1      -1.633  14.766  22.572  0.00  0.00    +0.000 C 
BRANCH  10  12
ATOM     12  C   UNL     1      -3.367  12.921  21.969  0.00  0.00    +0.000 A 
ATOM     13  C   UNL     1      -3.719  12.557  20.623  0.00  0.00    +0.000 A 
ATOM     14  C   UNL     1      -2.909  12.313  19.402  0.00  0.00    +0.000 C 
ATOM     15  N   UNL     1      -5.044  12.466  20.458  0.00  0.00    +0.000 NA
ATOM     16  N   UNL     1      -5.559  12.746  21.653  0.00  0.00    +0.000 N 
ATOM     17  C   UNL     1      -6.998  12.770  21.793  0.00  0.00    +0.000 C 
ATOM     18  C   UNL     1      -4.612  13.011  22.605  0.00  0.00    +0.000 A 
ATOM     19  C   UNL     1      -4.969  13.367  24.002  0.00  0.00    +0.000 C 
ENDBRANCH  10  12
ENDBRANCH   8  10
ENDBRANCH   3   6
BRANCH   1  20
ATOM     20  C   UNL     1       1.905   7.570  20.158  0.00  0.00    +0.000 C 
BRANCH  20  21
ATOM     21  O   UNL     1       1.586   6.295  20.711  0.00  0.00    +0.000 OA
BRANCH  21  26
ATOM     22  C   UNL     1       3.466   1.506  18.434  0.00  0.00    +0.000 C 
ATOM     23  C   UNL     1       2.939   2.806  18.961  0.00  0.00    +0.000 A 
ATOM     24  C   UNL     1       2.537   3.826  18.104  0.00  0.00    +0.000 A 
ATOM     25  C   UNL     1       2.065   5.026  18.643  0.00  0.00    +0.000 A 
ATOM     26  C   UNL     1       2.000   5.189  20.021  0.00  0.00    +0.000 A 
ATOM     27  C   UNL     1       2.413   4.111  20.797  0.00  0.00    +0.000 A 
ATOM     28  N   UNL     1       2.877   2.935  20.305  0.00  0.00    +0.000 NA
ENDBRANCH  21  26
ENDBRANCH  20  21
ENDBRANCH   1  20
TORSDOF 6
ENDMDL
MODEL 8
REMARK VINA RESULT:      -7.1      3.736      6.067
REMARK  Name = 
REMARK  12 active torsions:
REMARK  status: ('A' for Active; 'I' for Inactive)
REMARK    1  A    between atoms: C_1  and  C_2
REMARK    2  A    between atoms: C_5  and  O_6
REMARK    3  A    between atoms: O_6  and  C_7
REMARK    4  A    between atoms: C_7  and  C_8
REMARK    5  A    between atoms: C_10  and  C_11
REMARK    6  A    between atoms: N_13  and  C_14
REMARK    7  A    between atoms: N_13  and  C_15
REMARK    8  A    between atoms: C_15  and  C_16
REMARK    9  A    between atoms: C_15  and  C_17
REMARK   10  A    between atoms: C_18  and  C_19
REMARK   11  A    between atoms: N_21  and  C_22
REMARK   12  A    between atoms: C_23  and  C_24
REMARK                            x       y       z     vdW  Elec       q    Type
REMARK                         _______ _______ _______ _____ _____    ______ ____
ROOT
ATOM      1  C   UNL     1       0.744   8.392  21.324  0.00  0.00    +0.000 A 
ATOM      2  C   UNL     1      -0.415   9.121  21.464  0.00  0.00    +0.000 A 
ATOM      3  C   UNL     1       0.002  10.416  21.904  0.00  0.00    +0.000 A 
ATOM      4  N   UNL     1       1.347  10.482  21.866  0.00  0.00    +0.000 NA
ATOM      5  O   UNL     1       1.801   9.216  21.554  0.00  0.00    +0.000 OA
ENDROOT
BRANCH   3   6
ATOM      6  C   UNL     1      -0.887  11.552  22.274  0.00  0.00    +0.000 C 
ATOM      7  O   UNL     1      -1.134  11.738  23.469  0.00  0.00    +0.000 OA
ATOM      8  N   UNL     1      -1.405  12.415  21.289  0.00  0.00    +0.000 N 
ATOM      9  C   UNL     1      -1.155  12.277  19.857  0.00  0.00    +0.000 C 
BRANCH   8  10
ATOM     10  C   UNL     1      -2.394  13.466  21.643  0.00  0.00    +0.000 C 
ATOM     11  C   UNL     1      -2.234  14.746  20.825  0.00  0.00    +0.000 C 
BRANCH  10  12
ATOM     12  C   UNL     1      -3.815  12.965  21.873  0.00  0.00    +0.000 A 
ATOM     13  C   UNL     1      -4.829  12.517  20.957  0.00  0.00    +0.000 A 
ATOM     14  C   UNL     1      -4.829  12.287  19.490  0.00  0.00    +0.000 C 
ATOM     15  N   UNL     1      -6.002  12.313  21.568  0.00  0.00    +0.000 NA
ATOM     16  N   UNL     1      -5.778  12.602  22.849  0.00  0.00    +0.000 N 
ATOM     17  C   UNL     1      -6.884  12.516  23.776  0.00  0.00    +0.000 C 
ATOM     18  C   UNL     1      -4.488  12.982  23.102  0.00  0.00    +0.000 A 
ATOM     19  C   UNL     1      -4.027  13.366  24.461  0.00  0.00    +0.000 C 
ENDBRANCH  10  12
ENDBRANCH   8  10
ENDBRANCH   3   6
BRANCH   1  20
ATOM     20  C   UNL     1       1.056   6.965  21.040  0.00  0.00    +0.000 C 
BRANCH  20  21
ATOM     21  O   UNL     1       2.065   6.940  20.033  0.00  0.00    +0.000 OA
BRANCH  21  26
ATOM     22  C   UNL     1       3.396   1.770  18.255  0.00  0.00    +0.000 C 
ATOM     23  C   UNL     1       3.016   3.166  18.647  0.00  0.00    +0.000 A 
ATOM     24  C   UNL     1       2.708   4.129  17.692  0.00  0.00    +0.000 A 
ATOM     25  C   UNL     1       2.374   5.421  18.105  0.00  0.00    +0.000 A 
ATOM     26  C   UNL     1       2.350   5.731  19.460  0.00  0.00    +0.000 A 
ATOM     27  C   UNL     1       2.661   4.701  20.340  0.00  0.00    +0.000 A 
ATOM     28  N   UNL     1       2.991   3.438  19.971  0.00  0.00    +0.000 NA
ENDBRANCH  21  26
ENDBRANCH  20  21
ENDBRANCH   1  20
TORSDOF 6
ENDMDL
MODEL 9
REMARK VINA RESULT:      -7.1      3.936      6.184
REMARK  Name = 
REMARK  12 active torsions:
REMARK  status: ('A' for Active; 'I' for Inactive)
REMARK    1  A    between atoms: C_1  and  C_2
REMARK    2  A    between atoms: C_5  and  O_6
REMARK    3  A    between atoms: O_6  and  C_7
REMARK    4  A    between atoms: C_7  and  C_8
REMARK    5  A    between atoms: C_10  and  C_11
REMARK    6  A    between atoms: N_13  and  C_14
REMARK    7  A    between atoms: N_13  and  C_15
REMARK    8  A    between atoms: C_15  and  C_16
REMARK    9  A    between atoms: C_15  and  C_17
REMARK   10  A    between atoms: C_18  and  C_19
REMARK   11  A    between atoms: N_21  and  C_22
REMARK   12  A    between atoms: C_23  and  C_24
REMARK                            x       y       z     vdW  Elec       q    Type
REMARK                         _______ _______ _______ _____ _____    ______ ____
ROOT
ATOM      1  C   UNL     1       1.175   8.597  21.118  0.00  0.00    +0.000 A 
ATOM      2  C   UNL     1       0.171   9.499  20.846  0.00  0.00    +0.000 A 
ATOM      3  C   UNL     1      -0.033  10.219  22.064  0.00  0.00    +0.000 A 
ATOM      4  N   UNL     1       0.915   9.860  22.950  0.00  0.00    +0.000 NA
ATOM      5  O   UNL     1       1.627   8.825  22.379  0.00  0.00    +0.000 OA
ENDROOT
BRANCH   3   6
ATOM      6  C   UNL     1      -1.069  11.259  22.312  0.00  0.00    +0.000 C 
ATOM      7  O   UNL     1      -1.820  11.120  23.281  0.00  0.00    +0.000 OA
ATOM      8  N   UNL     1      -1.167  12.394  21.483  0.00  0.00    +0.000 N 
ATOM      9  C   UNL     1      -0.314  12.646  20.325  0.00  0.00    +0.000 C 
BRANCH   8  10
ATOM     10  C   UNL     1      -2.280  13.363  21.651  0.00  0.00    +0.000 C 
ATOM     11  C   UNL     1      -1.933  14.771  21.171  0.00  0.00    +0.000 C 
BRANCH  10  12
ATOM     12  C   UNL     1      -3.662  12.830  21.290  0.00  0.00    +0.000 A 
ATOM     13  C   UNL     1      -4.187  12.295  20.063  0.00  0.00    +0.000 A 
ATOM     14  C   UNL     1      -3.561  11.977  18.754  0.00  0.00    +0.000 C 
ATOM     15  N   UNL     1      -5.508  12.089  20.130  0.00  0.00    +0.000 NA
ATOM     16  N   UNL     1      -5.852  12.461  21.361  0.00  0.00    +0.000 N 
ATOM     17  C   UNL     1      -7.247  12.396  21.734  0.00  0.00    +0.000 C 
ATOM     18  C   UNL     1      -4.794  12.899  22.112  0.00  0.00    +0.000 A 
ATOM     19  C   UNL     1      -4.958  13.379  23.508  0.00  0.00    +0.000 C 
ENDBRANCH  10  12
ENDBRANCH   8  10
ENDBRANCH   3   6
BRANCH   1  20
ATOM     20  C   UNL     1       1.791   7.462  20.379  0.00  0.00    +0.000 C 
BRANCH  20  21
ATOM     21  O   UNL     1       1.283   6.256  20.944  0.00  0.00    +0.000 OA
BRANCH  21  26
ATOM     22  C   UNL     1       3.451   1.640  18.568  0.00  0.00    +0.000 C 
ATOM     23  C   UNL     1       2.892   2.835  19.279  0.00  0.00    +0.000 A 
ATOM     24  C   UNL     1       2.680   2.826  20.654  0.00  0.00    +0.000 A 
ATOM     25  C   UNL     1       2.142   3.960  21.270  0.00  0.00    +0.000 A 
ATOM     26  C   UNL     1       1.829   5.079  20.509  0.00  0.00    +0.000 A 
ATOM     27  C   UNL     1       2.086   4.999  19.146  0.00  0.00    +0.000 A 
ATOM     28  N   UNL     1       2.605   3.914  18.518  0.00  0.00    +0.000 NA
ENDBRANCH  21  26
ENDBRANCH  20  21
ENDBRANCH   1  20
TORSDOF 6
ENDMDL
