MODEL 1
REMARK VINA RESULT:      -8.7      0.000      0.000
REMARK  Name = 
REMARK  7 active torsions:
REMARK  status: ('A' for Active; 'I' for Inactive)
REMARK    1  A    between atoms: C_1  and  C_2
REMARK    2  A    between atoms: C_7  and  C_8
REMARK    3  A    between atoms: C_10  and  C_11
REMARK    4  A    between atoms: C_15  and  C_16
REMARK    5  A    between atoms: C_16  and  C_17
REMARK    6  A    between atoms: C_17  and  N_18
REMARK    7  A    between atoms: C_27  and  N_28
REMARK                            x       y       z     vdW  Elec       q    Type
REMARK                         _______ _______ _______ _____ _____    ______ ____
ROOT
ATOM      1  C   UNL     1       1.212   9.965  19.605  0.00  0.00    +0.000 A 
ATOM      2  C   UNL     1       1.389   8.621  19.977  0.00  0.00    +0.000 A 
ATOM      3  C   UNL     1       2.051   7.716  19.139  0.00  0.00    +0.000 A 
ATOM      4  C   UNL     1       2.482   8.236  17.918  0.00  0.00    +0.000 A 
ATOM      5  N   UNL     1       2.359   9.531  17.531  0.00  0.00    +0.000 NA
ATOM      6  C   UNL     1       1.738  10.372  18.371  0.00  0.00    +0.000 A 
ENDROOT
BRANCH   1  13
ATOM      7  C   UNL     1      -1.423  15.288  23.966  0.00  0.00    +0.000 C 
ATOM      8  C   UNL     1      -1.257  13.950  23.306  0.00  0.00    +0.000 A 
ATOM      9  C   UNL     1      -2.080  12.870  23.658  0.00  0.00    +0.000 A 
ATOM     10  C   UNL     1      -1.956  11.618  23.042  0.00  0.00    +0.000 A 
ATOM     11  C   UNL     1      -0.976  11.503  22.057  0.00  0.00    +0.000 A 
ATOM     12  N   UNL     1      -0.589  10.463  21.257  0.00  0.00    +0.000 N 
ATOM     13  C   UNL     1       0.481  10.866  20.491  0.00  0.00    +0.000 A 
ATOM     14  N   UNL     1       0.736  12.146  20.701  0.00  0.00    +0.000 NA
ATOM     15  C   UNL     1      -0.138  12.545  21.684  0.00  0.00    +0.000 A 
ATOM     16  C   UNL     1      -0.270  13.789  22.317  0.00  0.00    +0.000 A 
ATOM     17  H   UNL     1      -0.965   9.524  21.260  0.00  0.00    +0.000 HD
ENDBRANCH   1  13
BRANCH   3  18
ATOM     18  C   UNL     1       2.294   6.308  19.529  0.00  0.00    +0.000 A 
ATOM     19  C   UNL     1       1.706   5.765  20.684  0.00  0.00    +0.000 A 
ATOM     20  C   UNL     1       1.976   4.456  21.084  0.00  0.00    +0.000 A 
ATOM     21  C   UNL     1       2.834   3.660  20.332  0.00  0.00    +0.000 A 
ATOM     22  C   UNL     1       3.417   4.144  19.155  0.00  0.00    +0.000 A 
ATOM     23  C   UNL     1       3.147   5.475  18.781  0.00  0.00    +0.000 A 
BRANCH  22  24
ATOM     24  C   UNL     1       4.360   3.301  18.313  0.00  0.00    +0.000 C 
BRANCH  24  25
ATOM     25  C   UNL     1       4.446   3.771  16.848  0.00  0.00    +0.000 C 
BRANCH  25  26
ATOM     26  N   UNL     1       5.791   3.983  16.287  0.00  0.00    +0.000 NA
ATOM     27  C   UNL     1       6.735   4.633  17.218  0.00  0.00    +0.000 C 
ATOM     28  C   UNL     1       6.394   6.101  17.524  0.00  0.00    +0.000 C 
ATOM     29  O   UNL     1       6.293   6.882  16.325  0.00  0.00    +0.000 OA
ATOM     30  C   UNL     1       5.342   6.316  15.415  0.00  0.00    +0.000 C 
ATOM     31  C   UNL     1       5.691   4.852  15.083  0.00  0.00    +0.000 C 
ENDBRANCH  25  26
ENDBRANCH  24  25
ENDBRANCH  22  24
ENDBRANCH   3  18
BRANCH   6  32
ATOM     32  N   UNL     1       1.663  11.699  17.923  0.00  0.00    +0.000 N 
ATOM     33  H   UNL     1       0.784  12.056  18.300  0.00  0.00    +0.000 HD
ATOM     34  H   UNL     1       2.444  12.234  18.289  0.00  0.00    +0.000 HD
ENDBRANCH   6  32
TORSDOF 6
ENDMDL
MODEL 2
REMARK VINA RESULT:      -8.3      3.108      3.945
REMARK  Name = 
REMARK  7 active torsions:
REMARK  status: ('A' for Active; 'I' for Inactive)
REMARK    1  A    between atoms: C_1  and  C_2
REMARK    2  A    between atoms: C_7  and  C_8
REMARK    3  A    between atoms: C_10  and  C_11
REMARK    4  A    between atoms: C_15  and  C_16
REMARK    5  A    between atoms: C_16  and  C_17
REMARK    6  A    between atoms: C_17  and  N_18
REMARK    7  A    between atoms: C_27  and  N_28
REMARK                            x       y       z     vdW  Elec       q    Type
REMARK                         _______ _______ _______ _____ _____    ______ ____
ROOT
ATOM      1  C   UNL     1      -1.111  12.006  19.228  0.00  0.00    +0.000 A 
ATOM      2  C   UNL     1      -0.603  10.704  19.389  0.00  0.00    +0.000 A 
ATOM      3  C   UNL     1       0.739  10.410  19.122  0.00  0.00    +0.000 A 
ATOM      4  C   UNL     1       1.507  11.481  18.663  0.00  0.00    +0.000 A 
ATOM      5  N   UNL     1       1.067  12.757  18.522  0.00  0.00    +0.000 NA
ATOM      6  C   UNL     1      -0.220  13.003  18.808  0.00  0.00    +0.000 A 
ENDROOT
BRANCH   1  13
ATOM      7  C   UNL     1      -7.890  13.413  21.751  0.00  0.00    +0.000 C 
ATOM      8  C   UNL     1      -6.780  12.967  20.843  0.00  0.00    +0.000 A 
ATOM      9  C   UNL     1      -7.062  12.400  19.592  0.00  0.00    +0.000 A 
ATOM     10  C   UNL     1      -6.043  11.994  18.720  0.00  0.00    +0.000 A 
ATOM     11  C   UNL     1      -4.734  12.189  19.159  0.00  0.00    +0.000 A 
ATOM     12  N   UNL     1      -3.520  11.931  18.586  0.00  0.00    +0.000 N 
ATOM     13  C   UNL     1      -2.526  12.260  19.478  0.00  0.00    +0.000 A 
ATOM     14  N   UNL     1      -3.051  12.803  20.564  0.00  0.00    +0.000 NA
ATOM     15  C   UNL     1      -4.413  12.741  20.392  0.00  0.00    +0.000 A 
ATOM     16  C   UNL     1      -5.445  13.133  21.255  0.00  0.00    +0.000 A 
ATOM     17  H   UNL     1      -3.355  11.504  17.684  0.00  0.00    +0.000 HD
ENDBRANCH   1  13
BRANCH   3  18
ATOM     18  C   UNL     1       1.311   9.059  19.331  0.00  0.00    +0.000 A 
ATOM     19  C   UNL     1       1.122   8.374  20.543  0.00  0.00    +0.000 A 
ATOM     20  C   UNL     1       1.704   7.125  20.764  0.00  0.00    +0.000 A 
ATOM     21  C   UNL     1       2.482   6.533  19.774  0.00  0.00    +0.000 A 
ATOM     22  C   UNL     1       2.672   7.161  18.538  0.00  0.00    +0.000 A 
ATOM     23  C   UNL     1       2.092   8.430  18.344  0.00  0.00    +0.000 A 
BRANCH  22  24
ATOM     24  C   UNL     1       3.517   6.543  17.437  0.00  0.00    +0.000 C 
BRANCH  24  25
ATOM     25  C   UNL     1       4.907   6.091  17.925  0.00  0.00    +0.000 C 
BRANCH  25  26
ATOM     26  N   UNL     1       6.077   6.590  17.182  0.00  0.00    +0.000 NA
ATOM     27  C   UNL     1       6.343   5.863  15.923  0.00  0.00    +0.000 C 
ATOM     28  C   UNL     1       6.818   4.416  16.131  0.00  0.00    +0.000 C 
ATOM     29  O   UNL     1       7.979   4.355  16.972  0.00  0.00    +0.000 OA
ATOM     30  C   UNL     1       7.744   5.000  18.229  0.00  0.00    +0.000 C 
ATOM     31  C   UNL     1       7.292   6.460  18.031  0.00  0.00    +0.000 C 
ENDBRANCH  25  26
ENDBRANCH  24  25
ENDBRANCH  22  24
ENDBRANCH   3  18
BRANCH   6  32
ATOM     32  N   UNL     1      -0.607  14.342  18.662  0.00  0.00    +0.000 N 
ATOM     33  H   UNL     1      -0.093  14.680  17.848  0.00  0.00    +0.000 HD
ATOM     34  H   UNL     1      -1.607  14.399  18.493  0.00  0.00    +0.000 HD
ENDBRANCH   6  32
TORSDOF 6
ENDMDL
MODEL 3
REMARK VINA RESULT:      -8.3      0.891      1.173
REMARK  Name = 
REMARK  7 active torsions:
REMARK  status: ('A' for Active; 'I' for Inactive)
REMARK    1  A    between atoms: C_1  and  C_2
REMARK    2  A    between atoms: C_7  and  C_8
REMARK    3  A    between atoms: C_10  and  C_11
REMARK    4  A    between atoms: C_15  and  C_16
REMARK    5  A    between atoms: C_16  and  C_17
REMARK    6  A    between atoms: C_17  and  N_18
REMARK    7  A    between atoms: C_27  and  N_28
REMARK                            x       y       z     vdW  Elec       q    Type
REMARK                         _______ _______ _______ _____ _____    ______ ____
ROOT
ATOM      1  C   UNL     1       1.011   9.847  19.458  0.00  0.00    +0.000 A 
ATOM      2  C   UNL     1       1.207   8.506  19.832  0.00  0.00    +0.000 A 
ATOM      3  C   UNL     1       2.080   7.674  19.122  0.00  0.00    +0.000 A 
ATOM      4  C   UNL     1       2.701   8.260  18.018  0.00  0.00    +0.000 A 
ATOM      5  N   UNL     1       2.564   9.556  17.639  0.00  0.00    +0.000 NA
ATOM      6  C   UNL     1       1.735  10.327  18.358  0.00  0.00    +0.000 A 
ENDROOT
BRANCH   1  13
ATOM      7  C   UNL     1      -3.361  13.325  24.264  0.00  0.00    +0.000 C 
ATOM      8  C   UNL     1      -2.802  12.820  22.965  0.00  0.00    +0.000 A 
ATOM      9  C   UNL     1      -3.434  13.119  21.749  0.00  0.00    +0.000 A 
ATOM     10  C   UNL     1      -2.921  12.675  20.523  0.00  0.00    +0.000 A 
ATOM     11  C   UNL     1      -1.745  11.927  20.575  0.00  0.00    +0.000 A 
ATOM     12  N   UNL     1      -0.972  11.354  19.603  0.00  0.00    +0.000 N 
ATOM     13  C   UNL     1       0.060  10.668  20.201  0.00  0.00    +0.000 A 
ATOM     14  N   UNL     1       0.031  10.853  21.511  0.00  0.00    +0.000 NA
ATOM     15  C   UNL     1      -1.092  11.606  21.757  0.00  0.00    +0.000 A 
ATOM     16  C   UNL     1      -1.625  12.051  22.975  0.00  0.00    +0.000 A 
ATOM     17  H   UNL     1      -1.147  11.361  18.607  0.00  0.00    +0.000 HD
ENDBRANCH   1  13
BRANCH   3  18
ATOM     18  C   UNL     1       2.342   6.272  19.525  0.00  0.00    +0.000 A 
ATOM     19  C   UNL     1       1.740   5.724  20.669  0.00  0.00    +0.000 A 
ATOM     20  C   UNL     1       2.027   4.423  21.083  0.00  0.00    +0.000 A 
ATOM     21  C   UNL     1       2.917   3.640  20.355  0.00  0.00    +0.000 A 
ATOM     22  C   UNL     1       3.516   4.130  19.188  0.00  0.00    +0.000 A 
ATOM     23  C   UNL     1       3.229   5.453  18.801  0.00  0.00    +0.000 A 
BRANCH  22  24
ATOM     24  C   UNL     1       4.494   3.302  18.372  0.00  0.00    +0.000 C 
BRANCH  24  25
ATOM     25  C   UNL     1       4.547   3.717  16.889  0.00  0.00    +0.000 C 
BRANCH  25  26
ATOM     26  N   UNL     1       5.877   3.962  16.305  0.00  0.00    +0.000 NA
ATOM     27  C   UNL     1       6.812   4.658  17.213  0.00  0.00    +0.000 C 
ATOM     28  C   UNL     1       6.428   6.119  17.500  0.00  0.00    +0.000 C 
ATOM     29  O   UNL     1       6.285   6.876  16.290  0.00  0.00    +0.000 OA
ATOM     30  C   UNL     1       5.341   6.265  15.403  0.00  0.00    +0.000 C 
ATOM     31  C   UNL     1       5.732   4.808  15.090  0.00  0.00    +0.000 C 
ENDBRANCH  25  26
ENDBRANCH  24  25
ENDBRANCH  22  24
ENDBRANCH   3  18
BRANCH   6  32
ATOM     32  N   UNL     1       1.653  11.659  17.929  0.00  0.00    +0.000 N 
ATOM     33  H   UNL     1       0.960  12.093  18.540  0.00  0.00    +0.000 HD
ATOM     34  H   UNL     1       2.553  12.116  18.042  0.00  0.00    +0.000 HD
ENDBRANCH   6  32
TORSDOF 6
ENDMDL
MODEL 4
REMARK VINA RESULT:      -8.3      1.140      1.429
REMARK  Name = 
REMARK  7 active torsions:
REMARK  status: ('A' for Active; 'I' for Inactive)
REMARK    1  A    between atoms: C_1  and  C_2
REMARK    2  A    between atoms: C_7  and  C_8
REMARK    3  A    between atoms: C_10  and  C_11
REMARK    4  A    between atoms: C_15  and  C_16
REMARK    5  A    between atoms: C_16  and  C_17
REMARK    6  A    between atoms: C_17  and  N_18
REMARK    7  A    between atoms: C_27  and  N_28
REMARK                            x       y       z     vdW  Elec       q    Type
REMARK                         _______ _______ _______ _____ _____    ______ ____
ROOT
ATOM      1  C   UNL     1       0.815  10.621  19.601  0.00  0.00    +0.000 A 
ATOM      2  C   UNL     1       0.961   9.249  19.871  0.00  0.00    +0.000 A 
ATOM      3  C   UNL     1       1.752   8.429  19.058  0.00  0.00    +0.000 A 
ATOM      4  C   UNL     1       2.343   9.061  17.964  0.00  0.00    +0.000 A 
ATOM      5  N   UNL     1       2.254  10.386  17.682  0.00  0.00    +0.000 NA
ATOM      6  C   UNL     1       1.504  11.143  18.498  0.00  0.00    +0.000 A 
ENDROOT
BRANCH   1  13
ATOM      7  C   UNL     1      -2.566  14.663  24.752  0.00  0.00    +0.000 C 
ATOM      8  C   UNL     1      -2.352  13.809  23.536  0.00  0.00    +0.000 A 
ATOM      9  C   UNL     1      -3.435  13.420  22.734  0.00  0.00    +0.000 A 
ATOM     10  C   UNL     1      -3.257  12.640  21.584  0.00  0.00    +0.000 A 
ATOM     11  C   UNL     1      -1.947  12.277  21.274  0.00  0.00    +0.000 A 
ATOM     12  N   UNL     1      -1.408  11.548  20.250  0.00  0.00    +0.000 N 
ATOM     13  C   UNL     1      -0.052  11.432  20.450  0.00  0.00    +0.000 A 
ATOM     14  N   UNL     1       0.313  12.132  21.512  0.00  0.00    +0.000 NA
ATOM     15  C   UNL     1      -0.849  12.636  22.045  0.00  0.00    +0.000 A 
ATOM     16  C   UNL     1      -1.046  13.409  23.197  0.00  0.00    +0.000 A 
ATOM     17  H   UNL     1      -1.912  11.100  19.496  0.00  0.00    +0.000 HD
ENDBRANCH   1  13
BRANCH   3  18
ATOM     18  C   UNL     1       1.963   6.991  19.349  0.00  0.00    +0.000 A 
ATOM     19  C   UNL     1       1.694   6.465  20.623  0.00  0.00    +0.000 A 
ATOM     20  C   UNL     1       1.943   5.123  20.917  0.00  0.00    +0.000 A 
ATOM     21  C   UNL     1       2.458   4.280  19.939  0.00  0.00    +0.000 A 
ATOM     22  C   UNL     1       2.710   4.749  18.644  0.00  0.00    +0.000 A 
ATOM     23  C   UNL     1       2.471   6.111  18.376  0.00  0.00    +0.000 A 
BRANCH  22  24
ATOM     24  C   UNL     1       3.275   3.854  17.554  0.00  0.00    +0.000 C 
BRANCH  24  25
ATOM     25  C   UNL     1       4.694   4.261  17.114  0.00  0.00    +0.000 C 
BRANCH  25  26
ATOM     26  N   UNL     1       4.805   5.236  16.015  0.00  0.00    +0.000 NA
ATOM     27  C   UNL     1       5.539   4.731  14.836  0.00  0.00    +0.000 C 
ATOM     28  C   UNL     1       7.040   4.513  15.086  0.00  0.00    +0.000 C 
ATOM     29  O   UNL     1       7.676   5.705  15.568  0.00  0.00    +0.000 OA
ATOM     30  C   UNL     1       7.029   6.198  16.748  0.00  0.00    +0.000 C 
ATOM     31  C   UNL     1       5.527   6.443  16.499  0.00  0.00    +0.000 C 
ENDBRANCH  25  26
ENDBRANCH  24  25
ENDBRANCH  22  24
ENDBRANCH   3  18
BRANCH   6  32
ATOM     32  N   UNL     1       1.469  12.505  18.166  0.00  0.00    +0.000 N 
ATOM     33  H   UNL     1       0.953  12.950  18.926  0.00  0.00    +0.000 HD
ATOM     34  H   UNL     1       2.413  12.876  18.121  0.00  0.00    +0.000 HD
ENDBRANCH   6  32
TORSDOF 6
ENDMDL
MODEL 5
REMARK VINA RESULT:      -8.2      0.820      1.400
REMARK  Name = 
REMARK  7 active torsions:
REMARK  status: ('A' for Active; 'I' for Inactive)
REMARK    1  A    between atoms: C_1  and  C_2
REMARK    2  A    between atoms: C_7  and  C_8
REMARK    3  A    between atoms: C_10  and  C_11
REMARK    4  A    between atoms: C_15  and  C_16
REMARK    5  A    between atoms: C_16  and  C_17
REMARK    6  A    between atoms: C_17  and  N_18
REMARK    7  A    between atoms: C_27  and  N_28
REMARK                            x       y       z     vdW  Elec       q    Type
REMARK                         _______ _______ _______ _____ _____    ______ ____
ROOT
ATOM      1  C   UNL     1       0.971  10.361  19.759  0.00  0.00    +0.000 A 
ATOM      2  C   UNL     1       1.166   8.992  20.012  0.00  0.00    +0.000 A 
ATOM      3  C   UNL     1       1.815   8.167  19.086  0.00  0.00    +0.000 A 
ATOM      4  C   UNL     1       2.215   8.792  17.904  0.00  0.00    +0.000 A 
ATOM      5  N   UNL     1       2.074  10.114  17.631  0.00  0.00    +0.000 NA
ATOM      6  C   UNL     1       1.466  10.876  18.553  0.00  0.00    +0.000 A 
ENDROOT
BRANCH   1  13
ATOM      7  C   UNL     1      -3.665  13.665  24.438  0.00  0.00    +0.000 C 
ATOM      8  C   UNL     1      -2.478  13.430  23.548  0.00  0.00    +0.000 A 
ATOM      9  C   UNL     1      -1.503  14.423  23.377  0.00  0.00    +0.000 A 
ATOM     10  C   UNL     1      -0.378  14.218  22.567  0.00  0.00    +0.000 A 
ATOM     11  C   UNL     1      -0.275  12.974  21.947  0.00  0.00    +0.000 A 
ATOM     12  N   UNL     1       0.667  12.431  21.117  0.00  0.00    +0.000 N 
ATOM     13  C   UNL     1       0.253  11.176  20.734  0.00  0.00    +0.000 A 
ATOM     14  N   UNL     1      -0.870  10.858  21.355  0.00  0.00    +0.000 NA
ATOM     15  C   UNL     1      -1.221  11.967  22.086  0.00  0.00    +0.000 A 
ATOM     16  C   UNL     1      -2.345  12.192  22.893  0.00  0.00    +0.000 A 
ATOM     17  H   UNL     1       1.503  12.884  20.772  0.00  0.00    +0.000 HD
ENDBRANCH   1  13
BRANCH   3  18
ATOM     18  C   UNL     1       2.078   6.733  19.349  0.00  0.00    +0.000 A 
ATOM     19  C   UNL     1       1.881   6.185  20.628  0.00  0.00    +0.000 A 
ATOM     20  C   UNL     1       2.178   4.848  20.893  0.00  0.00    +0.000 A 
ATOM     21  C   UNL     1       2.672   4.030  19.884  0.00  0.00    +0.000 A 
ATOM     22  C   UNL     1       2.854   4.520  18.585  0.00  0.00    +0.000 A 
ATOM     23  C   UNL     1       2.567   5.878  18.344  0.00  0.00    +0.000 A 
BRANCH  22  24
ATOM     24  C   UNL     1       3.394   3.654  17.460  0.00  0.00    +0.000 C 
BRANCH  24  25
ATOM     25  C   UNL     1       4.443   4.375  16.592  0.00  0.00    +0.000 C 
BRANCH  25  26
ATOM     26  N   UNL     1       5.795   3.792  16.545  0.00  0.00    +0.000 NA
ATOM     27  C   UNL     1       6.795   4.528  17.346  0.00  0.00    +0.000 C 
ATOM     28  C   UNL     1       7.138   5.918  16.786  0.00  0.00    +0.000 C 
ATOM     29  O   UNL     1       7.579   5.845  15.423  0.00  0.00    +0.000 OA
ATOM     30  C   UNL     1       6.610   5.187  14.597  0.00  0.00    +0.000 C 
ATOM     31  C   UNL     1       6.279   3.782  15.138  0.00  0.00    +0.000 C 
ENDBRANCH  25  26
ENDBRANCH  24  25
ENDBRANCH  22  24
ENDBRANCH   3  18
BRANCH   6  32
ATOM     32  N   UNL     1       1.370  12.234  18.221  0.00  0.00    +0.000 N 
ATOM     33  H   UNL     1       1.163  12.249  17.222  0.00  0.00    +0.000 HD
ATOM     34  H   UNL     1       0.613  12.667  18.741  0.00  0.00    +0.000 HD
ENDBRANCH   6  32
TORSDOF 6
ENDMDL
MODEL 6
REMARK VINA RESULT:      -8.2      3.351      9.563
REMARK  Name = 
REMARK  7 active torsions:
REMARK  status: ('A' for Active; 'I' for Inactive)
REMARK    1  A    between atoms: C_1  and  C_2
REMARK    2  A    between atoms: C_7  and  C_8
REMARK    3  A    between atoms: C_10  and  C_11
REMARK    4  A    between atoms: C_15  and  C_16
REMARK    5  A    between atoms: C_16  and  C_17
REMARK    6  A    between atoms: C_17  and  N_18
REMARK    7  A    between atoms: C_27  and  N_28
REMARK                            x       y       z     vdW  Elec       q    Type
REMARK                         _______ _______ _______ _____ _____    ______ ____
ROOT
ATOM      1  C   UNL     1       3.210   5.692  19.040  0.00  0.00    +0.000 A 
ATOM      2  C   UNL     1       2.607   6.947  19.241  0.00  0.00    +0.000 A 
ATOM      3  C   UNL     1       1.758   7.178  20.329  0.00  0.00    +0.000 A 
ATOM      4  C   UNL     1       1.534   6.079  21.159  0.00  0.00    +0.000 A 
ATOM      5  N   UNL     1       2.117   4.861  21.020  0.00  0.00    +0.000 NA
ATOM      6  C   UNL     1       2.942   4.685  19.977  0.00  0.00    +0.000 A 
ENDROOT
BRANCH   1  13
ATOM      7  C   UNL     1       6.637   3.668  12.838  0.00  0.00    +0.000 C 
ATOM      8  C   UNL     1       6.386   4.302  14.176  0.00  0.00    +0.000 A 
ATOM      9  C   UNL     1       7.394   5.030  14.825  0.00  0.00    +0.000 A 
ATOM     10  C   UNL     1       7.176   5.646  16.064  0.00  0.00    +0.000 A 
ATOM     11  C   UNL     1       5.903   5.504  16.615  0.00  0.00    +0.000 A 
ATOM     12  N   UNL     1       5.341   5.966  17.774  0.00  0.00    +0.000 N 
ATOM     13  C   UNL     1       4.057   5.482  17.870  0.00  0.00    +0.000 A 
ATOM     14  N   UNL     1       3.743   4.804  16.779  0.00  0.00    +0.000 NA
ATOM     15  C   UNL     1       4.880   4.787  16.008  0.00  0.00    +0.000 A 
ATOM     16  C   UNL     1       5.119   4.170  14.773  0.00  0.00    +0.000 A 
ATOM     17  H   UNL     1       5.797   6.515  18.490  0.00  0.00    +0.000 HD
ENDBRANCH   1  13
BRANCH   3  18
ATOM     18  C   UNL     1       1.151   8.504  20.592  0.00  0.00    +0.000 A 
ATOM     19  C   UNL     1       0.765   8.878  21.890  0.00  0.00    +0.000 A 
ATOM     20  C   UNL     1       0.144  10.104  22.134  0.00  0.00    +0.000 A 
ATOM     21  C   UNL     1      -0.098  10.983  21.084  0.00  0.00    +0.000 A 
ATOM     22  C   UNL     1       0.298  10.670  19.778  0.00  0.00    +0.000 A 
ATOM     23  C   UNL     1       0.905   9.420  19.552  0.00  0.00    +0.000 A 
BRANCH  22  24
ATOM     24  C   UNL     1       0.046  11.608  18.610  0.00  0.00    +0.000 C 
BRANCH  24  25
ATOM     25  C   UNL     1      -1.449  11.765  18.272  0.00  0.00    +0.000 C 
BRANCH  25  26
ATOM     26  N   UNL     1      -2.243  10.531  18.138  0.00  0.00    +0.000 NA
ATOM     27  C   UNL     1      -2.076   9.848  16.838  0.00  0.00    +0.000 C 
ATOM     28  C   UNL     1      -2.672  10.621  15.650  0.00  0.00    +0.000 C 
ATOM     29  O   UNL     1      -4.060  10.921  15.856  0.00  0.00    +0.000 OA
ATOM     30  C   UNL     1      -4.260  11.636  17.082  0.00  0.00    +0.000 C 
ATOM     31  C   UNL     1      -3.687  10.856  18.282  0.00  0.00    +0.000 C 
ENDBRANCH  25  26
ENDBRANCH  24  25
ENDBRANCH  22  24
ENDBRANCH   3  18
BRANCH   6  32
ATOM     32  N   UNL     1       3.527   3.413  19.900  0.00  0.00    +0.000 N 
ATOM     33  H   UNL     1       2.877   2.793  20.385  0.00  0.00    +0.000 HD
ATOM     34  H   UNL     1       3.621   3.132  18.929  0.00  0.00    +0.000 HD
ENDBRANCH   6  32
TORSDOF 6
ENDMDL
MODEL 7
REMARK VINA RESULT:      -8.2      2.976      4.671
REMARK  Name = 
REMARK  7 active torsions:
REMARK  status: ('A' for Active; 'I' for Inactive)
REMARK    1  A    between atoms: C_1  and  C_2
REMARK    2  A    between atoms: C_7  and  C_8
REMARK    3  A    between atoms: C_10  and  C_11
REMARK    4  A    between atoms: C_15  and  C_16
REMARK    5  A    between atoms: C_16  and  C_17
REMARK    6  A    between atoms: C_17  and  N_18
REMARK    7  A    between atoms: C_27  and  N_28
REMARK                            x       y       z     vdW  Elec       q    Type
REMARK                         _______ _______ _______ _____ _____    ______ ____
ROOT
ATOM      1  C   UNL     1      -1.259  12.377  20.306  0.00  0.00    +0.000 A 
ATOM      2  C   UNL     1      -0.605  11.150  20.093  0.00  0.00    +0.000 A 
ATOM      3  C   UNL     1       0.485  11.051  19.221  0.00  0.00    +0.000 A 
ATOM      4  C   UNL     1       0.840  12.231  18.568  0.00  0.00    +0.000 A 
ATOM      5  N   UNL     1       0.257  13.441  18.766  0.00  0.00    +0.000 NA
ATOM      6  C   UNL     1      -0.770  13.500  19.626  0.00  0.00    +0.000 A 
ENDROOT
BRANCH   1  13
ATOM      7  C   UNL     1      -7.671  13.322  23.813  0.00  0.00    +0.000 C 
ATOM      8  C   UNL     1      -6.221  13.019  23.569  0.00  0.00    +0.000 A 
ATOM      9  C   UNL     1      -5.372  12.678  24.631  0.00  0.00    +0.000 A 
ATOM     10  C   UNL     1      -4.020  12.373  24.425  0.00  0.00    +0.000 A 
ATOM     11  C   UNL     1      -3.565  12.419  23.108  0.00  0.00    +0.000 A 
ATOM     12  N   UNL     1      -2.342  12.178  22.545  0.00  0.00    +0.000 N 
ATOM     13  C   UNL     1      -2.417  12.429  21.194  0.00  0.00    +0.000 A 
ATOM     14  N   UNL     1      -3.659  12.734  20.855  0.00  0.00    +0.000 NA
ATOM     15  C   UNL     1      -4.372  12.757  22.030  0.00  0.00    +0.000 A 
ATOM     16  C   UNL     1      -5.719  13.069  22.255  0.00  0.00    +0.000 A 
ATOM     17  H   UNL     1      -1.492  11.923  23.029  0.00  0.00    +0.000 HD
ENDBRANCH   1  13
BRANCH   3  18
ATOM     18  C   UNL     1       1.223   9.782  19.017  0.00  0.00    +0.000 A 
ATOM     19  C   UNL     1       1.940   9.545  17.833  0.00  0.00    +0.000 A 
ATOM     20  C   UNL     1       2.592   8.330  17.615  0.00  0.00    +0.000 A 
ATOM     21  C   UNL     1       2.544   7.330  18.580  0.00  0.00    +0.000 A 
ATOM     22  C   UNL     1       1.870   7.531  19.790  0.00  0.00    +0.000 A 
ATOM     23  C   UNL     1       1.202   8.757  19.981  0.00  0.00    +0.000 A 
BRANCH  22  24
ATOM     24  C   UNL     1       1.796   6.458  20.863  0.00  0.00    +0.000 C 
BRANCH  24  25
ATOM     25  C   UNL     1       2.557   5.172  20.486  0.00  0.00    +0.000 C 
BRANCH  25  26
ATOM     26  N   UNL     1       1.961   3.891  20.902  0.00  0.00    +0.000 NA
ATOM     27  C   UNL     1       2.909   2.758  20.893  0.00  0.00    +0.000 C 
ATOM     28  C   UNL     1       3.365   2.339  19.486  0.00  0.00    +0.000 C 
ATOM     29  O   UNL     1       2.249   2.034  18.637  0.00  0.00    +0.000 OA
ATOM     30  C   UNL     1       1.330   3.131  18.571  0.00  0.00    +0.000 C 
ATOM     31  C   UNL     1       0.849   3.541  19.977  0.00  0.00    +0.000 C 
ENDBRANCH  25  26
ENDBRANCH  24  25
ENDBRANCH  22  24
ENDBRANCH   3  18
BRANCH   6  32
ATOM     32  N   UNL     1      -1.315  14.780  19.802  0.00  0.00    +0.000 N 
ATOM     33  H   UNL     1      -1.757  15.005  18.910  0.00  0.00    +0.000 HD
ATOM     34  H   UNL     1      -2.010  14.764  20.542  0.00  0.00    +0.000 HD
ENDBRANCH   6  32
TORSDOF 6
ENDMDL
MODEL 8
REMARK VINA RESULT:      -8.2      0.623      1.160
REMARK  Name = 
REMARK  7 active torsions:
REMARK  status: ('A' for Active; 'I' for Inactive)
REMARK    1  A    between atoms: C_1  and  C_2
REMARK    2  A    between atoms: C_7  and  C_8
REMARK    3  A    between atoms: C_10  and  C_11
REMARK    4  A    between atoms: C_15  and  C_16
REMARK    5  A    between atoms: C_16  and  C_17
REMARK    6  A    between atoms: C_17  and  N_18
REMARK    7  A    between atoms: C_27  and  N_28
REMARK                            x       y       z     vdW  Elec       q    Type
REMARK                         _______ _______ _______ _____ _____    ______ ____
ROOT
ATOM      1  C   UNL     1       1.191   9.962  19.646  0.00  0.00    +0.000 A 
ATOM      2  C   UNL     1       1.390   8.626  20.037  0.00  0.00    +0.000 A 
ATOM      3  C   UNL     1       2.040   7.714  19.198  0.00  0.00    +0.000 A 
ATOM      4  C   UNL     1       2.436   8.216  17.958  0.00  0.00    +0.000 A 
ATOM      5  N   UNL     1       2.290   9.504  17.552  0.00  0.00    +0.000 NA
ATOM      6  C   UNL     1       1.682  10.353  18.393  0.00  0.00    +0.000 A 
ENDROOT
BRANCH   1  13
ATOM      7  C   UNL     1      -1.382  15.323  24.000  0.00  0.00    +0.000 C 
ATOM      8  C   UNL     1      -1.225  13.979  23.349  0.00  0.00    +0.000 A 
ATOM      9  C   UNL     1      -2.044  12.903  23.721  0.00  0.00    +0.000 A 
ATOM     10  C   UNL     1      -1.929  11.645  23.114  0.00  0.00    +0.000 A 
ATOM     11  C   UNL     1      -0.963  11.522  22.116  0.00  0.00    +0.000 A 
ATOM     12  N   UNL     1      -0.587  10.475  21.320  0.00  0.00    +0.000 N 
ATOM     13  C   UNL     1       0.472  10.870  20.535  0.00  0.00    +0.000 A 
ATOM     14  N   UNL     1       0.730  12.153  20.731  0.00  0.00    +0.000 NA
ATOM     15  C   UNL     1      -0.130  12.560  21.722  0.00  0.00    +0.000 A 
ATOM     16  C   UNL     1      -0.252  13.809  22.347  0.00  0.00    +0.000 A 
ATOM     17  H   UNL     1      -0.963   9.536  21.335  0.00  0.00    +0.000 HD
ENDBRANCH   1  13
BRANCH   3  18
ATOM     18  C   UNL     1       2.307   6.315  19.605  0.00  0.00    +0.000 A 
ATOM     19  C   UNL     1       1.709   5.769  20.753  0.00  0.00    +0.000 A 
ATOM     20  C   UNL     1       2.000   4.469  21.170  0.00  0.00    +0.000 A 
ATOM     21  C   UNL     1       2.891   3.687  20.444  0.00  0.00    +0.000 A 
ATOM     22  C   UNL     1       3.487   4.174  19.274  0.00  0.00    +0.000 A 
ATOM     23  C   UNL     1       3.195   5.495  18.883  0.00  0.00    +0.000 A 
BRANCH  22  24
ATOM     24  C   UNL     1       4.467   3.346  18.460  0.00  0.00    +0.000 C 
BRANCH  24  25
ATOM     25  C   UNL     1       4.585   3.816  16.997  0.00  0.00    +0.000 C 
BRANCH  25  26
ATOM     26  N   UNL     1       5.102   5.177  16.767  0.00  0.00    +0.000 NA
ATOM     27  C   UNL     1       5.297   5.510  15.341  0.00  0.00    +0.000 C 
ATOM     28  C   UNL     1       6.438   4.728  14.670  0.00  0.00    +0.000 C 
ATOM     29  O   UNL     1       7.678   4.893  15.373  0.00  0.00    +0.000 OA
ATOM     30  C   UNL     1       7.547   4.524  16.751  0.00  0.00    +0.000 C 
ATOM     31  C   UNL     1       6.421   5.322  17.438  0.00  0.00    +0.000 C 
ENDBRANCH  25  26
ENDBRANCH  24  25
ENDBRANCH  22  24
ENDBRANCH   3  18
BRANCH   6  32
ATOM     32  N   UNL     1       1.581  11.671  17.925  0.00  0.00    +0.000 N 
ATOM     33  H   UNL     1       1.587  12.252  18.764  0.00  0.00    +0.000 HD
ATOM     34  H   UNL     1       2.381  11.893  17.340  0.00  0.00    +0.000 HD
ENDBRANCH   6  32
TORSDOF 6
ENDMDL
MODEL 9
REMARK VINA RESULT:      -8.1      3.406      4.886
REMARK  Name = 
REMARK  7 active torsions:
REMARK  status: ('A' for Active; 'I' for Inactive)
REMARK    1  A    between atoms: C_1  and  C_2
REMARK    2  A    between atoms: C_7  and  C_8
REMARK    3  A    between atoms: C_10  and  C_11
REMARK    4  A    between atoms: C_15  and  C_16
REMARK    5  A    between atoms: C_16  and  C_17
REMARK    6  A    between atoms: C_17  and  N_18
REMARK    7  A    between atoms: C_27  and  N_28
REMARK                            x       y       z     vdW  Elec       q    Type
REMARK                         _______ _______ _______ _____ _____    ______ ____
ROOT
ATOM      1  C   UNL     1      -1.132  12.221  19.246  0.00  0.00    +0.000 A 
ATOM      2  C   UNL     1      -0.534  10.951  19.163  0.00  0.00    +0.000 A 
ATOM      3  C   UNL     1       0.816  10.805  18.824  0.00  0.00    +0.000 A 
ATOM      4  C   UNL     1       1.497  11.991  18.550  0.00  0.00    +0.000 A 
ATOM      5  N   UNL     1       0.969  13.238  18.647  0.00  0.00    +0.000 NA
ATOM      6  C   UNL     1      -0.323  13.337  18.995  0.00  0.00    +0.000 A 
ENDROOT
BRANCH   1  13
ATOM      7  C   UNL     1      -7.902  12.799  22.099  0.00  0.00    +0.000 C 
ATOM      8  C   UNL     1      -6.794  12.532  21.120  0.00  0.00    +0.000 A 
ATOM      9  C   UNL     1      -7.076  12.051  19.833  0.00  0.00    +0.000 A 
ATOM     10  C   UNL     1      -6.061  11.813  18.897  0.00  0.00    +0.000 A 
ATOM     11  C   UNL     1      -4.757  12.086  19.310  0.00  0.00    +0.000 A 
ATOM     12  N   UNL     1      -3.549  11.986  18.677  0.00  0.00    +0.000 N 
ATOM     13  C   UNL     1      -2.553  12.326  19.563  0.00  0.00    +0.000 A 
ATOM     14  N   UNL     1      -3.079  12.725  20.709  0.00  0.00    +0.000 NA
ATOM     15  C   UNL     1      -4.437  12.558  20.576  0.00  0.00    +0.000 A 
ATOM     16  C   UNL     1      -5.464  12.781  21.502  0.00  0.00    +0.000 A 
ATOM     17  H   UNL     1      -3.384  11.654  17.736  0.00  0.00    +0.000 HD
ENDBRANCH   1  13
BRANCH   3  18
ATOM     18  C   UNL     1       1.483   9.482  18.778  0.00  0.00    +0.000 A 
ATOM     19  C   UNL     1       2.297   9.120  17.692  0.00  0.00    +0.000 A 
ATOM     20  C   UNL     1       2.882   7.855  17.619  0.00  0.00    +0.000 A 
ATOM     21  C   UNL     1       2.671   6.930  18.635  0.00  0.00    +0.000 A 
ATOM     22  C   UNL     1       1.895   7.255  19.754  0.00  0.00    +0.000 A 
ATOM     23  C   UNL     1       1.297   8.530  19.797  0.00  0.00    +0.000 A 
BRANCH  22  24
ATOM     24  C   UNL     1       1.643   6.266  20.879  0.00  0.00    +0.000 C 
BRANCH  24  25
ATOM     25  C   UNL     1       2.565   5.033  20.818  0.00  0.00    +0.000 C 
BRANCH  25  26
ATOM     26  N   UNL     1       1.949   3.719  21.072  0.00  0.00    +0.000 NA
ATOM     27  C   UNL     1       2.891   2.585  20.967  0.00  0.00    +0.000 C 
ATOM     28  C   UNL     1       3.387   2.320  19.536  0.00  0.00    +0.000 C 
ATOM     29  O   UNL     1       2.296   2.120  18.626  0.00  0.00    +0.000 OA
ATOM     30  C   UNL     1       1.386   3.227  18.654  0.00  0.00    +0.000 C 
ATOM     31  C   UNL     1       0.864   3.484  20.081  0.00  0.00    +0.000 C 
ENDBRANCH  25  26
ENDBRANCH  24  25
ENDBRANCH  22  24
ENDBRANCH   3  18
BRANCH   6  32
ATOM     32  N   UNL     1      -0.803  14.651  19.099  0.00  0.00    +0.000 N 
ATOM     33  H   UNL     1      -0.668  14.906  20.077  0.00  0.00    +0.000 HD
ATOM     34  H   UNL     1      -0.262  15.266  18.499  0.00  0.00    +0.000 HD
ENDBRANCH   6  32
TORSDOF 6
ENDMDL
