MODEL 1
REMARK VINA RESULT:      -7.5      0.000      0.000
REMARK  Name = 
REMARK  2 active torsions:
REMARK  status: ('A' for Active; 'I' for Inactive)
REMARK    1  A    between atoms: S_2  and  C_4
REMARK    2  A    between atoms: S_2  and  N_12
REMARK                            x       y       z     vdW  Elec       q    Type
REMARK                         _______ _______ _______ _____ _____    ______ ____
ROOT
ATOM      1  O   UNL     1       5.951   4.057  19.063  0.00  0.00    +0.000 OA
ATOM      2  S   UNL     1       4.992   4.675  18.172  0.00  0.00    +0.000 S 
ATOM      3  O   UNL     1       4.389   5.954  18.477  0.00  0.00    +0.000 OA
ENDROOT
BRANCH   2   4
ATOM      4  C   UNL     1       5.774   4.794  16.596  0.00  0.00    +0.000 A 
ATOM      5  C   UNL     1       6.890   5.604  16.482  0.00  0.00    +0.000 A 
ATOM      6  N   UNL     1       7.585   5.751  15.329  0.00  0.00    +0.000 NA
ATOM      7  C   UNL     1       7.119   5.085  14.245  0.00  0.00    +0.000 A 
ATOM      8 CL   UNL     1       8.103   5.319  12.853  0.00  0.00    +0.000 Cl
ATOM      9  C   UNL     1       5.979   4.282  14.260  0.00  0.00    +0.000 A 
ATOM     10 BR   UNL     1       5.312   3.400  12.723  0.00  0.00    +0.000 Br
ATOM     11  C   UNL     1       5.292   4.128  15.469  0.00  0.00    +0.000 A 
ENDBRANCH   2   4
BRANCH   2  12
ATOM     12  N   UNL     1       3.762   3.563  17.879  0.00  0.00    +0.000 NA
ATOM     13  C   UNL     1       2.397   4.073  17.510  0.00  0.00    +0.000 C 
ATOM     14  C   UNL     1       1.475   3.234  18.439  0.00  0.00    +0.000 C 
ATOM     15  C   UNL     1       2.193   1.893  18.413  0.00  0.00    +0.000 C 
ATOM     16  C   UNL     1       3.493   2.508  18.930  0.00  0.00    +0.000 C 
ATOM     17  C   UNL     1       2.979   3.142  20.234  0.00  0.00    +0.000 C 
ATOM     18  N   UNL     1       1.630   3.648  19.864  0.00  0.00    +0.000 NA
ATOM     19  H   UNL     1       1.645   4.670  19.921  0.00  0.00    +0.000 HD
ENDBRANCH   2  12
TORSDOF 2
ENDMDL
MODEL 2
REMARK VINA RESULT:      -6.9      2.534      3.123
REMARK  Name = 
REMARK  2 active torsions:
REMARK  status: ('A' for Active; 'I' for Inactive)
REMARK    1  A    between atoms: S_2  and  C_4
REMARK    2  A    between atoms: S_2  and  N_12
REMARK                            x       y       z     vdW  Elec       q    Type
REMARK                         _______ _______ _______ _____ _____    ______ ____
ROOT
ATOM      1  O   UNL     1       3.654   1.677  18.467  0.00  0.00    +0.000 OA
ATOM      2  S   UNL     1       4.258   2.491  19.500  0.00  0.00    +0.000 S 
ATOM      3  O   UNL     1       5.138   1.922  20.497  0.00  0.00    +0.000 OA
ENDROOT
BRANCH   2   4
ATOM      4  C   UNL     1       5.122   3.789  18.676  0.00  0.00    +0.000 A 
ATOM      5  C   UNL     1       5.785   4.724  19.451  0.00  0.00    +0.000 A 
ATOM      6  N   UNL     1       6.501   5.748  18.929  0.00  0.00    +0.000 NA
ATOM      7  C   UNL     1       6.522   5.852  17.578  0.00  0.00    +0.000 A 
ATOM      8 CL   UNL     1       7.491   7.164  17.031  0.00  0.00    +0.000 Cl
ATOM      9  C   UNL     1       5.849   4.980  16.723  0.00  0.00    +0.000 A 
ATOM     10 BR   UNL     1       5.845   5.172  14.839  0.00  0.00    +0.000 Br
ATOM     11  C   UNL     1       5.135   3.918  17.288  0.00  0.00    +0.000 A 
ENDBRANCH   2   4
BRANCH   2  12
ATOM     12  N   UNL     1       3.028   3.327  20.292  0.00  0.00    +0.000 NA
ATOM     13  C   UNL     1       2.060   2.554  21.143  0.00  0.00    +0.000 C 
ATOM     14  C   UNL     1       0.691   3.127  20.679  0.00  0.00    +0.000 C 
ATOM     15  C   UNL     1       1.052   4.591  20.474  0.00  0.00    +0.000 C 
ATOM     16  C   UNL     1       2.149   4.244  19.469  0.00  0.00    +0.000 C 
ATOM     17  C   UNL     1       1.322   3.449  18.445  0.00  0.00    +0.000 C 
ATOM     18  N   UNL     1       0.367   2.684  19.291  0.00  0.00    +0.000 NA
ATOM     19  H   UNL     1       0.580   1.688  19.194  0.00  0.00    +0.000 HD
ENDBRANCH   2  12
TORSDOF 2
ENDMDL
MODEL 3
REMARK VINA RESULT:      -6.6      3.961      5.983
REMARK  Name = 
REMARK  2 active torsions:
REMARK  status: ('A' for Active; 'I' for Inactive)
REMARK    1  A    between atoms: S_2  and  C_4
REMARK    2  A    between atoms: S_2  and  N_12
REMARK                            x       y       z     vdW  Elec       q    Type
REMARK                         _______ _______ _______ _____ _____    ______ ____
ROOT
ATOM      1  O   UNL     1       5.099   3.496  19.218  0.00  0.00    +0.000 OA
ATOM      2  S   UNL     1       4.185   3.958  18.196  0.00  0.00    +0.000 S 
ATOM      3  O   UNL     1       3.262   3.057  17.539  0.00  0.00    +0.000 OA
ENDROOT
BRANCH   2   4
ATOM      4  C   UNL     1       3.256   5.276  18.910  0.00  0.00    +0.000 A 
ATOM      5  C   UNL     1       2.719   5.085  20.172  0.00  0.00    +0.000 A 
ATOM      6  N   UNL     1       2.012   6.034  20.828  0.00  0.00    +0.000 NA
ATOM      7  C   UNL     1       1.809   7.205  20.176  0.00  0.00    +0.000 A 
ATOM      8 CL   UNL     1       0.932   8.344  21.122  0.00  0.00    +0.000 Cl
ATOM      9  C   UNL     1       2.276   7.467  18.889  0.00  0.00    +0.000 A 
ATOM     10 BR   UNL     1       1.937   9.089  17.973  0.00  0.00    +0.000 Br
ATOM     11  C   UNL     1       3.024   6.478  18.242  0.00  0.00    +0.000 A 
ENDBRANCH   2   4
BRANCH   2  12
ATOM     12  N   UNL     1       5.083   4.754  17.013  0.00  0.00    +0.000 NA
ATOM     13  C   UNL     1       5.748   3.940  15.939  0.00  0.00    +0.000 C 
ATOM     14  C   UNL     1       7.181   4.542  15.915  0.00  0.00    +0.000 C 
ATOM     15  C   UNL     1       6.872   6.014  16.150  0.00  0.00    +0.000 C 
ATOM     16  C   UNL     1       6.158   5.718  17.468  0.00  0.00    +0.000 C 
ATOM     17  C   UNL     1       7.283   4.983  18.215  0.00  0.00    +0.000 C 
ATOM     18  N   UNL     1       7.937   4.176  17.149  0.00  0.00    +0.000 NA
ATOM     19  H   UNL     1       7.786   3.187  17.359  0.00  0.00    +0.000 HD
ENDBRANCH   2  12
TORSDOF 2
ENDMDL
MODEL 4
REMARK VINA RESULT:      -6.6      4.987      5.922
REMARK  Name = 
REMARK  2 active torsions:
REMARK  status: ('A' for Active; 'I' for Inactive)
REMARK    1  A    between atoms: S_2  and  C_4
REMARK    2  A    between atoms: S_2  and  N_12
REMARK                            x       y       z     vdW  Elec       q    Type
REMARK                         _______ _______ _______ _____ _____    ______ ____
ROOT
ATOM      1  O   UNL     1       3.735   5.685  17.223  0.00  0.00    +0.000 OA
ATOM      2  S   UNL     1       3.381   5.690  18.626  0.00  0.00    +0.000 S 
ATOM      3  O   UNL     1       4.380   5.543  19.662  0.00  0.00    +0.000 OA
ENDROOT
BRANCH   2   4
ATOM      4  C   UNL     1       2.501   7.191  18.917  0.00  0.00    +0.000 A 
ATOM      5  C   UNL     1       2.362   8.078  17.865  0.00  0.00    +0.000 A 
ATOM      6  N   UNL     1       1.686   9.247  17.964  0.00  0.00    +0.000 NA
ATOM      7  C   UNL     1       1.161   9.548  19.177  0.00  0.00    +0.000 A 
ATOM      8 CL   UNL     1       0.296  11.035  19.171  0.00  0.00    +0.000 Cl
ATOM      9  C   UNL     1       1.290   8.733  20.301  0.00  0.00    +0.000 A 
ATOM     10 BR   UNL     1       0.595   9.194  22.001  0.00  0.00    +0.000 Br
ATOM     11  C   UNL     1       1.973   7.520  20.165  0.00  0.00    +0.000 A 
ENDBRANCH   2   4
BRANCH   2  12
ATOM     12  N   UNL     1       2.189   4.525  18.867  0.00  0.00    +0.000 NA
ATOM     13  C   UNL     1       2.105   3.840  20.202  0.00  0.00    +0.000 C 
ATOM     14  C   UNL     1       1.978   2.345  19.794  0.00  0.00    +0.000 C 
ATOM     15  C   UNL     1       1.095   2.464  18.560  0.00  0.00    +0.000 C 
ATOM     16  C   UNL     1       2.086   3.396  17.864  0.00  0.00    +0.000 C 
ATOM     17  C   UNL     1       3.343   2.510  17.895  0.00  0.00    +0.000 C 
ATOM     18  N   UNL     1       3.258   1.836  19.219  0.00  0.00    +0.000 NA
ATOM     19  H   UNL     1       4.040   2.160  19.793  0.00  0.00    +0.000 HD
ENDBRANCH   2  12
TORSDOF 2
ENDMDL
MODEL 5
REMARK VINA RESULT:      -6.5      1.280      1.457
REMARK  Name = 
REMARK  2 active torsions:
REMARK  status: ('A' for Active; 'I' for Inactive)
REMARK    1  A    between atoms: S_2  and  C_4
REMARK    2  A    between atoms: S_2  and  N_12
REMARK                            x       y       z     vdW  Elec       q    Type
REMARK                         _______ _______ _______ _____ _____    ______ ____
ROOT
ATOM      1  O   UNL     1       5.547   3.051  18.837  0.00  0.00    +0.000 OA
ATOM      2  S   UNL     1       5.418   4.459  18.527  0.00  0.00    +0.000 S 
ATOM      3  O   UNL     1       6.018   5.477  19.361  0.00  0.00    +0.000 OA
ENDROOT
BRANCH   2   4
ATOM      4  C   UNL     1       6.015   4.668  16.882  0.00  0.00    +0.000 A 
ATOM      5  C   UNL     1       7.084   5.524  16.681  0.00  0.00    +0.000 A 
ATOM      6  N   UNL     1       7.642   5.742  15.467  0.00  0.00    +0.000 NA
ATOM      7  C   UNL     1       7.081   5.101  14.412  0.00  0.00    +0.000 A 
ATOM      8 CL   UNL     1       7.897   5.426  12.933  0.00  0.00    +0.000 Cl
ATOM      9  C   UNL     1       5.978   4.256  14.517  0.00  0.00    +0.000 A 
ATOM     10 BR   UNL     1       5.174   3.411  13.026  0.00  0.00    +0.000 Br
ATOM     11  C   UNL     1       5.434   4.030  15.786  0.00  0.00    +0.000 A 
ENDBRANCH   2   4
BRANCH   2  12
ATOM     12  N   UNL     1       3.778   4.807  18.360  0.00  0.00    +0.000 NA
ATOM     13  C   UNL     1       3.285   6.173  18.746  0.00  0.00    +0.000 C 
ATOM     14  C   UNL     1       2.030   5.835  19.601  0.00  0.00    +0.000 C 
ATOM     15  C   UNL     1       1.480   4.642  18.835  0.00  0.00    +0.000 C 
ATOM     16  C   UNL     1       2.782   3.859  18.993  0.00  0.00    +0.000 C 
ATOM     17  C   UNL     1       2.906   3.868  20.526  0.00  0.00    +0.000 C 
ATOM     18  N   UNL     1       2.419   5.222  20.905  0.00  0.00    +0.000 NA
ATOM     19  H   UNL     1       3.204   5.743  21.305  0.00  0.00    +0.000 HD
ENDBRANCH   2  12
TORSDOF 2
ENDMDL
MODEL 6
REMARK VINA RESULT:      -6.4      2.704      3.400
REMARK  Name = 
REMARK  2 active torsions:
REMARK  status: ('A' for Active; 'I' for Inactive)
REMARK    1  A    between atoms: S_2  and  C_4
REMARK    2  A    between atoms: S_2  and  N_12
REMARK                            x       y       z     vdW  Elec       q    Type
REMARK                         _______ _______ _______ _____ _____    ______ ____
ROOT
ATOM      1  O   UNL     1       3.367   1.390  18.771  0.00  0.00    +0.000 OA
ATOM      2  S   UNL     1       4.173   2.345  19.501  0.00  0.00    +0.000 S 
ATOM      3  O   UNL     1       5.231   1.921  20.392  0.00  0.00    +0.000 OA
ENDROOT
BRANCH   2   4
ATOM      4  C   UNL     1       4.863   3.440  18.304  0.00  0.00    +0.000 A 
ATOM      5  C   UNL     1       4.491   3.277  16.981  0.00  0.00    +0.000 A 
ATOM      6  N   UNL     1       4.937   4.074  15.981  0.00  0.00    +0.000 NA
ATOM      7  C   UNL     1       5.816   5.048  16.321  0.00  0.00    +0.000 A 
ATOM      8 CL   UNL     1       6.281   6.016  14.978  0.00  0.00    +0.000 Cl
ATOM      9  C   UNL     1       6.277   5.255  17.620  0.00  0.00    +0.000 A 
ATOM     10 BR   UNL     1       7.546   6.587  18.069  0.00  0.00    +0.000 Br
ATOM     11  C   UNL     1       5.783   4.433  18.638  0.00  0.00    +0.000 A 
ENDBRANCH   2   4
BRANCH   2  12
ATOM     12  N   UNL     1       3.133   3.359  20.355  0.00  0.00    +0.000 NA
ATOM     13  C   UNL     1       2.204   2.755  21.369  0.00  0.00    +0.000 C 
ATOM     14  C   UNL     1       0.851   3.436  21.017  0.00  0.00    +0.000 C 
ATOM     15  C   UNL     1       1.326   4.835  20.654  0.00  0.00    +0.000 C 
ATOM     16  C   UNL     1       2.255   4.305  19.564  0.00  0.00    +0.000 C 
ATOM     17  C   UNL     1       1.238   3.532  18.707  0.00  0.00    +0.000 C 
ATOM     18  N   UNL     1       0.321   2.934  19.715  0.00  0.00    +0.000 NA
ATOM     19  H   UNL     1       0.424   1.917  19.676  0.00  0.00    +0.000 HD
ENDBRANCH   2  12
TORSDOF 2
ENDMDL
MODEL 7
REMARK VINA RESULT:      -6.4      3.164      3.597
REMARK  Name = 
REMARK  2 active torsions:
REMARK  status: ('A' for Active; 'I' for Inactive)
REMARK    1  A    between atoms: S_2  and  C_4
REMARK    2  A    between atoms: S_2  and  N_12
REMARK                            x       y       z     vdW  Elec       q    Type
REMARK                         _______ _______ _______ _____ _____    ______ ____
ROOT
ATOM      1  O   UNL     1       1.922   5.312  17.808  0.00  0.00    +0.000 OA
ATOM      2  S   UNL     1       3.018   4.366  17.822  0.00  0.00    +0.000 S 
ATOM      3  O   UNL     1       3.128   3.317  16.832  0.00  0.00    +0.000 OA
ENDROOT
BRANCH   2   4
ATOM      4  C   UNL     1       4.503   5.317  17.788  0.00  0.00    +0.000 A 
ATOM      5  C   UNL     1       4.626   6.299  16.821  0.00  0.00    +0.000 A 
ATOM      6  N   UNL     1       5.708   7.105  16.715  0.00  0.00    +0.000 NA
ATOM      7  C   UNL     1       6.717   6.893  17.595  0.00  0.00    +0.000 A 
ATOM      8 CL   UNL     1       8.017   8.000  17.387  0.00  0.00    +0.000 Cl
ATOM      9  C   UNL     1       6.695   5.899  18.573  0.00  0.00    +0.000 A 
ATOM     10 BR   UNL     1       8.137   5.582  19.759  0.00  0.00    +0.000 Br
ATOM     11  C   UNL     1       5.556   5.095  18.675  0.00  0.00    +0.000 A 
ENDBRANCH   2   4
BRANCH   2  12
ATOM     12  N   UNL     1       3.079   3.663  19.352  0.00  0.00    +0.000 NA
ATOM     13  C   UNL     1       2.611   2.244  19.516  0.00  0.00    +0.000 C 
ATOM     14  C   UNL     1       1.701   2.346  20.772  0.00  0.00    +0.000 C 
ATOM     15  C   UNL     1       2.482   3.351  21.606  0.00  0.00    +0.000 C 
ATOM     16  C   UNL     1       2.429   4.404  20.500  0.00  0.00    +0.000 C 
ATOM     17  C   UNL     1       0.906   4.501  20.307  0.00  0.00    +0.000 C 
ATOM     18  N   UNL     1       0.447   3.095  20.467  0.00  0.00    +0.000 NA
ATOM     19  H   UNL     1       0.071   2.778  19.570  0.00  0.00    +0.000 HD
ENDBRANCH   2  12
TORSDOF 2
ENDMDL
MODEL 8
REMARK VINA RESULT:      -6.3      4.721      5.367
REMARK  Name = 
REMARK  2 active torsions:
REMARK  status: ('A' for Active; 'I' for Inactive)
REMARK    1  A    between atoms: S_2  and  C_4
REMARK    2  A    between atoms: S_2  and  N_12
REMARK                            x       y       z     vdW  Elec       q    Type
REMARK                         _______ _______ _______ _____ _____    ______ ____
ROOT
ATOM      1  O   UNL     1       4.439   4.824  17.438  0.00  0.00    +0.000 OA
ATOM      2  S   UNL     1       4.231   5.182  18.824  0.00  0.00    +0.000 S 
ATOM      3  O   UNL     1       5.340   5.412  19.724  0.00  0.00    +0.000 OA
ENDROOT
BRANCH   2   4
ATOM      4  C   UNL     1       3.212   6.621  18.825  0.00  0.00    +0.000 A 
ATOM      5  C   UNL     1       3.183   7.399  17.680  0.00  0.00    +0.000 A 
ATOM      6  N   UNL     1       2.419   8.509  17.557  0.00  0.00    +0.000 NA
ATOM      7  C   UNL     1       1.684   8.869  18.638  0.00  0.00    +0.000 A 
ATOM      8 CL   UNL     1       0.728  10.270  18.350  0.00  0.00    +0.000 Cl
ATOM      9  C   UNL     1       1.686   8.169  19.843  0.00  0.00    +0.000 A 
ATOM     10 BR   UNL     1       0.693   8.715  21.361  0.00  0.00    +0.000 Br
ATOM     11  C   UNL     1       2.466   7.012  19.936  0.00  0.00    +0.000 A 
ENDBRANCH   2   4
BRANCH   2  12
ATOM     12  N   UNL     1       3.217   4.027  19.515  0.00  0.00    +0.000 NA
ATOM     13  C   UNL     1       3.660   2.591  19.529  0.00  0.00    +0.000 C 
ATOM     14  C   UNL     1       2.388   1.853  19.026  0.00  0.00    +0.000 C 
ATOM     15  C   UNL     1       1.300   2.677  19.700  0.00  0.00    +0.000 C 
ATOM     16  C   UNL     1       1.781   3.968  19.040  0.00  0.00    +0.000 C 
ATOM     17  C   UNL     1       1.702   3.550  17.562  0.00  0.00    +0.000 C 
ATOM     18  N   UNL     1       2.144   2.129  17.580  0.00  0.00    +0.000 NA
ATOM     19  H   UNL     1       3.027   2.063  17.068  0.00  0.00    +0.000 HD
ENDBRANCH   2  12
TORSDOF 2
ENDMDL
MODEL 9
REMARK VINA RESULT:      -6.2      2.546      2.950
REMARK  Name = 
REMARK  2 active torsions:
REMARK  status: ('A' for Active; 'I' for Inactive)
REMARK    1  A    between atoms: S_2  and  C_4
REMARK    2  A    between atoms: S_2  and  N_12
REMARK                            x       y       z     vdW  Elec       q    Type
REMARK                         _______ _______ _______ _____ _____    ______ ____
ROOT
ATOM      1  O   UNL     1       3.755   1.357  17.915  0.00  0.00    +0.000 OA
ATOM      2  S   UNL     1       3.875   2.331  18.978  0.00  0.00    +0.000 S 
ATOM      3  O   UNL     1       4.375   1.969  20.286  0.00  0.00    +0.000 OA
ENDROOT
BRANCH   2   4
ATOM      4  C   UNL     1       4.874   3.642  18.349  0.00  0.00    +0.000 A 
ATOM      5  C   UNL     1       5.381   4.563  19.247  0.00  0.00    +0.000 A 
ATOM      6  N   UNL     1       6.180   5.594  18.882  0.00  0.00    +0.000 NA
ATOM      7  C   UNL     1       6.448   5.720  17.560  0.00  0.00    +0.000 A 
ATOM      8 CL   UNL     1       7.499   7.040  17.222  0.00  0.00    +0.000 Cl
ATOM      9  C   UNL     1       5.945   4.863  16.582  0.00  0.00    +0.000 A 
ATOM     10 BR   UNL     1       6.287   5.086  14.733  0.00  0.00    +0.000 Br
ATOM     11  C   UNL     1       5.141   3.793  16.988  0.00  0.00    +0.000 A 
ENDBRANCH   2   4
BRANCH   2  12
ATOM     12  N   UNL     1       2.379   3.082  19.169  0.00  0.00    +0.000 NA
ATOM     13  C   UNL     1       2.249   4.537  18.819  0.00  0.00    +0.000 C 
ATOM     14  C   UNL     1       1.490   5.102  20.052  0.00  0.00    +0.000 C 
ATOM     15  C   UNL     1       0.539   3.951  20.349  0.00  0.00    +0.000 C 
ATOM     16  C   UNL     1       1.690   2.959  20.510  0.00  0.00    +0.000 C 
ATOM     17  C   UNL     1       2.492   3.670  21.614  0.00  0.00    +0.000 C 
ATOM     18  N   UNL     1       2.364   5.110  21.262  0.00  0.00    +0.000 NA
ATOM     19  H   UNL     1       3.291   5.461  21.010  0.00  0.00    +0.000 HD
ENDBRANCH   2  12
TORSDOF 2
ENDMDL
