MODEL 1
REMARK VINA RESULT:      -8.6      0.000      0.000
REMARK  Name = 
REMARK  10 active torsions:
REMARK  status: ('A' for Active; 'I' for Inactive)
REMARK    1  A    between atoms: C_1  and  C_2
REMARK    2  A    between atoms: C_2  and  C_3
REMARK    3  A    between atoms: C_3  and  C_4
REMARK    4  A    between atoms: C_3  and  C_5
REMARK    5  A    between atoms: C_5  and  C_6
REMARK    6  A    between atoms: C_6  and  O_8
REMARK    7  A    between atoms: O_8  and  N_9
REMARK    8  A    between atoms: C_10  and  C_11
REMARK    9  A    between atoms: C_10  and  C_17
REMARK   10  A    between atoms: C_11  and  N_12
REMARK                            x       y       z     vdW  Elec       q    Type
REMARK                         _______ _______ _______ _____ _____    ______ ____
ROOT
ATOM      1  N   UNL     1       5.777   3.974  15.567  0.00  0.00    +0.000 NA
ATOM      2  C   UNL     1       5.947   4.255  16.827  0.00  0.00    +0.000 C 
ENDROOT
BRANCH   2   3
ATOM      3  C   UNL     1       4.730   4.245  17.705  0.00  0.00    +0.000 A 
ATOM      4  C   UNL     1       3.639   5.046  17.363  0.00  0.00    +0.000 A 
ATOM      5  C   UNL     1       2.482   5.036  18.145  0.00  0.00    +0.000 A 
ATOM      6  C   UNL     1       2.392   4.223  19.284  0.00  0.00    +0.000 A 
ATOM      7  C   UNL     1       1.231   4.190  20.073  0.00  0.00    +0.000 A 
ATOM      8  C   UNL     1       1.158   3.378  21.206  0.00  0.00    +0.000 A 
ATOM      9  C   UNL     1       2.247   2.588  21.565  0.00  0.00    +0.000 A 
ATOM     10  C   UNL     1       3.407   2.606  20.789  0.00  0.00    +0.000 A 
ATOM     11  C   UNL     1       3.494   3.416  19.645  0.00  0.00    +0.000 A 
ATOM     12  C   UNL     1       4.655   3.438  18.851  0.00  0.00    +0.000 A 
ENDBRANCH   2   3
BRANCH   1  13
ATOM     13  O   UNL     1       6.968   3.998  14.811  0.00  0.00    +0.000 OA
BRANCH  13  14
ATOM     14  C   UNL     1       6.678   4.291  13.488  0.00  0.00    +0.000 C 
ATOM     15  O   UNL     1       7.369   4.923  12.702  0.00  0.00    +0.000 OA
BRANCH  14  16
ATOM     16  C   UNL     1       5.343   3.666  13.116  0.00  0.00    +0.000 C 
BRANCH  16  17
ATOM     17  C   UNL     1       5.277   3.178  11.657  0.00  0.00    +0.000 C 
ATOM     18  C   UNL     1       3.838   3.284  11.139  0.00  0.00    +0.000 C 
BRANCH  17  20
ATOM     19  C   UNL     1       7.235   1.680  10.980  0.00  0.00    +0.000 C 
ATOM     20  C   UNL     1       5.811   1.739  11.520  0.00  0.00    +0.000 C 
ENDBRANCH  17  20
ENDBRANCH  16  17
ENDBRANCH  14  16
ENDBRANCH  13  14
ENDBRANCH   1  13
BRANCH   2  21
ATOM     21  C   UNL     1       7.275   4.611  17.477  0.00  0.00    +0.000 C 
BRANCH  21  22
ATOM     22  N   UNL     1       7.459   6.035  17.689  0.00  0.00    +0.000 N 
ATOM     23  C   UNL     1       7.139   7.071  16.870  0.00  0.00    +0.000 A 
ATOM     24  N   UNL     1       7.588   8.194  17.384  0.00  0.00    +0.000 NA
ATOM     25  C   UNL     1       8.168   7.792  18.551  0.00  0.00    +0.000 A 
ATOM     26  N   UNL     1       8.093   6.481  18.797  0.00  0.00    +0.000 NA
ENDBRANCH  21  22
ENDBRANCH   2  21
TORSDOF 8
ENDMDL
MODEL 2
REMARK VINA RESULT:      -8.5      1.083      1.589
REMARK  Name = 
REMARK  10 active torsions:
REMARK  status: ('A' for Active; 'I' for Inactive)
REMARK    1  A    between atoms: C_1  and  C_2
REMARK    2  A    between atoms: C_2  and  C_3
REMARK    3  A    between atoms: C_3  and  C_4
REMARK    4  A    between atoms: C_3  and  C_5
REMARK    5  A    between atoms: C_5  and  C_6
REMARK    6  A    between atoms: C_6  and  O_8
REMARK    7  A    between atoms: O_8  and  N_9
REMARK    8  A    between atoms: C_10  and  C_11
REMARK    9  A    between atoms: C_10  and  C_17
REMARK   10  A    between atoms: C_11  and  N_12
REMARK                            x       y       z     vdW  Elec       q    Type
REMARK                         _______ _______ _______ _____ _____    ______ ____
ROOT
ATOM      1  N   UNL     1       6.097   4.436  15.395  0.00  0.00    +0.000 NA
ATOM      2  C   UNL     1       5.450   5.202  16.228  0.00  0.00    +0.000 C 
ENDROOT
BRANCH   2   3
ATOM      3  C   UNL     1       4.415   4.553  17.098  0.00  0.00    +0.000 A 
ATOM      4  C   UNL     1       4.102   3.207  16.893  0.00  0.00    +0.000 A 
ATOM      5  C   UNL     1       3.163   2.568  17.706  0.00  0.00    +0.000 A 
ATOM      6  C   UNL     1       2.519   3.261  18.741  0.00  0.00    +0.000 A 
ATOM      7  C   UNL     1       1.584   2.630  19.577  0.00  0.00    +0.000 A 
ATOM      8  C   UNL     1       0.949   3.335  20.602  0.00  0.00    +0.000 A 
ATOM      9  C   UNL     1       1.242   4.681  20.803  0.00  0.00    +0.000 A 
ATOM     10  C   UNL     1       2.172   5.321  19.984  0.00  0.00    +0.000 A 
ATOM     11  C   UNL     1       2.821   4.626  18.950  0.00  0.00    +0.000 A 
ATOM     12  C   UNL     1       3.766   5.259  18.123  0.00  0.00    +0.000 A 
ENDBRANCH   2   3
BRANCH   1  13
ATOM     13  O   UNL     1       7.056   5.120  14.619  0.00  0.00    +0.000 OA
BRANCH  13  14
ATOM     14  C   UNL     1       6.992   4.684  13.305  0.00  0.00    +0.000 C 
ATOM     15  O   UNL     1       7.642   5.100  12.356  0.00  0.00    +0.000 OA
BRANCH  14  16
ATOM     16  C   UNL     1       5.986   3.549  13.200  0.00  0.00    +0.000 C 
BRANCH  16  17
ATOM     17  C   UNL     1       5.601   3.201  11.751  0.00  0.00    +0.000 C 
ATOM     18  C   UNL     1       4.104   3.455  11.536  0.00  0.00    +0.000 C 
BRANCH  17  20
ATOM     19  C   UNL     1       7.418   1.591  10.949  0.00  0.00    +0.000 C 
ATOM     20  C   UNL     1       5.971   1.746  11.402  0.00  0.00    +0.000 C 
ENDBRANCH  17  20
ENDBRANCH  16  17
ENDBRANCH  14  16
ENDBRANCH  13  14
ENDBRANCH   1  13
BRANCH   2  21
ATOM     21  C   UNL     1       5.647   6.703  16.376  0.00  0.00    +0.000 C 
BRANCH  21  22
ATOM     22  N   UNL     1       6.775   7.064  17.214  0.00  0.00    +0.000 N 
ATOM     23  C   UNL     1       7.451   6.304  18.114  0.00  0.00    +0.000 A 
ATOM     24  N   UNL     1       8.325   7.049  18.753  0.00  0.00    +0.000 NA
ATOM     25  C   UNL     1       8.160   8.278  18.184  0.00  0.00    +0.000 A 
ATOM     26  N   UNL     1       7.239   8.334  17.218  0.00  0.00    +0.000 NA
ENDBRANCH  21  22
ENDBRANCH   2  21
TORSDOF 8
ENDMDL
MODEL 3
REMARK VINA RESULT:      -8.2      3.369      5.831
REMARK  Name = 
REMARK  10 active torsions:
REMARK  status: ('A' for Active; 'I' for Inactive)
REMARK    1  A    between atoms: C_1  and  C_2
REMARK    2  A    between atoms: C_2  and  C_3
REMARK    3  A    between atoms: C_3  and  C_4
REMARK    4  A    between atoms: C_3  and  C_5
REMARK    5  A    between atoms: C_5  and  C_6
REMARK    6  A    between atoms: C_6  and  O_8
REMARK    7  A    between atoms: O_8  and  N_9
REMARK    8  A    between atoms: C_10  and  C_11
REMARK    9  A    between atoms: C_10  and  C_17
REMARK   10  A    between atoms: C_11  and  N_12
REMARK                            x       y       z     vdW  Elec       q    Type
REMARK                         _______ _______ _______ _____ _____    ______ ____
ROOT
ATOM      1  N   UNL     1       4.221   4.853  19.639  0.00  0.00    +0.000 NA
ATOM      2  C   UNL     1       3.866   5.535  18.587  0.00  0.00    +0.000 C 
ENDROOT
BRANCH   2   3
ATOM      3  C   UNL     1       2.998   6.738  18.806  0.00  0.00    +0.000 A 
ATOM      4  C   UNL     1       2.822   7.647  17.761  0.00  0.00    +0.000 A 
ATOM      5  C   UNL     1       1.996   8.762  17.926  0.00  0.00    +0.000 A 
ATOM      6  C   UNL     1       1.329   8.989  19.138  0.00  0.00    +0.000 A 
ATOM      7  C   UNL     1       0.484  10.097  19.316  0.00  0.00    +0.000 A 
ATOM      8  C   UNL     1      -0.171  10.310  20.530  0.00  0.00    +0.000 A 
ATOM      9  C   UNL     1       0.012   9.418  21.583  0.00  0.00    +0.000 A 
ATOM     10  C   UNL     1       0.845   8.311  21.422  0.00  0.00    +0.000 A 
ATOM     11  C   UNL     1       1.509   8.080  20.205  0.00  0.00    +0.000 A 
ATOM     12  C   UNL     1       2.345   6.964  20.029  0.00  0.00    +0.000 A 
ENDBRANCH   2   3
BRANCH   1  13
ATOM     13  O   UNL     1       5.040   3.742  19.350  0.00  0.00    +0.000 OA
BRANCH  13  14
ATOM     14  C   UNL     1       4.552   2.618  19.998  0.00  0.00    +0.000 C 
ATOM     15  O   UNL     1       5.186   1.632  20.345  0.00  0.00    +0.000 OA
BRANCH  14  16
ATOM     16  C   UNL     1       3.066   2.796  20.261  0.00  0.00    +0.000 C 
BRANCH  16  17
ATOM     17  C   UNL     1       2.171   2.019  19.279  0.00  0.00    +0.000 C 
ATOM     18  C   UNL     1       2.848   1.947  17.905  0.00  0.00    +0.000 C 
BRANCH  17  20
ATOM     19  C   UNL     1       0.577   3.837  20.110  0.00  0.00    +0.000 C 
ATOM     20  C   UNL     1       0.768   2.650  19.174  0.00  0.00    +0.000 C 
ENDBRANCH  17  20
ENDBRANCH  16  17
ENDBRANCH  14  16
ENDBRANCH  13  14
ENDBRANCH   1  13
BRANCH   2  21
ATOM     21  C   UNL     1       4.246   5.198  17.153  0.00  0.00    +0.000 C 
BRANCH  21  22
ATOM     22  N   UNL     1       5.568   5.662  16.775  0.00  0.00    +0.000 N 
ATOM     23  C   UNL     1       6.333   5.296  15.713  0.00  0.00    +0.000 A 
ATOM     24  N   UNL     1       7.516   5.859  15.807  0.00  0.00    +0.000 NA
ATOM     25  C   UNL     1       7.421   6.594  16.952  0.00  0.00    +0.000 A 
ATOM     26  N   UNL     1       6.238   6.527  17.569  0.00  0.00    +0.000 NA
ENDBRANCH  21  22
ENDBRANCH   2  21
TORSDOF 8
ENDMDL
MODEL 4
REMARK VINA RESULT:      -8.2      3.677      6.136
REMARK  Name = 
REMARK  10 active torsions:
REMARK  status: ('A' for Active; 'I' for Inactive)
REMARK    1  A    between atoms: C_1  and  C_2
REMARK    2  A    between atoms: C_2  and  C_3
REMARK    3  A    between atoms: C_3  and  C_4
REMARK    4  A    between atoms: C_3  and  C_5
REMARK    5  A    between atoms: C_5  and  C_6
REMARK    6  A    between atoms: C_6  and  O_8
REMARK    7  A    between atoms: O_8  and  N_9
REMARK    8  A    between atoms: C_10  and  C_11
REMARK    9  A    between atoms: C_10  and  C_17
REMARK   10  A    between atoms: C_11  and  N_12
REMARK                            x       y       z     vdW  Elec       q    Type
REMARK                         _______ _______ _______ _____ _____    ______ ____
ROOT
ATOM      1  N   UNL     1       4.161   6.049  17.064  0.00  0.00    +0.000 NA
ATOM      2  C   UNL     1       3.552   5.999  18.214  0.00  0.00    +0.000 C 
ENDROOT
BRANCH   2   3
ATOM      3  C   UNL     1       2.727   7.187  18.609  0.00  0.00    +0.000 A 
ATOM      4  C   UNL     1       2.492   8.193  17.669  0.00  0.00    +0.000 A 
ATOM      5  C   UNL     1       1.703   9.298  17.999  0.00  0.00    +0.000 A 
ATOM      6  C   UNL     1       1.132   9.418  19.274  0.00  0.00    +0.000 A 
ATOM      7  C   UNL     1       0.325  10.515  19.617  0.00  0.00    +0.000 A 
ATOM      8  C   UNL     1      -0.233  10.622  20.892  0.00  0.00    +0.000 A 
ATOM      9  C   UNL     1       0.009   9.633  21.841  0.00  0.00    +0.000 A 
ATOM     10  C   UNL     1       0.806   8.534  21.515  0.00  0.00    +0.000 A 
ATOM     11  C   UNL     1       1.372   8.411  20.235  0.00  0.00    +0.000 A 
ATOM     12  C   UNL     1       2.171   7.305  19.893  0.00  0.00    +0.000 A 
ENDBRANCH   2   3
BRANCH   1  13
ATOM     13  O   UNL     1       4.910   4.892  16.763  0.00  0.00    +0.000 OA
BRANCH  13  14
ATOM     14  C   UNL     1       6.086   5.248  16.120  0.00  0.00    +0.000 C 
ATOM     15  O   UNL     1       6.196   5.806  15.038  0.00  0.00    +0.000 OA
BRANCH  14  16
ATOM     16  C   UNL     1       7.270   4.865  16.993  0.00  0.00    +0.000 C 
BRANCH  16  17
ATOM     17  C   UNL     1       7.689   5.971  17.979  0.00  0.00    +0.000 C 
ATOM     18  C   UNL     1       7.169   5.638  19.383  0.00  0.00    +0.000 C 
BRANCH  17  20
ATOM     19  C   UNL     1       8.152   8.483  17.883  0.00  0.00    +0.000 C 
ATOM     20  C   UNL     1       7.194   7.356  17.518  0.00  0.00    +0.000 C 
ENDBRANCH  17  20
ENDBRANCH  16  17
ENDBRANCH  14  16
ENDBRANCH  13  14
ENDBRANCH   1  13
BRANCH   2  21
ATOM     21  C   UNL     1       3.625   4.840  19.197  0.00  0.00    +0.000 C 
BRANCH  21  22
ATOM     22  N   UNL     1       2.516   3.911  19.088  0.00  0.00    +0.000 N 
ATOM     23  C   UNL     1       2.050   3.258  17.992  0.00  0.00    +0.000 A 
ATOM     24  N   UNL     1       0.949   2.610  18.299  0.00  0.00    +0.000 NA
ATOM     25  C   UNL     1       0.788   2.882  19.625  0.00  0.00    +0.000 A 
ATOM     26  N   UNL     1       1.736   3.655  20.163  0.00  0.00    +0.000 NA
ENDBRANCH  21  22
ENDBRANCH   2  21
TORSDOF 8
ENDMDL
MODEL 5
REMARK VINA RESULT:      -8.2      3.664      5.866
REMARK  Name = 
REMARK  10 active torsions:
REMARK  status: ('A' for Active; 'I' for Inactive)
REMARK    1  A    between atoms: C_1  and  C_2
REMARK    2  A    between atoms: C_2  and  C_3
REMARK    3  A    between atoms: C_3  and  C_4
REMARK    4  A    between atoms: C_3  and  C_5
REMARK    5  A    between atoms: C_5  and  C_6
REMARK    6  A    between atoms: C_6  and  O_8
REMARK    7  A    between atoms: O_8  and  N_9
REMARK    8  A    between atoms: C_10  and  C_11
REMARK    9  A    between atoms: C_10  and  C_17
REMARK   10  A    between atoms: C_11  and  N_12
REMARK                            x       y       z     vdW  Elec       q    Type
REMARK                         _______ _______ _______ _____ _____    ______ ____
ROOT
ATOM      1  N   UNL     1       5.097   5.629  19.241  0.00  0.00    +0.000 NA
ATOM      2  C   UNL     1       3.928   5.598  18.668  0.00  0.00    +0.000 C 
ENDROOT
BRANCH   2   3
ATOM      3  C   UNL     1       3.050   6.804  18.827  0.00  0.00    +0.000 A 
ATOM      4  C   UNL     1       2.944   7.711  17.771  0.00  0.00    +0.000 A 
ATOM      5  C   UNL     1       2.112   8.828  17.879  0.00  0.00    +0.000 A 
ATOM      6  C   UNL     1       1.368   9.059  19.045  0.00  0.00    +0.000 A 
ATOM      7  C   UNL     1       0.516  10.169  19.165  0.00  0.00    +0.000 A 
ATOM      8  C   UNL     1      -0.216  10.387  20.333  0.00  0.00    +0.000 A 
ATOM      9  C   UNL     1      -0.104   9.497  21.398  0.00  0.00    +0.000 A 
ATOM     10  C   UNL     1       0.735   8.387  21.294  0.00  0.00    +0.000 A 
ATOM     11  C   UNL     1       1.476   8.152  20.123  0.00  0.00    +0.000 A 
ATOM     12  C   UNL     1       2.320   7.034  20.004  0.00  0.00    +0.000 A 
ENDBRANCH   2   3
BRANCH   1  13
ATOM     13  O   UNL     1       5.863   4.462  19.039  0.00  0.00    +0.000 OA
BRANCH  13  14
ATOM     14  C   UNL     1       7.160   4.807  18.690  0.00  0.00    +0.000 C 
ATOM     15  O   UNL     1       8.036   5.231  19.430  0.00  0.00    +0.000 OA
BRANCH  14  16
ATOM     16  C   UNL     1       7.366   4.548  17.207  0.00  0.00    +0.000 C 
BRANCH  16  17
ATOM     17  C   UNL     1       7.163   5.797  16.330  0.00  0.00    +0.000 C 
ATOM     18  C   UNL     1       7.263   7.060  17.195  0.00  0.00    +0.000 C 
BRANCH  17  20
ATOM     19  C   UNL     1       5.573   4.411  14.886  0.00  0.00    +0.000 C 
ATOM     20  C   UNL     1       5.818   5.746  15.579  0.00  0.00    +0.000 C 
ENDBRANCH  17  20
ENDBRANCH  16  17
ENDBRANCH  14  16
ENDBRANCH  13  14
ENDBRANCH   1  13
BRANCH   2  21
ATOM     21  C   UNL     1       3.374   4.431  17.865  0.00  0.00    +0.000 C 
BRANCH  21  22
ATOM     22  N   UNL     1       2.404   3.631  18.590  0.00  0.00    +0.000 N 
ATOM     23  C   UNL     1       2.476   3.136  19.853  0.00  0.00    +0.000 A 
ATOM     24  N   UNL     1       1.442   2.358  20.081  0.00  0.00    +0.000 NA
ATOM     25  C   UNL     1       0.739   2.425  18.915  0.00  0.00    +0.000 A 
ATOM     26  N   UNL     1       1.274   3.213  17.978  0.00  0.00    +0.000 NA
ENDBRANCH  21  22
ENDBRANCH   2  21
TORSDOF 8
ENDMDL
MODEL 6
REMARK VINA RESULT:      -8.1      1.015      1.314
REMARK  Name = 
REMARK  10 active torsions:
REMARK  status: ('A' for Active; 'I' for Inactive)
REMARK    1  A    between atoms: C_1  and  C_2
REMARK    2  A    between atoms: C_2  and  C_3
REMARK    3  A    between atoms: C_3  and  C_4
REMARK    4  A    between atoms: C_3  and  C_5
REMARK    5  A    between atoms: C_5  and  C_6
REMARK    6  A    between atoms: C_6  and  O_8
REMARK    7  A    between atoms: O_8  and  N_9
REMARK    8  A    between atoms: C_10  and  C_11
REMARK    9  A    between atoms: C_10  and  C_17
REMARK   10  A    between atoms: C_11  and  N_12
REMARK                            x       y       z     vdW  Elec       q    Type
REMARK                         _______ _______ _______ _____ _____    ______ ____
ROOT
ATOM      1  N   UNL     1       6.119   4.543  15.575  0.00  0.00    +0.000 NA
ATOM      2  C   UNL     1       6.109   4.553  16.878  0.00  0.00    +0.000 C 
ENDROOT
BRANCH   2   3
ATOM      3  C   UNL     1       4.837   4.147  17.560  0.00  0.00    +0.000 A 
ATOM      4  C   UNL     1       4.233   2.938  17.207  0.00  0.00    +0.000 A 
ATOM      5  C   UNL     1       3.063   2.520  17.846  0.00  0.00    +0.000 A 
ATOM      6  C   UNL     1       2.474   3.301  18.851  0.00  0.00    +0.000 A 
ATOM      7  C   UNL     1       1.306   2.888  19.512  0.00  0.00    +0.000 A 
ATOM      8  C   UNL     1       0.731   3.679  20.509  0.00  0.00    +0.000 A 
ATOM      9  C   UNL     1       1.316   4.893  20.856  0.00  0.00    +0.000 A 
ATOM     10  C   UNL     1       2.479   5.316  20.211  0.00  0.00    +0.000 A 
ATOM     11  C   UNL     1       3.072   4.530  19.208  0.00  0.00    +0.000 A 
ATOM     12  C   UNL     1       4.248   4.943  18.556  0.00  0.00    +0.000 A 
ENDBRANCH   2   3
BRANCH   1  13
ATOM     13  O   UNL     1       7.353   4.930  15.011  0.00  0.00    +0.000 OA
BRANCH  13  14
ATOM     14  C   UNL     1       7.306   4.779  13.634  0.00  0.00    +0.000 C 
ATOM     15  O   UNL     1       7.928   5.421  12.799  0.00  0.00    +0.000 OA
BRANCH  14  16
ATOM     16  C   UNL     1       6.363   3.639  13.285  0.00  0.00    +0.000 C 
BRANCH  16  17
ATOM     17  C   UNL     1       6.173   3.441  11.770  0.00  0.00    +0.000 C 
ATOM     18  C   UNL     1       4.691   3.197  11.461  0.00  0.00    +0.000 C 
BRANCH  17  20
ATOM     19  C   UNL     1       6.291   0.968  11.131  0.00  0.00    +0.000 C 
ATOM     20  C   UNL     1       7.047   2.287  11.239  0.00  0.00    +0.000 C 
ENDBRANCH  17  20
ENDBRANCH  16  17
ENDBRANCH  14  16
ENDBRANCH  13  14
ENDBRANCH   1  13
BRANCH   2  21
ATOM     21  C   UNL     1       7.278   4.961  17.763  0.00  0.00    +0.000 C 
BRANCH  21  22
ATOM     22  N   UNL     1       7.458   6.398  17.866  0.00  0.00    +0.000 N 
ATOM     23  C   UNL     1       6.904   7.386  17.116  0.00  0.00    +0.000 A 
ATOM     24  N   UNL     1       7.429   8.542  17.454  0.00  0.00    +0.000 NA
ATOM     25  C   UNL     1       8.300   8.209  18.449  0.00  0.00    +0.000 A 
ATOM     26  N   UNL     1       8.337   6.909  18.757  0.00  0.00    +0.000 NA
ENDBRANCH  21  22
ENDBRANCH   2  21
TORSDOF 8
ENDMDL
MODEL 7
REMARK VINA RESULT:      -8.1      1.407      1.689
REMARK  Name = 
REMARK  10 active torsions:
REMARK  status: ('A' for Active; 'I' for Inactive)
REMARK    1  A    between atoms: C_1  and  C_2
REMARK    2  A    between atoms: C_2  and  C_3
REMARK    3  A    between atoms: C_3  and  C_4
REMARK    4  A    between atoms: C_3  and  C_5
REMARK    5  A    between atoms: C_5  and  C_6
REMARK    6  A    between atoms: C_6  and  O_8
REMARK    7  A    between atoms: O_8  and  N_9
REMARK    8  A    between atoms: C_10  and  C_11
REMARK    9  A    between atoms: C_10  and  C_17
REMARK   10  A    between atoms: C_11  and  N_12
REMARK                            x       y       z     vdW  Elec       q    Type
REMARK                         _______ _______ _______ _____ _____    ______ ____
ROOT
ATOM      1  N   UNL     1       6.224   4.894  15.533  0.00  0.00    +0.000 NA
ATOM      2  C   UNL     1       5.611   5.743  16.307  0.00  0.00    +0.000 C 
ENDROOT
BRANCH   2   3
ATOM      3  C   UNL     1       4.435   5.238  17.089  0.00  0.00    +0.000 A 
ATOM      4  C   UNL     1       3.608   6.156  17.739  0.00  0.00    +0.000 A 
ATOM      5  C   UNL     1       2.489   5.717  18.451  0.00  0.00    +0.000 A 
ATOM      6  C   UNL     1       2.174   4.353  18.526  0.00  0.00    +0.000 A 
ATOM      7  C   UNL     1       1.044   3.897  19.225  0.00  0.00    +0.000 A 
ATOM      8  C   UNL     1       0.746   2.535  19.293  0.00  0.00    +0.000 A 
ATOM      9  C   UNL     1       1.575   1.611  18.662  0.00  0.00    +0.000 A 
ATOM     10  C   UNL     1       2.698   2.048  17.960  0.00  0.00    +0.000 A 
ATOM     11  C   UNL     1       3.011   3.416  17.880  0.00  0.00    +0.000 A 
ATOM     12  C   UNL     1       4.136   3.868  17.169  0.00  0.00    +0.000 A 
ENDBRANCH   2   3
BRANCH   1  13
ATOM     13  O   UNL     1       7.321   5.444  14.838  0.00  0.00    +0.000 OA
BRANCH  13  14
ATOM     14  C   UNL     1       7.297   5.025  13.516  0.00  0.00    +0.000 C 
ATOM     15  O   UNL     1       7.932   5.492  12.582  0.00  0.00    +0.000 OA
BRANCH  14  16
ATOM     16  C   UNL     1       6.360   3.836  13.384  0.00  0.00    +0.000 C 
BRANCH  16  17
ATOM     17  C   UNL     1       6.084   3.431  11.924  0.00  0.00    +0.000 C 
ATOM     18  C   UNL     1       4.588   3.150  11.738  0.00  0.00    +0.000 C 
BRANCH  17  20
ATOM     19  C   UNL     1       6.089   0.995  11.148  0.00  0.00    +0.000 C 
ATOM     20  C   UNL     1       6.932   2.213  11.507  0.00  0.00    +0.000 C 
ENDBRANCH  17  20
ENDBRANCH  16  17
ENDBRANCH  14  16
ENDBRANCH  13  14
ENDBRANCH   1  13
BRANCH   2  21
ATOM     21  C   UNL     1       5.981   7.210  16.469  0.00  0.00    +0.000 C 
BRANCH  21  22
ATOM     22  N   UNL     1       7.080   7.438  17.388  0.00  0.00    +0.000 N 
ATOM     23  C   UNL     1       7.627   6.588  18.296  0.00  0.00    +0.000 A 
ATOM     24  N   UNL     1       8.520   7.228  19.017  0.00  0.00    +0.000 NA
ATOM     25  C   UNL     1       8.501   8.486  18.490  0.00  0.00    +0.000 A 
ATOM     26  N   UNL     1       7.653   8.659  17.472  0.00  0.00    +0.000 NA
ENDBRANCH  21  22
ENDBRANCH   2  21
TORSDOF 8
ENDMDL
MODEL 8
REMARK VINA RESULT:      -8.0      3.662      5.327
REMARK  Name = 
REMARK  10 active torsions:
REMARK  status: ('A' for Active; 'I' for Inactive)
REMARK    1  A    between atoms: C_1  and  C_2
REMARK    2  A    between atoms: C_2  and  C_3
REMARK    3  A    between atoms: C_3  and  C_4
REMARK    4  A    between atoms: C_3  and  C_5
REMARK    5  A    between atoms: C_5  and  C_6
REMARK    6  A    between atoms: C_6  and  O_8
REMARK    7  A    between atoms: O_8  and  N_9
REMARK    8  A    between atoms: C_10  and  C_11
REMARK    9  A    between atoms: C_10  and  C_17
REMARK   10  A    between atoms: C_11  and  N_12
REMARK                            x       y       z     vdW  Elec       q    Type
REMARK                         _______ _______ _______ _____ _____    ______ ____
ROOT
ATOM      1  N   UNL     1       4.730   5.711  18.044  0.00  0.00    +0.000 NA
ATOM      2  C   UNL     1       3.440   5.628  18.202  0.00  0.00    +0.000 C 
ENDROOT
BRANCH   2   3
ATOM      3  C   UNL     1       2.713   6.878  18.600  0.00  0.00    +0.000 A 
ATOM      4  C   UNL     1       2.463   7.855  17.634  0.00  0.00    +0.000 A 
ATOM      5  C   UNL     1       1.763   9.016  17.968  0.00  0.00    +0.000 A 
ATOM      6  C   UNL     1       1.297   9.223  19.274  0.00  0.00    +0.000 A 
ATOM      7  C   UNL     1       0.578  10.378  19.623  0.00  0.00    +0.000 A 
ATOM      8  C   UNL     1       0.124  10.571  20.929  0.00  0.00    +0.000 A 
ATOM      9  C   UNL     1       0.382   9.611  21.903  0.00  0.00    +0.000 A 
ATOM     10  C   UNL     1       1.091   8.455  21.571  0.00  0.00    +0.000 A 
ATOM     11  C   UNL     1       1.553   8.245  20.261  0.00  0.00    +0.000 A 
ATOM     12  C   UNL     1       2.262   7.082  19.914  0.00  0.00    +0.000 A 
ENDBRANCH   2   3
BRANCH   1  13
ATOM     13  O   UNL     1       5.338   4.496  17.664  0.00  0.00    +0.000 OA
BRANCH  13  14
ATOM     14  C   UNL     1       6.646   4.730  17.268  0.00  0.00    +0.000 C 
ATOM     15  O   UNL     1       7.666   4.400  17.856  0.00  0.00    +0.000 OA
BRANCH  14  16
ATOM     16  C   UNL     1       6.645   5.453  15.932  0.00  0.00    +0.000 C 
BRANCH  16  17
ATOM     17  C   UNL     1       6.885   4.522  14.729  0.00  0.00    +0.000 C 
ATOM     18  C   UNL     1       7.717   5.252  13.666  0.00  0.00    +0.000 C 
BRANCH  17  20
ATOM     19  C   UNL     1       5.697   3.510  12.705  0.00  0.00    +0.000 C 
ATOM     20  C   UNL     1       5.557   4.010  14.137  0.00  0.00    +0.000 C 
ENDBRANCH  17  20
ENDBRANCH  16  17
ENDBRANCH  14  16
ENDBRANCH  13  14
ENDBRANCH   1  13
BRANCH   2  21
ATOM     21  C   UNL     1       2.614   4.361  18.034  0.00  0.00    +0.000 C 
BRANCH  21  22
ATOM     22  N   UNL     1       2.252   3.729  19.289  0.00  0.00    +0.000 N 
ATOM     23  C   UNL     1       1.017   3.503  19.809  0.00  0.00    +0.000 A 
ATOM     24  N   UNL     1       1.133   3.020  21.026  0.00  0.00    +0.000 NA
ATOM     25  C   UNL     1       2.483   2.946  21.204  0.00  0.00    +0.000 A 
ATOM     26  N   UNL     1       3.213   3.345  20.158  0.00  0.00    +0.000 NA
ENDBRANCH  21  22
ENDBRANCH   2  21
TORSDOF 8
ENDMDL
MODEL 9
REMARK VINA RESULT:      -8.0      3.663      5.557
REMARK  Name = 
REMARK  10 active torsions:
REMARK  status: ('A' for Active; 'I' for Inactive)
REMARK    1  A    between atoms: C_1  and  C_2
REMARK    2  A    between atoms: C_2  and  C_3
REMARK    3  A    between atoms: C_3  and  C_4
REMARK    4  A    between atoms: C_3  and  C_5
REMARK    5  A    between atoms: C_5  and  C_6
REMARK    6  A    between atoms: C_6  and  O_8
REMARK    7  A    between atoms: O_8  and  N_9
REMARK    8  A    between atoms: C_10  and  C_11
REMARK    9  A    between atoms: C_10  and  C_17
REMARK   10  A    between atoms: C_11  and  N_12
REMARK                            x       y       z     vdW  Elec       q    Type
REMARK                         _______ _______ _______ _____ _____    ______ ____
ROOT
ATOM      1  N   UNL     1       5.088   5.743  18.834  0.00  0.00    +0.000 NA
ATOM      2  C   UNL     1       3.900   5.669  19.363  0.00  0.00    +0.000 C 
ENDROOT
BRANCH   2   3
ATOM      3  C   UNL     1       3.000   6.859  19.205  0.00  0.00    +0.000 A 
ATOM      4  C   UNL     1       2.961   7.522  17.977  0.00  0.00    +0.000 A 
ATOM      5  C   UNL     1       2.111   8.616  17.791  0.00  0.00    +0.000 A 
ATOM      6  C   UNL     1       1.283   9.067  18.829  0.00  0.00    +0.000 A 
ATOM      7  C   UNL     1       0.413  10.155  18.654  0.00  0.00    +0.000 A 
ATOM      8  C   UNL     1      -0.403  10.594  19.698  0.00  0.00    +0.000 A 
ATOM      9  C   UNL     1      -0.358   9.950  20.932  0.00  0.00    +0.000 A 
ATOM     10  C   UNL     1       0.498   8.865  21.120  0.00  0.00    +0.000 A 
ATOM     11  C   UNL     1       1.323   8.409  20.079  0.00  0.00    +0.000 A 
ATOM     12  C   UNL     1       2.185   7.312  20.255  0.00  0.00    +0.000 A 
ENDBRANCH   2   3
BRANCH   1  13
ATOM     13  O   UNL     1       5.868   4.583  19.020  0.00  0.00    +0.000 OA
BRANCH  13  14
ATOM     14  C   UNL     1       6.807   4.481  18.005  0.00  0.00    +0.000 C 
ATOM     15  O   UNL     1       8.024   4.504  18.119  0.00  0.00    +0.000 OA
BRANCH  14  16
ATOM     16  C   UNL     1       6.091   4.298  16.676  0.00  0.00    +0.000 C 
BRANCH  16  17
ATOM     17  C   UNL     1       6.455   5.368  15.630  0.00  0.00    +0.000 C 
ATOM     18  C   UNL     1       5.221   6.220  15.309  0.00  0.00    +0.000 C 
BRANCH  17  20
ATOM     19  C   UNL     1       6.040   3.835  13.626  0.00  0.00    +0.000 C 
ATOM     20  C   UNL     1       7.036   4.731  14.352  0.00  0.00    +0.000 C 
ENDBRANCH  17  20
ENDBRANCH  16  17
ENDBRANCH  14  16
ENDBRANCH  13  14
ENDBRANCH   1  13
BRANCH   2  21
ATOM     21  C   UNL     1       3.358   4.482  20.145  0.00  0.00    +0.000 C 
BRANCH  21  22
ATOM     22  N   UNL     1       2.576   3.561  19.341  0.00  0.00    +0.000 N 
ATOM     23  C   UNL     1       2.929   2.905  18.205  0.00  0.00    +0.000 A 
ATOM     24  N   UNL     1       1.887   2.267  17.722  0.00  0.00    +0.000 NA
ATOM     25  C   UNL     1       0.904   2.549  18.625  0.00  0.00    +0.000 A 
ATOM     26  N   UNL     1       1.283   3.318  19.650  0.00  0.00    +0.000 NA
ENDBRANCH  21  22
ENDBRANCH   2  21
TORSDOF 8
ENDMDL
