MODEL 1
REMARK VINA RESULT:      -8.7      0.000      0.000
REMARK  Name = 
REMARK  10 active torsions:
REMARK  status: ('A' for Active; 'I' for Inactive)
REMARK    1  A    between atoms: C_1  and  O_2
REMARK    2  A    between atoms: O_2  and  C_3
REMARK    3  A    between atoms: C_7  and  C_8
REMARK    4  A    between atoms: C_10  and  C_11
REMARK    5  A    between atoms: C_11  and  S_12
REMARK    6  A    between atoms: S_12  and  C_15
REMARK    7  A    between atoms: C_15  and  C_16
REMARK    8  A    between atoms: N_18  and  C_19
REMARK    9  A    between atoms: C_19  and  C_20
REMARK   10  A    between atoms: C_29  and  C_30
REMARK                            x       y       z     vdW  Elec       q    Type
REMARK                         _______ _______ _______ _____ _____    ______ ____
ROOT
ATOM      1  S   UNL     1       3.016   2.507  18.154  0.00  0.00    +0.000 S 
ATOM      2  O   UNL     1       2.264   3.256  17.165  0.00  0.00    +0.000 OA
ATOM      3  O   UNL     1       3.696   1.288  17.732  0.00  0.00    +0.000 OA
ENDROOT
BRANCH   1   4
ATOM      4  C   UNL     1       4.234   3.608  18.873  0.00  0.00    +0.000 C 
BRANCH   4   7
ATOM      5  C   UNL     1       6.106   4.321  15.952  0.00  0.00    +0.000 A 
ATOM      6  N   UNL     1       5.064   3.767  16.539  0.00  0.00    +0.000 NA
ATOM      7  C   UNL     1       5.221   4.067  17.875  0.00  0.00    +0.000 A 
ATOM      8  C   UNL     1       6.365   4.819  18.044  0.00  0.00    +0.000 A 
ATOM      9  C   UNL     1       7.069   5.464  19.163  0.00  0.00    +0.000 C 
ATOM     10  O   UNL     1       6.937   4.978  16.819  0.00  0.00    +0.000 OA
BRANCH   5  15
ATOM     11  C   UNL     1       6.243   3.514  12.277  0.00  0.00    +0.000 A 
ATOM     12  C   UNL     1       7.243   4.389  11.851  0.00  0.00    +0.000 A 
ATOM     13  C   UNL     1       7.862   5.254  12.757  0.00  0.00    +0.000 A 
ATOM     14  C   UNL     1       7.487   5.245  14.103  0.00  0.00    +0.000 A 
ATOM     15  C   UNL     1       6.492   4.367  14.549  0.00  0.00    +0.000 A 
ATOM     16  C   UNL     1       5.873   3.513  13.619  0.00  0.00    +0.000 A 
BRANCH  11  18
ATOM     17  C   UNL     1       5.948   1.310  11.446  0.00  0.00    +0.000 C 
ATOM     18  O   UNL     1       5.705   2.707  11.311  0.00  0.00    +0.000 OA
ENDBRANCH  11  18
ENDBRANCH   5  15
ENDBRANCH   4   7
ENDBRANCH   1   4
BRANCH   1  19
ATOM     19  C   UNL     1       1.903   2.076  19.463  0.00  0.00    +0.000 C 
BRANCH  19  20
ATOM     20  C   UNL     1       1.987   3.115  20.522  0.00  0.00    +0.000 C 
ATOM     21  O   UNL     1       2.400   2.879  21.657  0.00  0.00    +0.000 OA
ATOM     22  N   UNL     1       1.596   4.375  20.128  0.00  0.00    +0.000 N 
ATOM     23  H   UNL     1       1.353   4.556  19.164  0.00  0.00    +0.000 HD
BRANCH  22  24
ATOM     24  C   UNL     1       1.767   5.504  20.994  0.00  0.00    +0.000 C 
BRANCH  24  25
ATOM     25  C   UNL     1       1.940   6.780  20.220  0.00  0.00    +0.000 A 
ATOM     26  C   UNL     1       2.503   6.758  18.920  0.00  0.00    +0.000 A 
ATOM     27  C   UNL     1       2.390   7.864  18.077  0.00  0.00    +0.000 A 
ATOM     28  C   UNL     1       1.689   8.943  18.564  0.00  0.00    +0.000 A 
ATOM     29  C   UNL     1       1.255   9.007  19.872  0.00  0.00    +0.000 A 
ATOM     30  C   UNL     1       1.414   7.965  20.746  0.00  0.00    +0.000 A 
ATOM     31  O   UNL     1       0.490  10.111  20.106  0.00  0.00    +0.000 OA
ATOM     32  C   UNL     1       0.169  10.427  18.739  0.00  0.00    +0.000 C 
ATOM     33  O   UNL     1       1.198   9.983  17.829  0.00  0.00    +0.000 OA
ENDBRANCH  24  25
ENDBRANCH  22  24
ENDBRANCH  19  20
ENDBRANCH   1  19
TORSDOF 8
ENDMDL
MODEL 2
REMARK VINA RESULT:      -8.6      2.809      8.454
REMARK  Name = 
REMARK  10 active torsions:
REMARK  status: ('A' for Active; 'I' for Inactive)
REMARK    1  A    between atoms: C_1  and  O_2
REMARK    2  A    between atoms: O_2  and  C_3
REMARK    3  A    between atoms: C_7  and  C_8
REMARK    4  A    between atoms: C_10  and  C_11
REMARK    5  A    between atoms: C_11  and  S_12
REMARK    6  A    between atoms: S_12  and  C_15
REMARK    7  A    between atoms: C_15  and  C_16
REMARK    8  A    between atoms: N_18  and  C_19
REMARK    9  A    between atoms: C_19  and  C_20
REMARK   10  A    between atoms: C_29  and  C_30
REMARK                            x       y       z     vdW  Elec       q    Type
REMARK                         _______ _______ _______ _____ _____    ______ ____
ROOT
ATOM      1  S   UNL     1       1.827   4.051  20.619  0.00  0.00    +0.000 S 
ATOM      2  O   UNL     1       2.222   3.564  21.928  0.00  0.00    +0.000 OA
ATOM      3  O   UNL     1       0.474   4.569  20.452  0.00  0.00    +0.000 OA
ENDROOT
BRANCH   1   4
ATOM      4  C   UNL     1       2.981   5.335  20.134  0.00  0.00    +0.000 C 
BRANCH   4   7
ATOM      5  C   UNL     1       1.179   8.338  20.659  0.00  0.00    +0.000 A 
ATOM      6  N   UNL     1       1.615   7.173  21.093  0.00  0.00    +0.000 NA
ATOM      7  C   UNL     1       2.328   6.655  20.032  0.00  0.00    +0.000 A 
ATOM      8  C   UNL     1       2.306   7.552  18.985  0.00  0.00    +0.000 A 
ATOM      9  C   UNL     1       2.867   7.629  17.627  0.00  0.00    +0.000 C 
ATOM     10  O   UNL     1       1.568   8.626  19.378  0.00  0.00    +0.000 OA
BRANCH   5  15
ATOM     11  C   UNL     1      -0.650  11.571  21.277  0.00  0.00    +0.000 A 
ATOM     12  C   UNL     1      -1.094  11.378  22.585  0.00  0.00    +0.000 A 
ATOM     13  C   UNL     1      -0.813  10.188  23.261  0.00  0.00    +0.000 A 
ATOM     14  C   UNL     1      -0.077   9.181  22.633  0.00  0.00    +0.000 A 
ATOM     15  C   UNL     1       0.385   9.363  21.324  0.00  0.00    +0.000 A 
ATOM     16  C   UNL     1       0.082  10.562  20.656  0.00  0.00    +0.000 A 
BRANCH  11  18
ATOM     17  C   UNL     1      -0.266  13.125  19.523  0.00  0.00    +0.000 C 
ATOM     18  O   UNL     1      -0.975  12.773  20.707  0.00  0.00    +0.000 OA
ENDBRANCH  11  18
ENDBRANCH   5  15
ENDBRANCH   4   7
ENDBRANCH   1   4
BRANCH   1  19
ATOM     19  C   UNL     1       2.043   2.726  19.464  0.00  0.00    +0.000 C 
BRANCH  19  20
ATOM     20  C   UNL     1       2.275   3.305  18.115  0.00  0.00    +0.000 C 
ATOM     21  O   UNL     1       1.417   3.942  17.505  0.00  0.00    +0.000 OA
ATOM     22  N   UNL     1       3.539   3.100  17.608  0.00  0.00    +0.000 N 
ATOM     23  H   UNL     1       4.249   2.657  18.172  0.00  0.00    +0.000 HD
BRANCH  22  24
ATOM     24  C   UNL     1       3.954   3.729  16.388  0.00  0.00    +0.000 C 
BRANCH  24  25
ATOM     25  C   UNL     1       5.190   4.560  16.582  0.00  0.00    +0.000 A 
ATOM     26  C   UNL     1       5.267   5.867  16.040  0.00  0.00    +0.000 A 
ATOM     27  C   UNL     1       6.257   6.756  16.461  0.00  0.00    +0.000 A 
ATOM     28  C   UNL     1       7.118   6.304  17.435  0.00  0.00    +0.000 A 
ATOM     29  C   UNL     1       7.119   4.993  17.864  0.00  0.00    +0.000 A 
ATOM     30  C   UNL     1       6.204   4.078  17.416  0.00  0.00    +0.000 A 
ATOM     31  O   UNL     1       7.975   4.795  18.906  0.00  0.00    +0.000 OA
ATOM     32  C   UNL     1       8.126   6.169  19.308  0.00  0.00    +0.000 C 
ATOM     33  O   UNL     1       7.944   7.076  18.199  0.00  0.00    +0.000 OA
ENDBRANCH  24  25
ENDBRANCH  22  24
ENDBRANCH  19  20
ENDBRANCH   1  19
TORSDOF 8
ENDMDL
MODEL 3
REMARK VINA RESULT:      -8.4      4.732      8.394
REMARK  Name = 
REMARK  10 active torsions:
REMARK  status: ('A' for Active; 'I' for Inactive)
REMARK    1  A    between atoms: C_1  and  O_2
REMARK    2  A    between atoms: O_2  and  C_3
REMARK    3  A    between atoms: C_7  and  C_8
REMARK    4  A    between atoms: C_10  and  C_11
REMARK    5  A    between atoms: C_11  and  S_12
REMARK    6  A    between atoms: S_12  and  C_15
REMARK    7  A    between atoms: C_15  and  C_16
REMARK    8  A    between atoms: N_18  and  C_19
REMARK    9  A    between atoms: C_19  and  C_20
REMARK   10  A    between atoms: C_29  and  C_30
REMARK                            x       y       z     vdW  Elec       q    Type
REMARK                         _______ _______ _______ _____ _____    ______ ____
ROOT
ATOM      1  S   UNL     1       6.967   4.640  17.290  0.00  0.00    +0.000 S 
ATOM      2  O   UNL     1       8.313   4.287  17.700  0.00  0.00    +0.000 OA
ATOM      3  O   UNL     1       6.403   3.978  16.119  0.00  0.00    +0.000 OA
ENDROOT
BRANCH   1   4
ATOM      4  C   UNL     1       5.871   4.350  18.678  0.00  0.00    +0.000 C 
BRANCH   4   7
ATOM      5  C   UNL     1       3.059   6.503  18.708  0.00  0.00    +0.000 A 
ATOM      6  N   UNL     1       4.294   6.227  19.073  0.00  0.00    +0.000 NA
ATOM      7  C   UNL     1       4.560   5.005  18.494  0.00  0.00    +0.000 A 
ATOM      8  C   UNL     1       3.459   4.590  17.775  0.00  0.00    +0.000 A 
ATOM      9  C   UNL     1       3.099   3.439  16.931  0.00  0.00    +0.000 C 
ATOM     10  O   UNL     1       2.495   5.541  17.914  0.00  0.00    +0.000 OA
BRANCH   5  15
ATOM     11  C   UNL     1       0.901   8.958  20.577  0.00  0.00    +0.000 A 
ATOM     12  C   UNL     1       0.569   9.849  19.556  0.00  0.00    +0.000 A 
ATOM     13  C   UNL     1       1.060   9.660  18.261  0.00  0.00    +0.000 A 
ATOM     14  C   UNL     1       1.886   8.571  17.977  0.00  0.00    +0.000 A 
ATOM     15  C   UNL     1       2.222   7.662  18.988  0.00  0.00    +0.000 A 
ATOM     16  C   UNL     1       1.727   7.875  20.286  0.00  0.00    +0.000 A 
BRANCH  11  18
ATOM     17  C   UNL     1      -0.219  10.521  21.970  0.00  0.00    +0.000 C 
ATOM     18  O   UNL     1       0.363   9.231  21.806  0.00  0.00    +0.000 OA
ENDBRANCH  11  18
ENDBRANCH   5  15
ENDBRANCH   4   7
ENDBRANCH   1   4
BRANCH   1  19
ATOM     19  C   UNL     1       6.936   6.385  16.988  0.00  0.00    +0.000 C 
BRANCH  19  20
ATOM     20  C   UNL     1       7.727   7.066  18.046  0.00  0.00    +0.000 C 
ATOM     21  O   UNL     1       8.160   6.478  19.037  0.00  0.00    +0.000 OA
ATOM     22  N   UNL     1       7.966   8.402  17.819  0.00  0.00    +0.000 N 
ATOM     23  H   UNL     1       7.679   8.832  16.952  0.00  0.00    +0.000 HD
BRANCH  22  24
ATOM     24  C   UNL     1       8.841   9.149  18.675  0.00  0.00    +0.000 C 
BRANCH  24  25
ATOM     25  C   UNL     1       9.136  10.513  18.118  0.00  0.00    +0.000 A 
ATOM     26  C   UNL     1       8.078  11.366  17.716  0.00  0.00    +0.000 A 
ATOM     27  C   UNL     1       8.306  12.724  17.491  0.00  0.00    +0.000 A 
ATOM     28  C   UNL     1       9.586  13.180  17.708  0.00  0.00    +0.000 A 
ATOM     29  C   UNL     1      10.635  12.324  17.974  0.00  0.00    +0.000 A 
ATOM     30  C   UNL     1      10.456  10.975  18.129  0.00  0.00    +0.000 A 
ATOM     31  O   UNL     1      11.786  12.996  18.261  0.00  0.00    +0.000 OA
ATOM     32  C   UNL     1      11.201  14.277  18.562  0.00  0.00    +0.000 C 
ATOM     33  O   UNL     1       9.963  14.484  17.848  0.00  0.00    +0.000 OA
ENDBRANCH  24  25
ENDBRANCH  22  24
ENDBRANCH  19  20
ENDBRANCH   1  19
TORSDOF 8
ENDMDL
MODEL 4
REMARK VINA RESULT:      -8.3      4.726      8.428
REMARK  Name = 
REMARK  10 active torsions:
REMARK  status: ('A' for Active; 'I' for Inactive)
REMARK    1  A    between atoms: C_1  and  O_2
REMARK    2  A    between atoms: O_2  and  C_3
REMARK    3  A    between atoms: C_7  and  C_8
REMARK    4  A    between atoms: C_10  and  C_11
REMARK    5  A    between atoms: C_11  and  S_12
REMARK    6  A    between atoms: S_12  and  C_15
REMARK    7  A    between atoms: C_15  and  C_16
REMARK    8  A    between atoms: N_18  and  C_19
REMARK    9  A    between atoms: C_19  and  C_20
REMARK   10  A    between atoms: C_29  and  C_30
REMARK                            x       y       z     vdW  Elec       q    Type
REMARK                         _______ _______ _______ _____ _____    ______ ____
ROOT
ATOM      1  S   UNL     1       6.781   4.747  17.824  0.00  0.00    +0.000 S 
ATOM      2  O   UNL     1       6.121   3.832  18.736  0.00  0.00    +0.000 OA
ATOM      3  O   UNL     1       7.961   4.280  17.107  0.00  0.00    +0.000 OA
ENDROOT
BRANCH   1   4
ATOM      4  C   UNL     1       5.573   5.294  16.618  0.00  0.00    +0.000 C 
BRANCH   4   7
ATOM      5  C   UNL     1       2.977   7.229  18.053  0.00  0.00    +0.000 A 
ATOM      6  N   UNL     1       4.158   7.145  17.475  0.00  0.00    +0.000 NA
ATOM      7  C   UNL     1       4.341   5.797  17.258  0.00  0.00    +0.000 A 
ATOM      8  C   UNL     1       3.235   5.107  17.709  0.00  0.00    +0.000 A 
ATOM      9  C   UNL     1       2.789   3.705  17.753  0.00  0.00    +0.000 C 
ATOM     10  O   UNL     1       2.363   6.017  18.223  0.00  0.00    +0.000 OA
BRANCH   5  15
ATOM     11  C   UNL     1       0.770   9.424  20.172  0.00  0.00    +0.000 A 
ATOM     12  C   UNL     1       0.717  10.579  19.391  0.00  0.00    +0.000 A 
ATOM     13  C   UNL     1       1.414  10.650  18.182  0.00  0.00    +0.000 A 
ATOM     14  C   UNL     1       2.166   9.559  17.741  0.00  0.00    +0.000 A 
ATOM     15  C   UNL     1       2.222   8.389  18.508  0.00  0.00    +0.000 A 
ATOM     16  C   UNL     1       1.524   8.341  19.727  0.00  0.00    +0.000 A 
BRANCH  11  18
ATOM     17  C   UNL     1      -0.157   8.207  21.988  0.00  0.00    +0.000 C 
ATOM     18  O   UNL     1       0.048   9.457  21.335  0.00  0.00    +0.000 OA
ENDBRANCH  11  18
ENDBRANCH   5  15
ENDBRANCH   4   7
ENDBRANCH   1   4
BRANCH   1  19
ATOM     19  C   UNL     1       7.247   6.186  18.748  0.00  0.00    +0.000 C 
BRANCH  19  20
ATOM     20  C   UNL     1       7.715   7.229  17.799  0.00  0.00    +0.000 C 
ATOM     21  O   UNL     1       7.761   7.052  16.582  0.00  0.00    +0.000 OA
ATOM     22  N   UNL     1       8.066   8.426  18.383  0.00  0.00    +0.000 N 
ATOM     23  H   UNL     1       7.927   8.571  19.372  0.00  0.00    +0.000 HD
BRANCH  22  24
ATOM     24  C   UNL     1       8.390   9.569  17.581  0.00  0.00    +0.000 C 
BRANCH  24  25
ATOM     25  C   UNL     1       8.958  10.687  18.408  0.00  0.00    +0.000 A 
ATOM     26  C   UNL     1       9.481  10.428  19.700  0.00  0.00    +0.000 A 
ATOM     27  C   UNL     1      10.279  11.373  20.347  0.00  0.00    +0.000 A 
ATOM     28  C   UNL     1      10.545  12.533  19.657  0.00  0.00    +0.000 A 
ATOM     29  C   UNL     1       9.931  12.832  18.459  0.00  0.00    +0.000 A 
ATOM     30  C   UNL     1       9.086  11.955  17.832  0.00  0.00    +0.000 A 
ATOM     31  O   UNL     1      10.422  13.975  17.901  0.00  0.00    +0.000 OA
ATOM     32  C   UNL     1      11.648  14.055  18.652  0.00  0.00    +0.000 C 
ATOM     33  O   UNL     1      11.523  13.438  19.951  0.00  0.00    +0.000 OA
ENDBRANCH  24  25
ENDBRANCH  22  24
ENDBRANCH  19  20
ENDBRANCH   1  19
TORSDOF 8
ENDMDL
MODEL 5
REMARK VINA RESULT:      -8.3      4.564      8.753
REMARK  Name = 
REMARK  10 active torsions:
REMARK  status: ('A' for Active; 'I' for Inactive)
REMARK    1  A    between atoms: C_1  and  O_2
REMARK    2  A    between atoms: O_2  and  C_3
REMARK    3  A    between atoms: C_7  and  C_8
REMARK    4  A    between atoms: C_10  and  C_11
REMARK    5  A    between atoms: C_11  and  S_12
REMARK    6  A    between atoms: S_12  and  C_15
REMARK    7  A    between atoms: C_15  and  C_16
REMARK    8  A    between atoms: N_18  and  C_19
REMARK    9  A    between atoms: C_19  and  C_20
REMARK   10  A    between atoms: C_29  and  C_30
REMARK                            x       y       z     vdW  Elec       q    Type
REMARK                         _______ _______ _______ _____ _____    ______ ____
ROOT
ATOM      1  S   UNL     1       5.848   5.144  18.343  0.00  0.00    +0.000 S 
ATOM      2  O   UNL     1       6.272   5.427  19.701  0.00  0.00    +0.000 OA
ATOM      3  O   UNL     1       6.691   4.287  17.518  0.00  0.00    +0.000 OA
ENDROOT
BRANCH   1   4
ATOM      4  C   UNL     1       4.211   4.416  18.415  0.00  0.00    +0.000 C 
BRANCH   4   7
ATOM      5  C   UNL     1       2.225   6.914  19.950  0.00  0.00    +0.000 A 
ATOM      6  N   UNL     1       3.079   6.541  19.019  0.00  0.00    +0.000 NA
ATOM      7  C   UNL     1       3.294   5.202  19.265  0.00  0.00    +0.000 A 
ATOM      8  C   UNL     1       2.535   4.808  20.347  0.00  0.00    +0.000 A 
ATOM      9  C   UNL     1       2.287   3.560  21.086  0.00  0.00    +0.000 C 
ATOM     10  O   UNL     1       1.855   5.900  20.792  0.00  0.00    +0.000 OA
BRANCH   5  15
ATOM     11  C   UNL     1       0.632   9.789  21.788  0.00  0.00    +0.000 A 
ATOM     12  C   UNL     1       0.357  10.658  20.732  0.00  0.00    +0.000 A 
ATOM     13  C   UNL     1       0.704  10.316  19.422  0.00  0.00    +0.000 A 
ATOM     14  C   UNL     1       1.327   9.094  19.159  0.00  0.00    +0.000 A 
ATOM     15  C   UNL     1       1.602   8.206  20.206  0.00  0.00    +0.000 A 
ATOM     16  C   UNL     1       1.255   8.573  21.518  0.00  0.00    +0.000 A 
BRANCH  11  18
ATOM     17  C   UNL     1      -1.089  10.700  23.147  0.00  0.00    +0.000 C 
ATOM     18  O   UNL     1       0.246  10.217  23.030  0.00  0.00    +0.000 OA
ENDBRANCH  11  18
ENDBRANCH   5  15
ENDBRANCH   4   7
ENDBRANCH   1   4
BRANCH   1  19
ATOM     19  C   UNL     1       5.667   6.691  17.502  0.00  0.00    +0.000 C 
BRANCH  19  20
ATOM     20  C   UNL     1       7.018   7.218  17.178  0.00  0.00    +0.000 C 
ATOM     21  O   UNL     1       7.783   6.656  16.394  0.00  0.00    +0.000 OA
ATOM     22  N   UNL     1       7.340   8.405  17.799  0.00  0.00    +0.000 N 
ATOM     23  H   UNL     1       6.655   8.889  18.360  0.00  0.00    +0.000 HD
BRANCH  22  24
ATOM     24  C   UNL     1       8.544   9.107  17.465  0.00  0.00    +0.000 C 
BRANCH  24  25
ATOM     25  C   UNL     1       8.756  10.302  18.349  0.00  0.00    +0.000 A 
ATOM     26  C   UNL     1       9.239  10.139  19.671  0.00  0.00    +0.000 A 
ATOM     27  C   UNL     1       9.728  11.230  20.390  0.00  0.00    +0.000 A 
ATOM     28  C   UNL     1       9.740  12.442  19.741  0.00  0.00    +0.000 A 
ATOM     29  C   UNL     1       9.152  12.619  18.506  0.00  0.00    +0.000 A 
ATOM     30  C   UNL     1       8.599  11.581  17.804  0.00  0.00    +0.000 A 
ATOM     31  O   UNL     1       9.377  13.867  18.004  0.00  0.00    +0.000 OA
ATOM     32  C   UNL     1      10.490  14.225  18.844  0.00  0.00    +0.000 C 
ATOM     33  O   UNL     1      10.436  13.552  20.121  0.00  0.00    +0.000 OA
ENDBRANCH  24  25
ENDBRANCH  22  24
ENDBRANCH  19  20
ENDBRANCH   1  19
TORSDOF 8
ENDMDL
MODEL 6
REMARK VINA RESULT:      -8.3      5.477      8.649
REMARK  Name = 
REMARK  10 active torsions:
REMARK  status: ('A' for Active; 'I' for Inactive)
REMARK    1  A    between atoms: C_1  and  O_2
REMARK    2  A    between atoms: O_2  and  C_3
REMARK    3  A    between atoms: C_7  and  C_8
REMARK    4  A    between atoms: C_10  and  C_11
REMARK    5  A    between atoms: C_11  and  S_12
REMARK    6  A    between atoms: S_12  and  C_15
REMARK    7  A    between atoms: C_15  and  C_16
REMARK    8  A    between atoms: N_18  and  C_19
REMARK    9  A    between atoms: C_19  and  C_20
REMARK   10  A    between atoms: C_29  and  C_30
REMARK                            x       y       z     vdW  Elec       q    Type
REMARK                         _______ _______ _______ _____ _____    ______ ____
ROOT
ATOM      1  S   UNL     1      -0.860  10.925  19.156  0.00  0.00    +0.000 S 
ATOM      2  O   UNL     1      -1.409   9.618  18.844  0.00  0.00    +0.000 OA
ATOM      3  O   UNL     1      -1.179  11.521  20.448  0.00  0.00    +0.000 OA
ENDROOT
BRANCH   1   4
ATOM      4  C   UNL     1       0.924  10.825  19.011  0.00  0.00    +0.000 C 
BRANCH   4   7
ATOM      5  C   UNL     1       2.278   7.572  18.657  0.00  0.00    +0.000 A 
ATOM      6  N   UNL     1       1.951   8.739  18.141  0.00  0.00    +0.000 NA
ATOM      7  C   UNL     1       1.417   9.445  19.197  0.00  0.00    +0.000 A 
ATOM      8  C   UNL     1       1.457   8.667  20.335  0.00  0.00    +0.000 A 
ATOM      9  C   UNL     1       1.088   8.817  21.752  0.00  0.00    +0.000 C 
ATOM     10  O   UNL     1       2.001   7.467  19.994  0.00  0.00    +0.000 OA
BRANCH   5  15
ATOM     11  C   UNL     1       2.794   4.043  17.450  0.00  0.00    +0.000 A 
ATOM     12  C   UNL     1       4.086   4.127  16.931  0.00  0.00    +0.000 A 
ATOM     13  C   UNL     1       4.784   5.336  16.958  0.00  0.00    +0.000 A 
ATOM     14  C   UNL     1       4.194   6.474  17.513  0.00  0.00    +0.000 A 
ATOM     15  C   UNL     1       2.902   6.405  18.047  0.00  0.00    +0.000 A 
ATOM     16  C   UNL     1       2.211   5.182  18.000  0.00  0.00    +0.000 A 
BRANCH  11  18
ATOM     17  C   UNL     1       2.104   2.082  18.598  0.00  0.00    +0.000 C 
ATOM     18  O   UNL     1       2.200   2.811  17.378  0.00  0.00    +0.000 OA
ENDBRANCH  11  18
ENDBRANCH   5  15
ENDBRANCH   4   7
ENDBRANCH   1   4
BRANCH   1  19
ATOM     19  C   UNL     1      -1.398  12.049  17.897  0.00  0.00    +0.000 C 
BRANCH  19  20
ATOM     20  C   UNL     1      -2.738  11.621  17.418  0.00  0.00    +0.000 C 
ATOM     21  O   UNL     1      -2.938  11.215  16.273  0.00  0.00    +0.000 OA
ATOM     22  N   UNL     1      -3.738  11.683  18.363  0.00  0.00    +0.000 N 
ATOM     23  H   UNL     1      -3.522  11.929  19.318  0.00  0.00    +0.000 HD
BRANCH  22  24
ATOM     24  C   UNL     1      -5.044  11.159  18.088  0.00  0.00    +0.000 C 
BRANCH  24  25
ATOM     25  C   UNL     1      -6.079  12.246  18.032  0.00  0.00    +0.000 A 
ATOM     26  C   UNL     1      -6.774  12.634  19.205  0.00  0.00    +0.000 A 
ATOM     27  C   UNL     1      -7.500  13.825  19.240  0.00  0.00    +0.000 A 
ATOM     28  C   UNL     1      -7.477  14.597  18.102  0.00  0.00    +0.000 A 
ATOM     29  C   UNL     1      -6.908  14.153  16.926  0.00  0.00    +0.000 A 
ATOM     30  C   UNL     1      -6.249  12.956  16.839  0.00  0.00    +0.000 A 
ATOM     31  O   UNL     1      -6.902  15.118  15.963  0.00  0.00    +0.000 OA
ATOM     32  C   UNL     1      -7.110  16.258  16.817  0.00  0.00    +0.000 C 
ATOM     33  O   UNL     1      -7.845  15.907  18.009  0.00  0.00    +0.000 OA
ENDBRANCH  24  25
ENDBRANCH  22  24
ENDBRANCH  19  20
ENDBRANCH   1  19
TORSDOF 8
ENDMDL
MODEL 7
REMARK VINA RESULT:      -8.3      2.826      8.529
REMARK  Name = 
REMARK  10 active torsions:
REMARK  status: ('A' for Active; 'I' for Inactive)
REMARK    1  A    between atoms: C_1  and  O_2
REMARK    2  A    between atoms: O_2  and  C_3
REMARK    3  A    between atoms: C_7  and  C_8
REMARK    4  A    between atoms: C_10  and  C_11
REMARK    5  A    between atoms: C_11  and  S_12
REMARK    6  A    between atoms: S_12  and  C_15
REMARK    7  A    between atoms: C_15  and  C_16
REMARK    8  A    between atoms: N_18  and  C_19
REMARK    9  A    between atoms: C_19  and  C_20
REMARK   10  A    between atoms: C_29  and  C_30
REMARK                            x       y       z     vdW  Elec       q    Type
REMARK                         _______ _______ _______ _____ _____    ______ ____
ROOT
ATOM      1  S   UNL     1       1.756   4.439  19.606  0.00  0.00    +0.000 S 
ATOM      2  O   UNL     1       0.630   4.555  20.514  0.00  0.00    +0.000 OA
ATOM      3  O   UNL     1       1.492   4.433  18.172  0.00  0.00    +0.000 OA
ENDROOT
BRANCH   1   4
ATOM      4  C   UNL     1       2.893   5.779  19.960  0.00  0.00    +0.000 C 
BRANCH   4   7
ATOM      5  C   UNL     1       1.111   8.763  20.639  0.00  0.00    +0.000 A 
ATOM      6  N   UNL     1       1.582   7.596  21.029  0.00  0.00    +0.000 NA
ATOM      7  C   UNL     1       2.226   7.096  19.918  0.00  0.00    +0.000 A 
ATOM      8  C   UNL     1       2.130   8.005  18.886  0.00  0.00    +0.000 A 
ATOM      9  C   UNL     1       2.600   8.102  17.494  0.00  0.00    +0.000 C 
ATOM     10  O   UNL     1       1.413   9.069  19.339  0.00  0.00    +0.000 OA
BRANCH   5  15
ATOM     11  C   UNL     1      -0.350  12.097  21.604  0.00  0.00    +0.000 A 
ATOM     12  C   UNL     1      -1.041  11.756  22.767  0.00  0.00    +0.000 A 
ATOM     13  C   UNL     1      -1.046  10.438  23.230  0.00  0.00    +0.000 A 
ATOM     14  C   UNL     1      -0.351   9.448  22.531  0.00  0.00    +0.000 A 
ATOM     15  C   UNL     1       0.356   9.773  21.367  0.00  0.00    +0.000 A 
ATOM     16  C   UNL     1       0.339  11.104  20.912  0.00  0.00    +0.000 A 
BRANCH  11  18
ATOM     17  C   UNL     1      -0.849  13.690  19.916  0.00  0.00    +0.000 C 
ATOM     18  O   UNL     1      -0.405  13.416  21.241  0.00  0.00    +0.000 OA
ENDBRANCH  11  18
ENDBRANCH   5  15
ENDBRANCH   4   7
ENDBRANCH   1   4
BRANCH   1  19
ATOM     19  C   UNL     1       2.614   2.941  20.001  0.00  0.00    +0.000 C 
BRANCH  19  20
ATOM     20  C   UNL     1       3.896   2.914  19.249  0.00  0.00    +0.000 C 
ATOM     21  O   UNL     1       4.988   2.775  19.798  0.00  0.00    +0.000 OA
ATOM     22  N   UNL     1       3.767   3.026  17.882  0.00  0.00    +0.000 N 
ATOM     23  H   UNL     1       2.852   3.042  17.456  0.00  0.00    +0.000 HD
BRANCH  22  24
ATOM     24  C   UNL     1       4.901   2.863  17.020  0.00  0.00    +0.000 C 
BRANCH  24  25
ATOM     25  C   UNL     1       5.557   4.178  16.709  0.00  0.00    +0.000 A 
ATOM     26  C   UNL     1       4.851   5.180  15.997  0.00  0.00    +0.000 A 
ATOM     27  C   UNL     1       5.319   6.494  15.968  0.00  0.00    +0.000 A 
ATOM     28  C   UNL     1       6.466   6.758  16.680  0.00  0.00    +0.000 A 
ATOM     29  C   UNL     1       7.216   5.757  17.262  0.00  0.00    +0.000 A 
ATOM     30  C   UNL     1       6.820   4.445  17.247  0.00  0.00    +0.000 A 
ATOM     31  O   UNL     1       8.245   6.252  18.006  0.00  0.00    +0.000 OA
ATOM     32  C   UNL     1       7.759   7.599  18.151  0.00  0.00    +0.000 C 
ATOM     33  O   UNL     1       6.924   7.992  17.040  0.00  0.00    +0.000 OA
ENDBRANCH  24  25
ENDBRANCH  22  24
ENDBRANCH  19  20
ENDBRANCH   1  19
TORSDOF 8
ENDMDL
MODEL 8
REMARK VINA RESULT:      -8.2      5.093      8.379
REMARK  Name = 
REMARK  10 active torsions:
REMARK  status: ('A' for Active; 'I' for Inactive)
REMARK    1  A    between atoms: C_1  and  O_2
REMARK    2  A    between atoms: O_2  and  C_3
REMARK    3  A    between atoms: C_7  and  C_8
REMARK    4  A    between atoms: C_10  and  C_11
REMARK    5  A    between atoms: C_11  and  S_12
REMARK    6  A    between atoms: S_12  and  C_15
REMARK    7  A    between atoms: C_15  and  C_16
REMARK    8  A    between atoms: N_18  and  C_19
REMARK    9  A    between atoms: C_19  and  C_20
REMARK   10  A    between atoms: C_29  and  C_30
REMARK                            x       y       z     vdW  Elec       q    Type
REMARK                         _______ _______ _______ _____ _____    ______ ____
ROOT
ATOM      1  S   UNL     1      -1.053  10.965  18.962  0.00  0.00    +0.000 S 
ATOM      2  O   UNL     1      -1.534   9.604  18.815  0.00  0.00    +0.000 OA
ATOM      3  O   UNL     1      -1.522  11.746  20.101  0.00  0.00    +0.000 OA
ENDROOT
BRANCH   1   4
ATOM      4  C   UNL     1       0.738  10.917  19.015  0.00  0.00    +0.000 C 
BRANCH   4   7
ATOM      5  C   UNL     1       2.125   7.674  18.697  0.00  0.00    +0.000 A 
ATOM      6  N   UNL     1       1.779   8.829  18.166  0.00  0.00    +0.000 NA
ATOM      7  C   UNL     1       1.249   9.546  19.217  0.00  0.00    +0.000 A 
ATOM      8  C   UNL     1       1.310   8.787  20.366  0.00  0.00    +0.000 A 
ATOM      9  C   UNL     1       0.954   8.955  21.784  0.00  0.00    +0.000 C 
ATOM     10  O   UNL     1       1.864   7.587  20.038  0.00  0.00    +0.000 OA
BRANCH   5  15
ATOM     11  C   UNL     1       2.646   4.144  17.495  0.00  0.00    +0.000 A 
ATOM     12  C   UNL     1       3.950   4.221  17.004  0.00  0.00    +0.000 A 
ATOM     13  C   UNL     1       4.654   5.427  17.048  0.00  0.00    +0.000 A 
ATOM     14  C   UNL     1       4.059   6.567  17.592  0.00  0.00    +0.000 A 
ATOM     15  C   UNL     1       2.755   6.505  18.099  0.00  0.00    +0.000 A 
ATOM     16  C   UNL     1       2.058   5.285  18.034  0.00  0.00    +0.000 A 
BRANCH  11  18
ATOM     17  C   UNL     1       2.059   2.121  18.591  0.00  0.00    +0.000 C 
ATOM     18  O   UNL     1       2.048   2.915  17.409  0.00  0.00    +0.000 OA
ENDBRANCH  11  18
ENDBRANCH   5  15
ENDBRANCH   4   7
ENDBRANCH   1   4
BRANCH   1  19
ATOM     19  C   UNL     1      -1.483  11.850  17.489  0.00  0.00    +0.000 C 
BRANCH  19  20
ATOM     20  C   UNL     1      -2.853  11.449  17.076  0.00  0.00    +0.000 C 
ATOM     21  O   UNL     1      -3.073  10.740  16.094  0.00  0.00    +0.000 OA
ATOM     22  N   UNL     1      -3.862  11.905  17.895  0.00  0.00    +0.000 N 
ATOM     23  H   UNL     1      -3.642  12.404  18.745  0.00  0.00    +0.000 HD
BRANCH  22  24
ATOM     24  C   UNL     1      -5.215  11.472  17.707  0.00  0.00    +0.000 C 
BRANCH  24  25
ATOM     25  C   UNL     1      -6.061  11.745  18.919  0.00  0.00    +0.000 A 
ATOM     26  C   UNL     1      -7.071  10.831  19.308  0.00  0.00    +0.000 A 
ATOM     27  C   UNL     1      -7.647  10.905  20.576  0.00  0.00    +0.000 A 
ATOM     28  C   UNL     1      -7.165  11.879  21.418  0.00  0.00    +0.000 A 
ATOM     29  C   UNL     1      -6.275  12.844  20.992  0.00  0.00    +0.000 A 
ATOM     30  C   UNL     1      -5.745  12.841  19.729  0.00  0.00    +0.000 A 
ATOM     31  O   UNL     1      -5.849  13.638  22.015  0.00  0.00    +0.000 OA
ATOM     32  C   UNL     1      -6.224  12.778  23.107  0.00  0.00    +0.000 C 
ATOM     33  O   UNL     1      -7.351  11.942  22.769  0.00  0.00    +0.000 OA
ENDBRANCH  24  25
ENDBRANCH  22  24
ENDBRANCH  19  20
ENDBRANCH   1  19
TORSDOF 8
ENDMDL
MODEL 9
REMARK VINA RESULT:      -8.2      1.637      2.044
REMARK  Name = 
REMARK  10 active torsions:
REMARK  status: ('A' for Active; 'I' for Inactive)
REMARK    1  A    between atoms: C_1  and  O_2
REMARK    2  A    between atoms: O_2  and  C_3
REMARK    3  A    between atoms: C_7  and  C_8
REMARK    4  A    between atoms: C_10  and  C_11
REMARK    5  A    between atoms: C_11  and  S_12
REMARK    6  A    between atoms: S_12  and  C_15
REMARK    7  A    between atoms: C_15  and  C_16
REMARK    8  A    between atoms: N_18  and  C_19
REMARK    9  A    between atoms: C_19  and  C_20
REMARK   10  A    between atoms: C_29  and  C_30
REMARK                            x       y       z     vdW  Elec       q    Type
REMARK                         _______ _______ _______ _____ _____    ______ ____
ROOT
ATOM      1  S   UNL     1       3.705   2.990  19.216  0.00  0.00    +0.000 S 
ATOM      2  O   UNL     1       3.917   1.765  18.468  0.00  0.00    +0.000 OA
ATOM      3  O   UNL     1       3.489   2.895  20.655  0.00  0.00    +0.000 OA
ENDROOT
BRANCH   1   4
ATOM      4  C   UNL     1       5.111   4.064  18.930  0.00  0.00    +0.000 C 
BRANCH   4   7
ATOM      5  C   UNL     1       5.478   4.486  15.433  0.00  0.00    +0.000 A 
ATOM      6  N   UNL     1       5.556   3.732  16.511  0.00  0.00    +0.000 NA
ATOM      7  C   UNL     1       5.156   4.557  17.539  0.00  0.00    +0.000 A 
ATOM      8  C   UNL     1       4.831   5.797  17.030  0.00  0.00    +0.000 A 
ATOM      9  C   UNL     1       4.327   7.076  17.558  0.00  0.00    +0.000 C 
ATOM     10  O   UNL     1       5.041   5.759  15.686  0.00  0.00    +0.000 OA
BRANCH   5  15
ATOM     11  C   UNL     1       4.980   3.316  11.889  0.00  0.00    +0.000 A 
ATOM     12  C   UNL     1       6.254   3.525  11.360  0.00  0.00    +0.000 A 
ATOM     13  C   UNL     1       7.272   4.062  12.152  0.00  0.00    +0.000 A 
ATOM     14  C   UNL     1       7.022   4.390  13.486  0.00  0.00    +0.000 A 
ATOM     15  C   UNL     1       5.753   4.178  14.036  0.00  0.00    +0.000 A 
ATOM     16  C   UNL     1       4.738   3.647  13.220  0.00  0.00    +0.000 A 
BRANCH  11  18
ATOM     17  C   UNL     1       3.346   3.702  10.210  0.00  0.00    +0.000 C 
ATOM     18  O   UNL     1       4.057   2.780  11.031  0.00  0.00    +0.000 OA
ENDBRANCH  11  18
ENDBRANCH   5  15
ENDBRANCH   4   7
ENDBRANCH   1   4
BRANCH   1  19
ATOM     19  C   UNL     1       2.301   3.813  18.516  0.00  0.00    +0.000 C 
BRANCH  19  20
ATOM     20  C   UNL     1       1.592   4.548  19.596  0.00  0.00    +0.000 C 
ATOM     21  O   UNL     1       0.595   4.103  20.163  0.00  0.00    +0.000 OA
ATOM     22  N   UNL     1       2.156   5.757  19.939  0.00  0.00    +0.000 N 
ATOM     23  H   UNL     1       3.028   6.049  19.522  0.00  0.00    +0.000 HD
BRANCH  22  24
ATOM     24  C   UNL     1       1.672   6.502  21.063  0.00  0.00    +0.000 C 
BRANCH  24  25
ATOM     25  C   UNL     1       1.534   7.964  20.745  0.00  0.00    +0.000 A 
ATOM     26  C   UNL     1       1.591   8.413  19.403  0.00  0.00    +0.000 A 
ATOM     27  C   UNL     1       1.164   9.698  19.063  0.00  0.00    +0.000 A 
ATOM     28  C   UNL     1       0.668  10.474  20.085  0.00  0.00    +0.000 A 
ATOM     29  C   UNL     1       0.734  10.079  21.405  0.00  0.00    +0.000 A 
ATOM     30  C   UNL     1       1.215   8.852  21.778  0.00  0.00    +0.000 A 
ATOM     31  O   UNL     1       0.088  10.948  22.234  0.00  0.00    +0.000 OA
ATOM     32  C   UNL     1      -0.710  11.618  21.241  0.00  0.00    +0.000 C 
ATOM     33  O   UNL     1      -0.071  11.612  19.946  0.00  0.00    +0.000 OA
ENDBRANCH  24  25
ENDBRANCH  22  24
ENDBRANCH  19  20
ENDBRANCH   1  19
TORSDOF 8
ENDMDL
