MODEL 1
REMARK VINA RESULT:      -7.7      0.000      0.000
REMARK  Name = 
REMARK  3 active torsions:
REMARK  status: ('A' for Active; 'I' for Inactive)
REMARK    1  A    between atoms: C_1  and  O_2
REMARK    2  A    between atoms: O_2  and  C_3
REMARK    3  A    between atoms: C_6  and  C_7
REMARK                            x       y       z     vdW  Elec       q    Type
REMARK                         _______ _______ _______ _____ _____    ______ ____
ROOT
ATOM      1  C   UNL     1       2.992   5.809  19.500  0.00  0.00    +0.000 A 
ATOM      2  C   UNL     1       2.403   4.777  20.234  0.00  0.00    +0.000 A 
ATOM      3  C   UNL     1       3.048   3.555  20.303  0.00  0.00    +0.000 A 
ATOM      4  N   UNL     1       4.218   3.286  19.688  0.00  0.00    +0.000 NA
ATOM      5  C   UNL     1       4.803   4.272  18.975  0.00  0.00    +0.000 A 
ATOM      6  N   UNL     1       6.024   3.941  18.403  0.00  0.00    +0.000 N 
ATOM      7  C   UNL     1       6.862   4.636  17.607  0.00  0.00    +0.000 C 
ATOM      8  N   UNL     1       6.622   5.558  16.746  0.00  0.00    +0.000 NA
ATOM      9  N   UNL     1       8.146   4.248  17.758  0.00  0.00    +0.000 N 
ATOM     10  C   UNL     1       4.226   5.534  18.888  0.00  0.00    +0.000 A 
ATOM     11  H   UNL     1       6.291   2.998  18.651  0.00  0.00    +0.000 HD
ATOM     12  H   UNL     1       5.614   5.691  16.657  0.00  0.00    +0.000 HD
ATOM     13  H   UNL     1       8.438   4.180  18.726  0.00  0.00    +0.000 HD
ATOM     14  H   UNL     1       8.753   4.882  17.244  0.00  0.00    +0.000 HD
ENDROOT
BRANCH   1  18
ATOM     15  C   UNL     1       1.133   9.679  19.052  0.00  0.00    +0.000 A 
ATOM     16  C   UNL     1       1.090   9.011  20.274  0.00  0.00    +0.000 A 
ATOM     17  C   UNL     1       1.703   7.764  20.431  0.00  0.00    +0.000 A 
ATOM     18  C   UNL     1       2.352   7.134  19.357  0.00  0.00    +0.000 A 
ATOM     19  C   UNL     1       2.363   7.815  18.126  0.00  0.00    +0.000 A 
ATOM     20  C   UNL     1       1.768   9.072  17.973  0.00  0.00    +0.000 A 
BRANCH  15  22
ATOM     21  C   UNL     1      -0.931  10.825  19.094  0.00  0.00    +0.000 C 
ATOM     22  O   UNL     1       0.489  10.883  19.016  0.00  0.00    +0.000 OA
ENDBRANCH  15  22
ENDBRANCH   1  18
TORSDOF 2
ENDMDL
MODEL 2
REMARK VINA RESULT:      -7.6      0.254      1.159
REMARK  Name = 
REMARK  3 active torsions:
REMARK  status: ('A' for Active; 'I' for Inactive)
REMARK    1  A    between atoms: C_1  and  O_2
REMARK    2  A    between atoms: O_2  and  C_3
REMARK    3  A    between atoms: C_6  and  C_7
REMARK                            x       y       z     vdW  Elec       q    Type
REMARK                         _______ _______ _______ _____ _____    ______ ____
ROOT
ATOM      1  C   UNL     1       2.993   5.811  19.462  0.00  0.00    +0.000 A 
ATOM      2  C   UNL     1       2.397   4.780  20.194  0.00  0.00    +0.000 A 
ATOM      3  C   UNL     1       3.041   3.558  20.270  0.00  0.00    +0.000 A 
ATOM      4  N   UNL     1       4.215   3.288  19.665  0.00  0.00    +0.000 NA
ATOM      5  C   UNL     1       4.807   4.271  18.955  0.00  0.00    +0.000 A 
ATOM      6  N   UNL     1       6.032   3.939  18.393  0.00  0.00    +0.000 N 
ATOM      7  C   UNL     1       6.876   4.632  17.602  0.00  0.00    +0.000 C 
ATOM      8  N   UNL     1       6.644   5.553  16.738  0.00  0.00    +0.000 NA
ATOM      9  N   UNL     1       8.160   4.244  17.765  0.00  0.00    +0.000 N 
ATOM     10  C   UNL     1       4.231   5.533  18.861  0.00  0.00    +0.000 A 
ATOM     11  H   UNL     1       6.297   2.996  18.645  0.00  0.00    +0.000 HD
ATOM     12  H   UNL     1       5.638   5.686  16.640  0.00  0.00    +0.000 HD
ATOM     13  H   UNL     1       8.443   4.177  18.735  0.00  0.00    +0.000 HD
ATOM     14  H   UNL     1       8.771   4.876  17.254  0.00  0.00    +0.000 HD
ENDROOT
BRANCH   1  18
ATOM     15  C   UNL     1       1.121   9.679  19.058  0.00  0.00    +0.000 A 
ATOM     16  C   UNL     1       1.774   9.093  17.976  0.00  0.00    +0.000 A 
ATOM     17  C   UNL     1       2.369   7.834  18.095  0.00  0.00    +0.000 A 
ATOM     18  C   UNL     1       2.355   7.136  19.313  0.00  0.00    +0.000 A 
ATOM     19  C   UNL     1       1.710   7.756  20.400  0.00  0.00    +0.000 A 
ATOM     20  C   UNL     1       1.096   9.007  20.277  0.00  0.00    +0.000 A 
BRANCH  15  22
ATOM     21  C   UNL     1      -0.358  11.369  19.788  0.00  0.00    +0.000 C 
ATOM     22  O   UNL     1       0.588  10.916  18.826  0.00  0.00    +0.000 OA
ENDBRANCH  15  22
ENDBRANCH   1  18
TORSDOF 2
ENDMDL
MODEL 3
REMARK VINA RESULT:      -7.5      1.344      1.734
REMARK  Name = 
REMARK  3 active torsions:
REMARK  status: ('A' for Active; 'I' for Inactive)
REMARK    1  A    between atoms: C_1  and  O_2
REMARK    2  A    between atoms: O_2  and  C_3
REMARK    3  A    between atoms: C_6  and  C_7
REMARK                            x       y       z     vdW  Elec       q    Type
REMARK                         _______ _______ _______ _____ _____    ______ ____
ROOT
ATOM      1  C   UNL     1       2.808   5.793  18.167  0.00  0.00    +0.000 A 
ATOM      2  C   UNL     1       1.970   4.715  17.871  0.00  0.00    +0.000 A 
ATOM      3  C   UNL     1       2.534   3.538  17.410  0.00  0.00    +0.000 A 
ATOM      4  N   UNL     1       3.857   3.366  17.213  0.00  0.00    +0.000 NA
ATOM      5  C   UNL     1       4.682   4.396  17.496  0.00  0.00    +0.000 A 
ATOM      6  N   UNL     1       6.034   4.137  17.310  0.00  0.00    +0.000 N 
ATOM      7  C   UNL     1       7.126   4.917  17.447  0.00  0.00    +0.000 C 
ATOM      8  N   UNL     1       7.271   6.184  17.298  0.00  0.00    +0.000 NA
ATOM      9  N   UNL     1       8.225   4.201  17.770  0.00  0.00    +0.000 N 
ATOM     10  C   UNL     1       4.187   5.597  17.991  0.00  0.00    +0.000 A 
ATOM     11  H   UNL     1       6.178   3.181  17.015  0.00  0.00    +0.000 HD
ATOM     12  H   UNL     1       6.397   6.592  16.963  0.00  0.00    +0.000 HD
ATOM     13  H   UNL     1       8.074   3.546  18.526  0.00  0.00    +0.000 HD
ATOM     14  H   UNL     1       8.987   4.836  17.992  0.00  0.00    +0.000 HD
ENDROOT
BRANCH   1  18
ATOM     15  C   UNL     1       1.260   9.568  19.575  0.00  0.00    +0.000 A 
ATOM     16  C   UNL     1       1.618   9.406  18.239  0.00  0.00    +0.000 A 
ATOM     17  C   UNL     1       2.106   8.181  17.772  0.00  0.00    +0.000 A 
ATOM     18  C   UNL     1       2.278   7.090  18.639  0.00  0.00    +0.000 A 
ATOM     19  C   UNL     1       1.934   7.283  19.990  0.00  0.00    +0.000 A 
ATOM     20  C   UNL     1       1.426   8.502  20.454  0.00  0.00    +0.000 A 
BRANCH  15  22
ATOM     21  C   UNL     1       0.185  11.549  18.871  0.00  0.00    +0.000 C 
ATOM     22  O   UNL     1       0.808  10.812  19.917  0.00  0.00    +0.000 OA
ENDBRANCH  15  22
ENDBRANCH   1  18
TORSDOF 2
ENDMDL
MODEL 4
REMARK VINA RESULT:      -7.5      1.390      1.403
REMARK  Name = 
REMARK  3 active torsions:
REMARK  status: ('A' for Active; 'I' for Inactive)
REMARK    1  A    between atoms: C_1  and  O_2
REMARK    2  A    between atoms: O_2  and  C_3
REMARK    3  A    between atoms: C_6  and  C_7
REMARK                            x       y       z     vdW  Elec       q    Type
REMARK                         _______ _______ _______ _____ _____    ______ ____
ROOT
ATOM      1  C   UNL     1       2.819   5.767  18.188  0.00  0.00    +0.000 A 
ATOM      2  C   UNL     1       1.983   4.687  17.889  0.00  0.00    +0.000 A 
ATOM      3  C   UNL     1       2.549   3.516  17.416  0.00  0.00    +0.000 A 
ATOM      4  N   UNL     1       3.871   3.350  17.209  0.00  0.00    +0.000 NA
ATOM      5  C   UNL     1       4.694   4.381  17.494  0.00  0.00    +0.000 A 
ATOM      6  N   UNL     1       6.045   4.129  17.298  0.00  0.00    +0.000 N 
ATOM      7  C   UNL     1       7.135   4.913  17.433  0.00  0.00    +0.000 C 
ATOM      8  N   UNL     1       7.274   6.181  17.292  0.00  0.00    +0.000 NA
ATOM      9  N   UNL     1       8.239   4.199  17.743  0.00  0.00    +0.000 N 
ATOM     10  C   UNL     1       4.198   5.577  18.001  0.00  0.00    +0.000 A 
ATOM     11  H   UNL     1       6.191   3.176  16.995  0.00  0.00    +0.000 HD
ATOM     12  H   UNL     1       6.397   6.588  16.966  0.00  0.00    +0.000 HD
ATOM     13  H   UNL     1       8.095   3.537  18.497  0.00  0.00    +0.000 HD
ATOM     14  H   UNL     1       9.001   4.835  17.965  0.00  0.00    +0.000 HD
ENDROOT
BRANCH   1  18
ATOM     15  C   UNL     1       1.270   9.551  19.570  0.00  0.00    +0.000 A 
ATOM     16  C   UNL     1       1.433   8.488  20.456  0.00  0.00    +0.000 A 
ATOM     17  C   UNL     1       1.948   7.264  20.018  0.00  0.00    +0.000 A 
ATOM     18  C   UNL     1       2.287   7.058  18.672  0.00  0.00    +0.000 A 
ATOM     19  C   UNL     1       2.093   8.137  17.789  0.00  0.00    +0.000 A 
ATOM     20  C   UNL     1       1.597   9.369  18.229  0.00  0.00    +0.000 A 
BRANCH  15  22
ATOM     21  C   UNL     1      -0.339  10.506  21.009  0.00  0.00    +0.000 C 
ATOM     22  O   UNL     1       0.747  10.692  20.109  0.00  0.00    +0.000 OA
ENDBRANCH  15  22
ENDBRANCH   1  18
TORSDOF 2
ENDMDL
MODEL 5
REMARK VINA RESULT:      -7.4      1.538      3.108
REMARK  Name = 
REMARK  3 active torsions:
REMARK  status: ('A' for Active; 'I' for Inactive)
REMARK    1  A    between atoms: C_1  and  O_2
REMARK    2  A    between atoms: O_2  and  C_3
REMARK    3  A    between atoms: C_6  and  C_7
REMARK                            x       y       z     vdW  Elec       q    Type
REMARK                         _______ _______ _______ _____ _____    ______ ____
ROOT
ATOM      1  C   UNL     1       3.641   6.489  17.768  0.00  0.00    +0.000 A 
ATOM      2  C   UNL     1       4.532   6.875  16.764  0.00  0.00    +0.000 A 
ATOM      3  C   UNL     1       5.374   5.923  16.217  0.00  0.00    +0.000 A 
ATOM      4  N   UNL     1       5.401   4.632  16.604  0.00  0.00    +0.000 NA
ATOM      5  C   UNL     1       4.546   4.239  17.572  0.00  0.00    +0.000 A 
ATOM      6  N   UNL     1       4.598   2.890  17.893  0.00  0.00    +0.000 N 
ATOM      7  C   UNL     1       3.939   2.159  18.816  0.00  0.00    +0.000 C 
ATOM      8  N   UNL     1       3.468   2.492  19.963  0.00  0.00    +0.000 NA
ATOM      9  N   UNL     1       3.796   0.871  18.437  0.00  0.00    +0.000 N 
ATOM     10  C   UNL     1       3.651   5.136  18.144  0.00  0.00    +0.000 A 
ATOM     11  H   UNL     1       5.266   2.408  17.308  0.00  0.00    +0.000 HD
ATOM     12  H   UNL     1       3.723   3.457  20.172  0.00  0.00    +0.000 HD
ATOM     13  H   UNL     1       3.458   0.762  17.489  0.00  0.00    +0.000 HD
ATOM     14  H   UNL     1       3.184   0.392  19.093  0.00  0.00    +0.000 HD
ENDROOT
BRANCH   1  18
ATOM     15  C   UNL     1       0.976   9.283  19.697  0.00  0.00    +0.000 A 
ATOM     16  C   UNL     1       1.393   9.495  18.385  0.00  0.00    +0.000 A 
ATOM     17  C   UNL     1       2.244   8.586  17.748  0.00  0.00    +0.000 A 
ATOM     18  C   UNL     1       2.728   7.452  18.419  0.00  0.00    +0.000 A 
ATOM     19  C   UNL     1       2.314   7.270  19.752  0.00  0.00    +0.000 A 
ATOM     20  C   UNL     1       1.446   8.167  20.384  0.00  0.00    +0.000 A 
BRANCH  15  22
ATOM     21  C   UNL     1      -0.821  10.768  19.325  0.00  0.00    +0.000 C 
ATOM     22  O   UNL     1       0.156  10.244  20.217  0.00  0.00    +0.000 OA
ENDBRANCH  15  22
ENDBRANCH   1  18
TORSDOF 2
ENDMDL
MODEL 6
REMARK VINA RESULT:      -7.3      1.662      3.023
REMARK  Name = 
REMARK  3 active torsions:
REMARK  status: ('A' for Active; 'I' for Inactive)
REMARK    1  A    between atoms: C_1  and  O_2
REMARK    2  A    between atoms: O_2  and  C_3
REMARK    3  A    between atoms: C_6  and  C_7
REMARK                            x       y       z     vdW  Elec       q    Type
REMARK                         _______ _______ _______ _____ _____    ______ ____
ROOT
ATOM      1  C   UNL     1       3.584   6.516  17.790  0.00  0.00    +0.000 A 
ATOM      2  C   UNL     1       4.454   6.909  16.769  0.00  0.00    +0.000 A 
ATOM      3  C   UNL     1       5.292   5.964  16.205  0.00  0.00    +0.000 A 
ATOM      4  N   UNL     1       5.335   4.672  16.590  0.00  0.00    +0.000 NA
ATOM      5  C   UNL     1       4.501   4.273  17.572  0.00  0.00    +0.000 A 
ATOM      6  N   UNL     1       4.567   2.923  17.890  0.00  0.00    +0.000 N 
ATOM      7  C   UNL     1       3.931   2.186  18.825  0.00  0.00    +0.000 C 
ATOM      8  N   UNL     1       3.480   2.514  19.981  0.00  0.00    +0.000 NA
ATOM      9  N   UNL     1       3.790   0.898  18.446  0.00  0.00    +0.000 N 
ATOM     10  C   UNL     1       3.611   5.162  18.164  0.00  0.00    +0.000 A 
ATOM     11  H   UNL     1       5.228   2.446  17.292  0.00  0.00    +0.000 HD
ATOM     12  H   UNL     1       3.733   3.481  20.186  0.00  0.00    +0.000 HD
ATOM     13  H   UNL     1       3.434   0.788  17.505  0.00  0.00    +0.000 HD
ATOM     14  H   UNL     1       3.193   0.414  19.113  0.00  0.00    +0.000 HD
ENDROOT
BRANCH   1  18
ATOM     15  C   UNL     1       0.936   9.326  19.718  0.00  0.00    +0.000 A 
ATOM     16  C   UNL     1       1.408   8.212  20.408  0.00  0.00    +0.000 A 
ATOM     17  C   UNL     1       2.278   7.305  19.795  0.00  0.00    +0.000 A 
ATOM     18  C   UNL     1       2.678   7.472  18.460  0.00  0.00    +0.000 A 
ATOM     19  C   UNL     1       2.171   8.591  17.773  0.00  0.00    +0.000 A 
ATOM     20  C   UNL     1       1.316   9.511  18.392  0.00  0.00    +0.000 A 
BRANCH  15  22
ATOM     21  C   UNL     1       0.128  10.000  21.831  0.00  0.00    +0.000 C 
ATOM     22  O   UNL     1       0.083  10.134  20.415  0.00  0.00    +0.000 OA
ENDBRANCH  15  22
ENDBRANCH   1  18
TORSDOF 2
ENDMDL
MODEL 7
REMARK VINA RESULT:      -7.3      4.016      5.195
REMARK  Name = 
REMARK  3 active torsions:
REMARK  status: ('A' for Active; 'I' for Inactive)
REMARK    1  A    between atoms: C_1  and  O_2
REMARK    2  A    between atoms: O_2  and  C_3
REMARK    3  A    between atoms: C_6  and  C_7
REMARK                            x       y       z     vdW  Elec       q    Type
REMARK                         _______ _______ _______ _____ _____    ______ ____
ROOT
ATOM      1  C   UNL     1       5.400   5.364  17.452  0.00  0.00    +0.000 A 
ATOM      2  C   UNL     1       6.206   6.315  18.084  0.00  0.00    +0.000 A 
ATOM      3  C   UNL     1       7.322   6.791  17.418  0.00  0.00    +0.000 A 
ATOM      4  N   UNL     1       7.695   6.383  16.189  0.00  0.00    +0.000 NA
ATOM      5  C   UNL     1       6.928   5.467  15.562  0.00  0.00    +0.000 A 
ATOM      6  N   UNL     1       7.346   5.123  14.283  0.00  0.00    +0.000 N 
ATOM      7  C   UNL     1       6.867   4.233  13.390  0.00  0.00    +0.000 C 
ATOM      8  N   UNL     1       6.245   3.124  13.567  0.00  0.00    +0.000 NA
ATOM      9  N   UNL     1       7.128   4.601  12.117  0.00  0.00    +0.000 N 
ATOM     10  C   UNL     1       5.776   4.967  16.158  0.00  0.00    +0.000 A 
ATOM     11  H   UNL     1       8.162   5.657  14.018  0.00  0.00    +0.000 HD
ATOM     12  H   UNL     1       6.196   2.914  14.564  0.00  0.00    +0.000 HD
ATOM     13  H   UNL     1       6.899   5.567  11.918  0.00  0.00    +0.000 HD
ATOM     14  H   UNL     1       6.638   3.978  11.479  0.00  0.00    +0.000 HD
ENDROOT
BRANCH   1  18
ATOM     15  C   UNL     1       1.908   3.667  19.337  0.00  0.00    +0.000 A 
ATOM     16  C   UNL     1       2.807   4.433  20.075  0.00  0.00    +0.000 A 
ATOM     17  C   UNL     1       3.933   4.998  19.468  0.00  0.00    +0.000 A 
ATOM     18  C   UNL     1       4.207   4.788  18.108  0.00  0.00    +0.000 A 
ATOM     19  C   UNL     1       3.298   3.992  17.386  0.00  0.00    +0.000 A 
ATOM     20  C   UNL     1       2.160   3.442  17.987  0.00  0.00    +0.000 A 
BRANCH  15  22
ATOM     21  C   UNL     1       1.139   2.758  21.375  0.00  0.00    +0.000 C 
ATOM     22  O   UNL     1       0.853   3.157  20.040  0.00  0.00    +0.000 OA
ENDBRANCH  15  22
ENDBRANCH   1  18
TORSDOF 2
ENDMDL
MODEL 8
REMARK VINA RESULT:      -7.3      3.978      6.352
REMARK  Name = 
REMARK  3 active torsions:
REMARK  status: ('A' for Active; 'I' for Inactive)
REMARK    1  A    between atoms: C_1  and  O_2
REMARK    2  A    between atoms: O_2  and  C_3
REMARK    3  A    between atoms: C_6  and  C_7
REMARK                            x       y       z     vdW  Elec       q    Type
REMARK                         _______ _______ _______ _____ _____    ______ ____
ROOT
ATOM      1  C   UNL     1       3.495   5.850  18.152  0.00  0.00    +0.000 A 
ATOM      2  C   UNL     1       3.151   7.179  18.414  0.00  0.00    +0.000 A 
ATOM      3  C   UNL     1       2.303   7.453  19.473  0.00  0.00    +0.000 A 
ATOM      4  N   UNL     1       1.769   6.507  20.272  0.00  0.00    +0.000 NA
ATOM      5  C   UNL     1       2.091   5.218  20.036  0.00  0.00    +0.000 A 
ATOM      6  N   UNL     1       1.540   4.300  20.920  0.00  0.00    +0.000 N 
ATOM      7  C   UNL     1       1.602   2.954  20.974  0.00  0.00    +0.000 C 
ATOM      8  N   UNL     1       1.732   2.086  20.037  0.00  0.00    +0.000 NA
ATOM      9  N   UNL     1       1.479   2.489  22.236  0.00  0.00    +0.000 N 
ATOM     10  C   UNL     1       2.961   4.872  19.008  0.00  0.00    +0.000 A 
ATOM     11  H   UNL     1       0.999   4.771  21.633  0.00  0.00    +0.000 HD
ATOM     12  H   UNL     1       1.717   2.555  19.131  0.00  0.00    +0.000 HD
ATOM     13  H   UNL     1       2.070   2.969  22.904  0.00  0.00    +0.000 HD
ATOM     14  H   UNL     1       1.664   1.489  22.247  0.00  0.00    +0.000 HD
ENDROOT
BRANCH   1  18
ATOM     15  C   UNL     1       6.057   4.724  14.867  0.00  0.00    +0.000 A 
ATOM     16  C   UNL     1       5.740   6.062  15.089  0.00  0.00    +0.000 A 
ATOM     17  C   UNL     1       4.923   6.436  16.160  0.00  0.00    +0.000 A 
ATOM     18  C   UNL     1       4.373   5.476  17.024  0.00  0.00    +0.000 A 
ATOM     19  C   UNL     1       4.687   4.128  16.768  0.00  0.00    +0.000 A 
ATOM     20  C   UNL     1       5.521   3.753  15.708  0.00  0.00    +0.000 A 
BRANCH  15  22
ATOM     21  C   UNL     1       6.298   3.621  12.793  0.00  0.00    +0.000 C 
ATOM     22  O   UNL     1       6.853   4.479  13.783  0.00  0.00    +0.000 OA
ENDBRANCH  15  22
ENDBRANCH   1  18
TORSDOF 2
ENDMDL
MODEL 9
REMARK VINA RESULT:      -7.2      3.980      6.270
REMARK  Name = 
REMARK  3 active torsions:
REMARK  status: ('A' for Active; 'I' for Inactive)
REMARK    1  A    between atoms: C_1  and  O_2
REMARK    2  A    between atoms: O_2  and  C_3
REMARK    3  A    between atoms: C_6  and  C_7
REMARK                            x       y       z     vdW  Elec       q    Type
REMARK                         _______ _______ _______ _____ _____    ______ ____
ROOT
ATOM      1  C   UNL     1       3.411   5.894  18.220  0.00  0.00    +0.000 A 
ATOM      2  C   UNL     1       3.059   7.215  18.508  0.00  0.00    +0.000 A 
ATOM      3  C   UNL     1       2.218   7.464  19.578  0.00  0.00    +0.000 A 
ATOM      4  N   UNL     1       1.697   6.500  20.365  0.00  0.00    +0.000 NA
ATOM      5  C   UNL     1       2.028   5.218  20.104  0.00  0.00    +0.000 A 
ATOM      6  N   UNL     1       1.491   4.281  20.977  0.00  0.00    +0.000 N 
ATOM      7  C   UNL     1       1.564   2.934  21.007  0.00  0.00    +0.000 C 
ATOM      8  N   UNL     1       1.694   2.084  20.054  0.00  0.00    +0.000 NA
ATOM      9  N   UNL     1       1.455   2.447  22.262  0.00  0.00    +0.000 N 
ATOM     10  C   UNL     1       2.892   4.897  19.063  0.00  0.00    +0.000 A 
ATOM     11  H   UNL     1       0.952   4.735  21.701  0.00  0.00    +0.000 HD
ATOM     12  H   UNL     1       1.668   2.568  19.156  0.00  0.00    +0.000 HD
ATOM     13  H   UNL     1       2.047   2.920  22.933  0.00  0.00    +0.000 HD
ATOM     14  H   UNL     1       1.648   1.449  22.254  0.00  0.00    +0.000 HD
ENDROOT
BRANCH   1  18
ATOM     15  C   UNL     1       5.963   4.910  14.882  0.00  0.00    +0.000 A 
ATOM     16  C   UNL     1       5.414   3.903  15.672  0.00  0.00    +0.000 A 
ATOM     17  C   UNL     1       4.574   4.213  16.746  0.00  0.00    +0.000 A 
ATOM     18  C   UNL     1       4.284   5.546  17.079  0.00  0.00    +0.000 A 
ATOM     19  C   UNL     1       4.868   6.548  16.283  0.00  0.00    +0.000 A 
ATOM     20  C   UNL     1       5.692   6.239  15.195  0.00  0.00    +0.000 A 
BRANCH  15  22
ATOM     21  C   UNL     1       6.177   3.608  12.924  0.00  0.00    +0.000 C 
ATOM     22  O   UNL     1       6.777   4.486  13.869  0.00  0.00    +0.000 OA
ENDBRANCH  15  22
ENDBRANCH   1  18
TORSDOF 2
ENDMDL
