MODEL 1
REMARK VINA RESULT:      -7.9      0.000      0.000
REMARK  Name = 
REMARK  5 active torsions:
REMARK  status: ('A' for Active; 'I' for Inactive)
REMARK    1  A    between atoms: C_1  and  C_2
REMARK    2  A    between atoms: C_2  and  C_3
REMARK    3  A    between atoms: C_3  and  N_4
REMARK    4  A    between atoms: C_14  and  C_15
REMARK    5  A    between atoms: C_18  and  C_19
REMARK                            x       y       z     vdW  Elec       q    Type
REMARK                         _______ _______ _______ _____ _____    ______ ____
ROOT
ATOM      1  N   UNL     1       5.962   5.226  16.945  0.00  0.00    +0.000 N 
ATOM      2  C   UNL     1       6.899   5.612  15.985  0.00  0.00    +0.000 C 
ATOM      3  O   UNL     1       7.716   6.516  16.156  0.00  0.00    +0.000 OA
ATOM      4  C   UNL     1       6.839   4.933  14.673  0.00  0.00    +0.000 A 
ATOM      5  C   UNL     1       7.701   5.316  13.632  0.00  0.00    +0.000 A 
ATOM      6  C   UNL     1       7.551   4.761  12.364  0.00  0.00    +0.000 A 
ATOM      7  C   UNL     1       6.547   3.821  12.134  0.00  0.00    +0.000 A 
ATOM      8  C   UNL     1       5.691   3.445  13.174  0.00  0.00    +0.000 A 
ATOM      9  C   UNL     1       5.847   3.977  14.462  0.00  0.00    +0.000 A 
ATOM     10  N   UNL     1       4.906   3.691  15.454  0.00  0.00    +0.000 N 
ATOM     11  C   UNL     1       5.323   3.925  16.833  0.00  0.00    +0.000 C 
ATOM     12  H   UNL     1       4.444   2.798  15.331  0.00  0.00    +0.000 HD
ENDROOT
BRANCH  11  13
ATOM     13  C   UNL     1       4.082   3.738  17.690  0.00  0.00    +0.000 A 
ATOM     14  C   UNL     1       2.903   4.438  17.405  0.00  0.00    +0.000 A 
ATOM     15  C   UNL     1       1.769   4.270  18.206  0.00  0.00    +0.000 A 
ATOM     16  C   UNL     1       1.793   3.398  19.301  0.00  0.00    +0.000 A 
ATOM     17  C   UNL     1       0.588   3.227  20.177  0.00  0.00    +0.000 C 
ATOM     18  C   UNL     1       2.963   2.687  19.583  0.00  0.00    +0.000 A 
ATOM     19  C   UNL     1       4.098   2.864  18.792  0.00  0.00    +0.000 A 
ENDBRANCH  11  13
BRANCH   1  20
ATOM     20  C   UNL     1       5.918   5.980  18.205  0.00  0.00    +0.000 C 
BRANCH  20  22
ATOM     21  C   UNL     1       8.133   5.811  19.472  0.00  0.00    +0.000 C 
ATOM     22  C   UNL     1       6.679   5.382  19.391  0.00  0.00    +0.000 C 
ENDBRANCH  20  22
ENDBRANCH   1  20
TORSDOF 3
ENDMDL
MODEL 2
REMARK VINA RESULT:      -7.8      0.030      1.054
REMARK  Name = 
REMARK  5 active torsions:
REMARK  status: ('A' for Active; 'I' for Inactive)
REMARK    1  A    between atoms: C_1  and  C_2
REMARK    2  A    between atoms: C_2  and  C_3
REMARK    3  A    between atoms: C_3  and  N_4
REMARK    4  A    between atoms: C_14  and  C_15
REMARK    5  A    between atoms: C_18  and  C_19
REMARK                            x       y       z     vdW  Elec       q    Type
REMARK                         _______ _______ _______ _____ _____    ______ ____
ROOT
ATOM      1  N   UNL     1       5.966   5.225  16.950  0.00  0.00    +0.000 N 
ATOM      2  C   UNL     1       6.900   5.613  15.990  0.00  0.00    +0.000 C 
ATOM      3  O   UNL     1       7.716   6.519  16.160  0.00  0.00    +0.000 OA
ATOM      4  C   UNL     1       6.841   4.933  14.678  0.00  0.00    +0.000 A 
ATOM      5  C   UNL     1       7.700   5.319  13.636  0.00  0.00    +0.000 A 
ATOM      6  C   UNL     1       7.550   4.764  12.367  0.00  0.00    +0.000 A 
ATOM      7  C   UNL     1       6.548   3.822  12.138  0.00  0.00    +0.000 A 
ATOM      8  C   UNL     1       5.694   3.443  13.180  0.00  0.00    +0.000 A 
ATOM      9  C   UNL     1       5.851   3.975  14.468  0.00  0.00    +0.000 A 
ATOM     10  N   UNL     1       4.912   3.687  15.460  0.00  0.00    +0.000 N 
ATOM     11  C   UNL     1       5.329   3.922  16.840  0.00  0.00    +0.000 C 
ATOM     12  H   UNL     1       4.451   2.793  15.339  0.00  0.00    +0.000 HD
ENDROOT
BRANCH  11  13
ATOM     13  C   UNL     1       4.091   3.732  17.698  0.00  0.00    +0.000 A 
ATOM     14  C   UNL     1       4.107   2.863  18.797  0.00  0.00    +0.000 A 
ATOM     15  C   UNL     1       2.959   2.684  19.575  0.00  0.00    +0.000 A 
ATOM     16  C   UNL     1       1.778   3.372  19.270  0.00  0.00    +0.000 A 
ATOM     17  C   UNL     1       0.536   3.169  20.086  0.00  0.00    +0.000 C 
ATOM     18  C   UNL     1       1.759   4.248  18.182  0.00  0.00    +0.000 A 
ATOM     19  C   UNL     1       2.900   4.418  17.398  0.00  0.00    +0.000 A 
ENDBRANCH  11  13
BRANCH   1  20
ATOM     20  C   UNL     1       5.921   5.978  18.211  0.00  0.00    +0.000 C 
BRANCH  20  22
ATOM     21  C   UNL     1       8.137   5.794  19.475  0.00  0.00    +0.000 C 
ATOM     22  C   UNL     1       6.679   5.378  19.398  0.00  0.00    +0.000 C 
ENDBRANCH  20  22
ENDBRANCH   1  20
TORSDOF 3
ENDMDL
MODEL 3
REMARK VINA RESULT:      -7.3      2.185      6.516
REMARK  Name = 
REMARK  5 active torsions:
REMARK  status: ('A' for Active; 'I' for Inactive)
REMARK    1  A    between atoms: C_1  and  C_2
REMARK    2  A    between atoms: C_2  and  C_3
REMARK    3  A    between atoms: C_3  and  N_4
REMARK    4  A    between atoms: C_14  and  C_15
REMARK    5  A    between atoms: C_18  and  C_19
REMARK                            x       y       z     vdW  Elec       q    Type
REMARK                         _______ _______ _______ _____ _____    ______ ____
ROOT
ATOM      1  N   UNL     1       4.206   4.297  17.229  0.00  0.00    +0.000 N 
ATOM      2  C   UNL     1       3.093   3.468  17.375  0.00  0.00    +0.000 C 
ATOM      3  O   UNL     1       2.542   2.895  16.435  0.00  0.00    +0.000 OA
ATOM      4  C   UNL     1       2.517   3.346  18.732  0.00  0.00    +0.000 A 
ATOM      5  C   UNL     1       1.353   2.589  18.946  0.00  0.00    +0.000 A 
ATOM      6  C   UNL     1       0.746   2.584  20.200  0.00  0.00    +0.000 A 
ATOM      7  C   UNL     1       1.301   3.330  21.240  0.00  0.00    +0.000 A 
ATOM      8  C   UNL     1       2.459   4.084  21.019  0.00  0.00    +0.000 A 
ATOM      9  C   UNL     1       3.094   4.076  19.769  0.00  0.00    +0.000 A 
ATOM     10  N   UNL     1       4.170   4.933  19.529  0.00  0.00    +0.000 N 
ATOM     11  C   UNL     1       5.024   4.602  18.391  0.00  0.00    +0.000 C 
ATOM     12  H   UNL     1       4.700   5.165  20.360  0.00  0.00    +0.000 HD
ENDROOT
BRANCH  11  13
ATOM     13  C   UNL     1       5.978   5.772  18.221  0.00  0.00    +0.000 A 
ATOM     14  C   UNL     1       7.248   5.751  18.811  0.00  0.00    +0.000 A 
ATOM     15  C   UNL     1       8.117   6.837  18.661  0.00  0.00    +0.000 A 
ATOM     16  C   UNL     1       7.732   7.959  17.916  0.00  0.00    +0.000 A 
ATOM     17  C   UNL     1       8.649   9.136  17.767  0.00  0.00    +0.000 C 
ATOM     18  C   UNL     1       6.471   7.980  17.315  0.00  0.00    +0.000 A 
ATOM     19  C   UNL     1       5.599   6.903  17.475  0.00  0.00    +0.000 A 
ENDBRANCH  11  13
BRANCH   1  20
ATOM     20  C   UNL     1       4.710   4.537  15.870  0.00  0.00    +0.000 C 
BRANCH  20  22
ATOM     21  C   UNL     1       6.963   4.662  14.663  0.00  0.00    +0.000 C 
ATOM     22  C   UNL     1       6.002   3.815  15.478  0.00  0.00    +0.000 C 
ENDBRANCH  20  22
ENDBRANCH   1  20
TORSDOF 3
ENDMDL
MODEL 4
REMARK VINA RESULT:      -7.2      0.690      1.229
REMARK  Name = 
REMARK  5 active torsions:
REMARK  status: ('A' for Active; 'I' for Inactive)
REMARK    1  A    between atoms: C_1  and  C_2
REMARK    2  A    between atoms: C_2  and  C_3
REMARK    3  A    between atoms: C_3  and  N_4
REMARK    4  A    between atoms: C_14  and  C_15
REMARK    5  A    between atoms: C_18  and  C_19
REMARK                            x       y       z     vdW  Elec       q    Type
REMARK                         _______ _______ _______ _____ _____    ______ ____
ROOT
ATOM      1  N   UNL     1       5.983   5.106  16.940  0.00  0.00    +0.000 N 
ATOM      2  C   UNL     1       6.908   5.547  15.994  0.00  0.00    +0.000 C 
ATOM      3  O   UNL     1       7.701   6.467  16.193  0.00  0.00    +0.000 OA
ATOM      4  C   UNL     1       6.867   4.907  14.661  0.00  0.00    +0.000 A 
ATOM      5  C   UNL     1       7.718   5.346  13.633  0.00  0.00    +0.000 A 
ATOM      6  C   UNL     1       7.583   4.827  12.347  0.00  0.00    +0.000 A 
ATOM      7  C   UNL     1       6.605   3.868  12.088  0.00  0.00    +0.000 A 
ATOM      8  C   UNL     1       5.759   3.436  13.115  0.00  0.00    +0.000 A 
ATOM      9  C   UNL     1       5.902   3.931  14.420  0.00  0.00    +0.000 A 
ATOM     10  N   UNL     1       4.969   3.589  15.401  0.00  0.00    +0.000 N 
ATOM     11  C   UNL     1       5.379   3.791  16.788  0.00  0.00    +0.000 C 
ATOM     12  H   UNL     1       4.531   2.689  15.250  0.00  0.00    +0.000 HD
ENDROOT
BRANCH  11  13
ATOM     13  C   UNL     1       4.145   3.544  17.637  0.00  0.00    +0.000 A 
ATOM     14  C   UNL     1       2.868   3.852  17.151  0.00  0.00    +0.000 A 
ATOM     15  C   UNL     1       1.736   3.632  17.943  0.00  0.00    +0.000 A 
ATOM     16  C   UNL     1       1.863   3.100  19.233  0.00  0.00    +0.000 A 
ATOM     17  C   UNL     1       0.657   2.881  20.097  0.00  0.00    +0.000 C 
ATOM     18  C   UNL     1       3.133   2.780  19.718  0.00  0.00    +0.000 A 
ATOM     19  C   UNL     1       4.262   3.009  18.933  0.00  0.00    +0.000 A 
ENDBRANCH  11  13
BRANCH   1  20
ATOM     20  C   UNL     1       5.918   5.818  18.223  0.00  0.00    +0.000 C 
BRANCH  20  22
ATOM     21  C   UNL     1       4.056   7.253  17.215  0.00  0.00    +0.000 C 
ATOM     22  C   UNL     1       4.671   6.671  18.474  0.00  0.00    +0.000 C 
ENDBRANCH  20  22
ENDBRANCH   1  20
TORSDOF 3
ENDMDL
MODEL 5
REMARK VINA RESULT:      -7.2      2.187      6.422
REMARK  Name = 
REMARK  5 active torsions:
REMARK  status: ('A' for Active; 'I' for Inactive)
REMARK    1  A    between atoms: C_1  and  C_2
REMARK    2  A    between atoms: C_2  and  C_3
REMARK    3  A    between atoms: C_3  and  N_4
REMARK    4  A    between atoms: C_14  and  C_15
REMARK    5  A    between atoms: C_18  and  C_19
REMARK                            x       y       z     vdW  Elec       q    Type
REMARK                         _______ _______ _______ _____ _____    ______ ____
ROOT
ATOM      1  N   UNL     1       4.213   4.292  17.221  0.00  0.00    +0.000 N 
ATOM      2  C   UNL     1       3.110   3.449  17.362  0.00  0.00    +0.000 C 
ATOM      3  O   UNL     1       2.573   2.866  16.421  0.00  0.00    +0.000 OA
ATOM      4  C   UNL     1       2.527   3.321  18.716  0.00  0.00    +0.000 A 
ATOM      5  C   UNL     1       1.373   2.549  18.925  0.00  0.00    +0.000 A 
ATOM      6  C   UNL     1       0.759   2.538  20.175  0.00  0.00    +0.000 A 
ATOM      7  C   UNL     1       1.297   3.293  21.216  0.00  0.00    +0.000 A 
ATOM      8  C   UNL     1       2.446   4.062  21.001  0.00  0.00    +0.000 A 
ATOM      9  C   UNL     1       3.089   4.061  19.755  0.00  0.00    +0.000 A 
ATOM     10  N   UNL     1       4.154   4.932  19.519  0.00  0.00    +0.000 N 
ATOM     11  C   UNL     1       5.020   4.611  18.388  0.00  0.00    +0.000 C 
ATOM     12  H   UNL     1       4.676   5.173  20.353  0.00  0.00    +0.000 HD
ENDROOT
BRANCH  11  13
ATOM     13  C   UNL     1       5.959   5.793  18.221  0.00  0.00    +0.000 A 
ATOM     14  C   UNL     1       5.563   6.926  17.498  0.00  0.00    +0.000 A 
ATOM     15  C   UNL     1       6.437   8.006  17.339  0.00  0.00    +0.000 A 
ATOM     16  C   UNL     1       7.720   7.972  17.902  0.00  0.00    +0.000 A 
ATOM     17  C   UNL     1       8.671   9.117  17.718  0.00  0.00    +0.000 C 
ATOM     18  C   UNL     1       8.115   6.850  18.634  0.00  0.00    +0.000 A 
ATOM     19  C   UNL     1       7.248   5.768  18.783  0.00  0.00    +0.000 A 
ENDBRANCH  11  13
BRANCH   1  20
ATOM     20  C   UNL     1       4.722   4.537  15.865  0.00  0.00    +0.000 C 
BRANCH  20  22
ATOM     21  C   UNL     1       7.053   4.696  14.823  0.00  0.00    +0.000 C 
ATOM     22  C   UNL     1       6.008   3.805  15.471  0.00  0.00    +0.000 C 
ENDBRANCH  20  22
ENDBRANCH   1  20
TORSDOF 3
ENDMDL
MODEL 6
REMARK VINA RESULT:      -7.2      0.694      1.600
REMARK  Name = 
REMARK  5 active torsions:
REMARK  status: ('A' for Active; 'I' for Inactive)
REMARK    1  A    between atoms: C_1  and  C_2
REMARK    2  A    between atoms: C_2  and  C_3
REMARK    3  A    between atoms: C_3  and  N_4
REMARK    4  A    between atoms: C_14  and  C_15
REMARK    5  A    between atoms: C_18  and  C_19
REMARK                            x       y       z     vdW  Elec       q    Type
REMARK                         _______ _______ _______ _____ _____    ______ ____
ROOT
ATOM      1  N   UNL     1       5.983   5.121  16.934  0.00  0.00    +0.000 N 
ATOM      2  C   UNL     1       6.907   5.559  15.985  0.00  0.00    +0.000 C 
ATOM      3  O   UNL     1       7.698   6.482  16.178  0.00  0.00    +0.000 OA
ATOM      4  C   UNL     1       6.866   4.913  14.655  0.00  0.00    +0.000 A 
ATOM      5  C   UNL     1       7.715   5.348  13.624  0.00  0.00    +0.000 A 
ATOM      6  C   UNL     1       7.580   4.822  12.342  0.00  0.00    +0.000 A 
ATOM      7  C   UNL     1       6.604   3.859  12.088  0.00  0.00    +0.000 A 
ATOM      8  C   UNL     1       5.760   3.431  13.119  0.00  0.00    +0.000 A 
ATOM      9  C   UNL     1       5.903   3.934  14.420  0.00  0.00    +0.000 A 
ATOM     10  N   UNL     1       4.971   3.595  15.404  0.00  0.00    +0.000 N 
ATOM     11  C   UNL     1       5.382   3.805  16.789  0.00  0.00    +0.000 C 
ATOM     12  H   UNL     1       4.535   2.693  15.259  0.00  0.00    +0.000 HD
ENDROOT
BRANCH  11  13
ATOM     13  C   UNL     1       4.149   3.560  17.641  0.00  0.00    +0.000 A 
ATOM     14  C   UNL     1       4.264   3.019  18.928  0.00  0.00    +0.000 A 
ATOM     15  C   UNL     1       3.123   2.785  19.702  0.00  0.00    +0.000 A 
ATOM     16  C   UNL     1       1.850   3.089  19.204  0.00  0.00    +0.000 A 
ATOM     17  C   UNL     1       0.619   2.822  20.019  0.00  0.00    +0.000 C 
ATOM     18  C   UNL     1       1.730   3.640  17.925  0.00  0.00    +0.000 A 
ATOM     19  C   UNL     1       2.866   3.862  17.148  0.00  0.00    +0.000 A 
ENDBRANCH  11  13
BRANCH   1  20
ATOM     20  C   UNL     1       5.918   5.841  18.213  0.00  0.00    +0.000 C 
BRANCH  20  22
ATOM     21  C   UNL     1       4.036   7.281  17.250  0.00  0.00    +0.000 C 
ATOM     22  C   UNL     1       4.644   6.644  18.487  0.00  0.00    +0.000 C 
ENDBRANCH  20  22
ENDBRANCH   1  20
TORSDOF 3
ENDMDL
MODEL 7
REMARK VINA RESULT:      -6.8      2.913      6.432
REMARK  Name = 
REMARK  5 active torsions:
REMARK  status: ('A' for Active; 'I' for Inactive)
REMARK    1  A    between atoms: C_1  and  C_2
REMARK    2  A    between atoms: C_2  and  C_3
REMARK    3  A    between atoms: C_3  and  N_4
REMARK    4  A    between atoms: C_14  and  C_15
REMARK    5  A    between atoms: C_18  and  C_19
REMARK                            x       y       z     vdW  Elec       q    Type
REMARK                         _______ _______ _______ _____ _____    ______ ____
ROOT
ATOM      1  N   UNL     1       4.160   5.057  18.552  0.00  0.00    +0.000 N 
ATOM      2  C   UNL     1       3.318   5.525  19.561  0.00  0.00    +0.000 C 
ATOM      3  O   UNL     1       3.005   4.861  20.549  0.00  0.00    +0.000 OA
ATOM      4  C   UNL     1       2.724   6.866  19.376  0.00  0.00    +0.000 A 
ATOM      5  C   UNL     1       1.810   7.376  20.313  0.00  0.00    +0.000 A 
ATOM      6  C   UNL     1       1.158   8.582  20.066  0.00  0.00    +0.000 A 
ATOM      7  C   UNL     1       1.420   9.281  18.888  0.00  0.00    +0.000 A 
ATOM      8  C   UNL     1       2.331   8.767  17.958  0.00  0.00    +0.000 A 
ATOM      9  C   UNL     1       3.013   7.568  18.207  0.00  0.00    +0.000 A 
ATOM     10  N   UNL     1       3.817   7.004  17.214  0.00  0.00    +0.000 N 
ATOM     11  C   UNL     1       4.792   6.010  17.653  0.00  0.00    +0.000 C 
ATOM     12  H   UNL     1       4.211   7.682  16.575  0.00  0.00    +0.000 HD
ENDROOT
BRANCH  11  13
ATOM     13  C   UNL     1       5.387   5.411  16.390  0.00  0.00    +0.000 A 
ATOM     14  C   UNL     1       6.767   5.462  16.155  0.00  0.00    +0.000 A 
ATOM     15  C   UNL     1       7.307   4.919  14.984  0.00  0.00    +0.000 A 
ATOM     16  C   UNL     1       6.477   4.315  14.032  0.00  0.00    +0.000 A 
ATOM     17  C   UNL     1       7.044   3.749  12.764  0.00  0.00    +0.000 C 
ATOM     18  C   UNL     1       5.101   4.251  14.266  0.00  0.00    +0.000 A 
ATOM     19  C   UNL     1       4.561   4.802  15.428  0.00  0.00    +0.000 A 
ENDBRANCH  11  13
BRANCH   1  20
ATOM     20  C   UNL     1       4.653   3.677  18.652  0.00  0.00    +0.000 C 
BRANCH  20  22
ATOM     21  C   UNL     1       2.492   3.011  17.456  0.00  0.00    +0.000 C 
ATOM     22  C   UNL     1       3.654   2.564  18.325  0.00  0.00    +0.000 C 
ENDBRANCH  20  22
ENDBRANCH   1  20
TORSDOF 3
ENDMDL
MODEL 8
REMARK VINA RESULT:      -6.7      1.587      5.909
REMARK  Name = 
REMARK  5 active torsions:
REMARK  status: ('A' for Active; 'I' for Inactive)
REMARK    1  A    between atoms: C_1  and  C_2
REMARK    2  A    between atoms: C_2  and  C_3
REMARK    3  A    between atoms: C_3  and  N_4
REMARK    4  A    between atoms: C_14  and  C_15
REMARK    5  A    between atoms: C_18  and  C_19
REMARK                            x       y       z     vdW  Elec       q    Type
REMARK                         _______ _______ _______ _____ _____    ______ ____
ROOT
ATOM      1  N   UNL     1       5.760   4.609  17.829  0.00  0.00    +0.000 N 
ATOM      2  C   UNL     1       5.161   4.514  19.086  0.00  0.00    +0.000 C 
ATOM      3  O   UNL     1       5.784   4.576  20.145  0.00  0.00    +0.000 OA
ATOM      4  C   UNL     1       3.705   4.252  19.121  0.00  0.00    +0.000 A 
ATOM      5  C   UNL     1       3.043   4.072  20.345  0.00  0.00    +0.000 A 
ATOM      6  C   UNL     1       1.701   3.699  20.364  0.00  0.00    +0.000 A 
ATOM      7  C   UNL     1       1.019   3.510  19.162  0.00  0.00    +0.000 A 
ATOM      8  C   UNL     1       1.685   3.690  17.945  0.00  0.00    +0.000 A 
ATOM      9  C   UNL     1       3.028   4.092  17.913  0.00  0.00    +0.000 A 
ATOM     10  N   UNL     1       3.713   4.139  16.697  0.00  0.00    +0.000 N 
ATOM     11  C   UNL     1       4.940   4.929  16.671  0.00  0.00    +0.000 C 
ATOM     12  H   UNL     1       3.115   4.321  15.900  0.00  0.00    +0.000 HD
ENDROOT
BRANCH  11  13
ATOM     13  C   UNL     1       5.591   4.661  15.325  0.00  0.00    +0.000 A 
ATOM     14  C   UNL     1       6.807   5.267  14.984  0.00  0.00    +0.000 A 
ATOM     15  C   UNL     1       7.394   5.026  13.738  0.00  0.00    +0.000 A 
ATOM     16  C   UNL     1       6.777   4.173  12.814  0.00  0.00    +0.000 A 
ATOM     17  C   UNL     1       7.388   3.925  11.467  0.00  0.00    +0.000 C 
ATOM     18  C   UNL     1       5.570   3.556  13.153  0.00  0.00    +0.000 A 
ATOM     19  C   UNL     1       4.978   3.806  14.391  0.00  0.00    +0.000 A 
ENDBRANCH  11  13
BRANCH   1  20
ATOM     20  C   UNL     1       7.222   4.735  17.773  0.00  0.00    +0.000 C 
BRANCH  20  22
ATOM     21  C   UNL     1       7.599   7.266  17.769  0.00  0.00    +0.000 C 
ATOM     22  C   UNL     1       7.836   5.946  18.481  0.00  0.00    +0.000 C 
ENDBRANCH  20  22
ENDBRANCH   1  20
TORSDOF 3
ENDMDL
MODEL 9
REMARK VINA RESULT:      -6.7      3.604      5.100
REMARK  Name = 
REMARK  5 active torsions:
REMARK  status: ('A' for Active; 'I' for Inactive)
REMARK    1  A    between atoms: C_1  and  C_2
REMARK    2  A    between atoms: C_2  and  C_3
REMARK    3  A    between atoms: C_3  and  N_4
REMARK    4  A    between atoms: C_14  and  C_15
REMARK    5  A    between atoms: C_18  and  C_19
REMARK                            x       y       z     vdW  Elec       q    Type
REMARK                         _______ _______ _______ _____ _____    ______ ____
ROOT
ATOM      1  N   UNL     1       3.083   5.226  19.145  0.00  0.00    +0.000 N 
ATOM      2  C   UNL     1       3.900   4.250  18.572  0.00  0.00    +0.000 C 
ATOM      3  O   UNL     1       4.088   3.141  19.070  0.00  0.00    +0.000 OA
ATOM      4  C   UNL     1       4.626   4.619  17.337  0.00  0.00    +0.000 A 
ATOM      5  C   UNL     1       5.522   3.717  16.742  0.00  0.00    +0.000 A 
ATOM      6  C   UNL     1       6.296   4.118  15.655  0.00  0.00    +0.000 A 
ATOM      7  C   UNL     1       6.173   5.416  15.160  0.00  0.00    +0.000 A 
ATOM      8  C   UNL     1       5.280   6.310  15.759  0.00  0.00    +0.000 A 
ATOM      9  C   UNL     1       4.475   5.910  16.837  0.00  0.00    +0.000 A 
ATOM     10  N   UNL     1       3.687   6.850  17.504  0.00  0.00    +0.000 N 
ATOM     11  C   UNL     1       2.599   6.323  18.322  0.00  0.00    +0.000 C 
ATOM     12  H   UNL     1       3.397   7.626  16.922  0.00  0.00    +0.000 HD
ENDROOT
BRANCH  11  13
ATOM     13  C   UNL     1       2.031   7.505  19.089  0.00  0.00    +0.000 A 
ATOM     14  C   UNL     1       1.812   7.424  20.470  0.00  0.00    +0.000 A 
ATOM     15  C   UNL     1       1.278   8.512  21.167  0.00  0.00    +0.000 A 
ATOM     16  C   UNL     1       0.957   9.699  20.496  0.00  0.00    +0.000 A 
ATOM     17  C   UNL     1       0.364  10.864  21.232  0.00  0.00    +0.000 C 
ATOM     18  C   UNL     1       1.185   9.790  19.121  0.00  0.00    +0.000 A 
ATOM     19  C   UNL     1       1.706   8.701  18.423  0.00  0.00    +0.000 A 
ENDBRANCH  11  13
BRANCH   1  20
ATOM     20  C   UNL     1       2.460   4.926  20.441  0.00  0.00    +0.000 C 
BRANCH  20  22
ATOM     21  C   UNL     1       1.333   2.814  21.343  0.00  0.00    +0.000 C 
ATOM     22  C   UNL     1       1.230   4.013  20.418  0.00  0.00    +0.000 C 
ENDBRANCH  20  22
ENDBRANCH   1  20
TORSDOF 3
ENDMDL
