MODEL 1
REMARK VINA RESULT:      -8.8      0.000      0.000
REMARK  Name = 
REMARK  8 active torsions:
REMARK  status: ('A' for Active; 'I' for Inactive)
REMARK    1  A    between atoms: C_1  and  C_2
REMARK    2  A    between atoms: N_4  and  C_5
REMARK    3  A    between atoms: C_8  and  N_9
REMARK    4  A    between atoms: C_10  and  C_12
REMARK    5  A    between atoms: C_15  and  C_16
REMARK    6  A    between atoms: C_16  and  O_17
REMARK    7  A    between atoms: O_17  and  C_18
REMARK    8  A    between atoms: C_22  and  C_23
REMARK                            x       y       z     vdW  Elec       q    Type
REMARK                         _______ _______ _______ _____ _____    ______ ____
ROOT
ATOM      1  C   UNL     1       8.145   7.894  18.187  0.00  0.00    +0.000 A 
ATOM      2  C   UNL     1       7.634   7.843  16.880  0.00  0.00    +0.000 A 
ATOM      3  C   UNL     1       7.154   6.649  16.344  0.00  0.00    +0.000 A 
ATOM      4  C   UNL     1       7.172   5.477  17.107  0.00  0.00    +0.000 A 
ATOM      5  C   UNL     1       7.711   5.520  18.402  0.00  0.00    +0.000 A 
ATOM      6  C   UNL     1       8.193   6.722  18.944  0.00  0.00    +0.000 A 
ENDROOT
BRANCH   1   8
ATOM      7  N   UNL     1       8.903  10.190  17.680  0.00  0.00    +0.000 N 
ATOM      8  C   UNL     1       8.684   9.205  18.644  0.00  0.00    +0.000 C 
ATOM      9  O   UNL     1       8.921   9.305  19.841  0.00  0.00    +0.000 OA
ATOM     10  H   UNL     1       8.700   9.964  16.717  0.00  0.00    +0.000 HD
BRANCH   7  14
ATOM     11  C   UNL     1      10.543  14.050  18.370  0.00  0.00    +0.000 A 
ATOM     12  C   UNL     1       9.171  13.863  18.384  0.00  0.00    +0.000 A 
ATOM     13  C   UNL     1       8.626  12.593  18.163  0.00  0.00    +0.000 A 
ATOM     14  C   UNL     1       9.438  11.483  17.923  0.00  0.00    +0.000 A 
ATOM     15  C   UNL     1      10.816  11.671  17.919  0.00  0.00    +0.000 A 
ATOM     16  C   UNL     1      11.368  12.956  18.129  0.00  0.00    +0.000 A 
BRANCH  11  20
ATOM     17  C   UNL     1      12.074  17.493  18.056  0.00  0.00    +0.000 C 
ATOM     18  C   UNL     1      11.310  16.268  17.619  0.00  0.00    +0.000 C 
ATOM     19  O   UNL     1      10.923  16.215  16.427  0.00  0.00    +0.000 OA
ATOM     20  N   UNL     1      11.132  15.324  18.576  0.00  0.00    +0.000 N 
ATOM     21  H   UNL     1      11.355  15.563  19.525  0.00  0.00    +0.000 HD
ENDBRANCH  11  20
ENDBRANCH   7  14
ENDBRANCH   1   8
BRANCH   4  22
ATOM     22  C   UNL     1       6.641   4.193  16.516  0.00  0.00    +0.000 C 
BRANCH  22  23
ATOM     23  O   UNL     1       5.252   4.344  16.230  0.00  0.00    +0.000 OA
BRANCH  23  24
ATOM     24  C   UNL     1       4.425   4.533  17.306  0.00  0.00    +0.000 A 
ATOM     25  C   UNL     1       3.938   5.834  17.461  0.00  0.00    +0.000 A 
ATOM     26  C   UNL     1       3.087   6.170  18.526  0.00  0.00    +0.000 A 
ATOM     27  C   UNL     1       2.721   5.209  19.470  0.00  0.00    +0.000 A 
ATOM     28  C   UNL     1       1.722   5.431  20.529  0.00  0.00    +0.000 A 
ATOM     29  C   UNL     1       1.180   6.772  20.898  0.00  0.00    +0.000 C 
ATOM     30  C   UNL     1       1.168   4.283  20.985  0.00  0.00    +0.000 A 
ATOM     31  C   UNL     1       1.996   3.093  21.172  0.00  0.00    +0.000 A 
ATOM     32  O   UNL     1       1.844   2.361  22.144  0.00  0.00    +0.000 OA
ATOM     33  O   UNL     1       2.925   2.869  20.188  0.00  0.00    +0.000 OA
ATOM     34  C   UNL     1       3.218   3.912  19.288  0.00  0.00    +0.000 A 
ATOM     35  C   UNL     1       4.055   3.564  18.227  0.00  0.00    +0.000 A 
ENDBRANCH  23  24
ENDBRANCH  22  23
ENDBRANCH   4  22
TORSDOF 6
ENDMDL
MODEL 2
REMARK VINA RESULT:      -8.4      1.799      1.932
REMARK  Name = 
REMARK  8 active torsions:
REMARK  status: ('A' for Active; 'I' for Inactive)
REMARK    1  A    between atoms: C_1  and  C_2
REMARK    2  A    between atoms: N_4  and  C_5
REMARK    3  A    between atoms: C_8  and  N_9
REMARK    4  A    between atoms: C_10  and  C_12
REMARK    5  A    between atoms: C_15  and  C_16
REMARK    6  A    between atoms: C_16  and  O_17
REMARK    7  A    between atoms: O_17  and  C_18
REMARK    8  A    between atoms: C_22  and  C_23
REMARK                            x       y       z     vdW  Elec       q    Type
REMARK                         _______ _______ _______ _____ _____    ______ ____
ROOT
ATOM      1  C   UNL     1       8.055   8.061  18.100  0.00  0.00    +0.000 A 
ATOM      2  C   UNL     1       7.528   7.792  16.827  0.00  0.00    +0.000 A 
ATOM      3  C   UNL     1       7.181   6.495  16.453  0.00  0.00    +0.000 A 
ATOM      4  C   UNL     1       7.351   5.435  17.350  0.00  0.00    +0.000 A 
ATOM      5  C   UNL     1       7.906   5.697  18.612  0.00  0.00    +0.000 A 
ATOM      6  C   UNL     1       8.254   7.003  18.990  0.00  0.00    +0.000 A 
ENDROOT
BRANCH   1   8
ATOM      7  N   UNL     1       9.198   9.720  19.528  0.00  0.00    +0.000 N 
ATOM      8  C   UNL     1       8.445   9.470  18.380  0.00  0.00    +0.000 C 
ATOM      9  O   UNL     1       8.045  10.311  17.585  0.00  0.00    +0.000 OA
ATOM     10  H   UNL     1       9.431   8.937  20.122  0.00  0.00    +0.000 HD
BRANCH   7  14
ATOM     11  C   UNL     1      10.500  13.524  20.906  0.00  0.00    +0.000 A 
ATOM     12  C   UNL     1      11.018  12.992  19.739  0.00  0.00    +0.000 A 
ATOM     13  C   UNL     1      10.589  11.742  19.277  0.00  0.00    +0.000 A 
ATOM     14  C   UNL     1       9.634  10.998  19.972  0.00  0.00    +0.000 A 
ATOM     15  C   UNL     1       9.107  11.539  21.139  0.00  0.00    +0.000 A 
ATOM     16  C   UNL     1       9.549  12.795  21.614  0.00  0.00    +0.000 A 
BRANCH  11  20
ATOM     17  C   UNL     1      10.979  17.177  21.757  0.00  0.00    +0.000 C 
ATOM     18  C   UNL     1      10.269  15.956  21.227  0.00  0.00    +0.000 C 
ATOM     19  O   UNL     1       9.167  16.125  20.653  0.00  0.00    +0.000 OA
ATOM     20  N   UNL     1      10.919  14.781  21.413  0.00  0.00    +0.000 N 
ATOM     21  H   UNL     1      11.715  14.772  22.025  0.00  0.00    +0.000 HD
ENDBRANCH  11  20
ENDBRANCH   7  14
ENDBRANCH   1   8
BRANCH   4  22
ATOM     22  C   UNL     1       6.963   4.036  16.933  0.00  0.00    +0.000 C 
BRANCH  22  23
ATOM     23  O   UNL     1       5.587   4.020  16.556  0.00  0.00    +0.000 OA
BRANCH  23  24
ATOM     24  C   UNL     1       4.678   4.247  17.555  0.00  0.00    +0.000 A 
ATOM     25  C   UNL     1       4.203   5.559  17.641  0.00  0.00    +0.000 A 
ATOM     26  C   UNL     1       3.273   5.933  18.624  0.00  0.00    +0.000 A 
ATOM     27  C   UNL     1       2.813   4.998  19.555  0.00  0.00    +0.000 A 
ATOM     28  C   UNL     1       1.734   5.261  20.521  0.00  0.00    +0.000 A 
ATOM     29  C   UNL     1       1.187   6.618  20.816  0.00  0.00    +0.000 C 
ATOM     30  C   UNL     1       1.124   4.132  20.955  0.00  0.00    +0.000 A 
ATOM     31  C   UNL     1       1.911   2.934  21.235  0.00  0.00    +0.000 A 
ATOM     32  O   UNL     1       1.666   2.226  22.206  0.00  0.00    +0.000 OA
ATOM     33  O   UNL     1       2.915   2.673  20.336  0.00  0.00    +0.000 OA
ATOM     34  C   UNL     1       3.300   3.690  19.442  0.00  0.00    +0.000 A 
ATOM     35  C   UNL     1       4.216   3.305  18.462  0.00  0.00    +0.000 A 
ENDBRANCH  23  24
ENDBRANCH  22  23
ENDBRANCH   4  22
TORSDOF 6
ENDMDL
MODEL 3
REMARK VINA RESULT:      -8.2      6.213      9.715
REMARK  Name = 
REMARK  8 active torsions:
REMARK  status: ('A' for Active; 'I' for Inactive)
REMARK    1  A    between atoms: C_1  and  C_2
REMARK    2  A    between atoms: N_4  and  C_5
REMARK    3  A    between atoms: C_8  and  N_9
REMARK    4  A    between atoms: C_10  and  C_12
REMARK    5  A    between atoms: C_15  and  C_16
REMARK    6  A    between atoms: C_16  and  O_17
REMARK    7  A    between atoms: O_17  and  C_18
REMARK    8  A    between atoms: C_22  and  C_23
REMARK                            x       y       z     vdW  Elec       q    Type
REMARK                         _______ _______ _______ _____ _____    ______ ____
ROOT
ATOM      1  C   UNL     1       1.930   8.368  18.948  0.00  0.00    +0.000 A 
ATOM      2  C   UNL     1       1.830   7.522  20.064  0.00  0.00    +0.000 A 
ATOM      3  C   UNL     1       2.474   6.286  20.088  0.00  0.00    +0.000 A 
ATOM      4  C   UNL     1       3.238   5.869  18.994  0.00  0.00    +0.000 A 
ATOM      5  C   UNL     1       3.314   6.699  17.864  0.00  0.00    +0.000 A 
ATOM      6  C   UNL     1       2.667   7.945  17.840  0.00  0.00    +0.000 A 
ENDROOT
BRANCH   1   8
ATOM      7  N   UNL     1       0.060   9.699  19.857  0.00  0.00    +0.000 N 
ATOM      8  C   UNL     1       1.159   9.641  19.000  0.00  0.00    +0.000 C 
ATOM      9  O   UNL     1       1.540  10.536  18.256  0.00  0.00    +0.000 OA
ATOM     10  H   UNL     1      -0.170   8.873  20.390  0.00  0.00    +0.000 HD
BRANCH   7  14
ATOM     11  C   UNL     1      -2.578  13.001  20.311  0.00  0.00    +0.000 A 
ATOM     12  C   UNL     1      -1.651  12.711  21.296  0.00  0.00    +0.000 A 
ATOM     13  C   UNL     1      -0.776  11.627  21.150  0.00  0.00    +0.000 A 
ATOM     14  C   UNL     1      -0.809  10.813  20.016  0.00  0.00    +0.000 A 
ATOM     15  C   UNL     1      -1.734  11.113  19.022  0.00  0.00    +0.000 A 
ATOM     16  C   UNL     1      -2.627  12.199  19.175  0.00  0.00    +0.000 A 
BRANCH  11  20
ATOM     17  C   UNL     1      -5.589  15.248  20.735  0.00  0.00    +0.000 C 
ATOM     18  C   UNL     1      -4.787  13.973  20.806  0.00  0.00    +0.000 C 
ATOM     19  O   UNL     1      -5.377  12.932  21.184  0.00  0.00    +0.000 OA
ATOM     20  N   UNL     1      -3.490  14.082  20.429  0.00  0.00    +0.000 N 
ATOM     21  H   UNL     1      -3.109  15.002  20.301  0.00  0.00    +0.000 HD
ENDBRANCH  11  20
ENDBRANCH   7  14
ENDBRANCH   1   8
BRANCH   4  22
ATOM     22  C   UNL     1       3.937   4.531  19.038  0.00  0.00    +0.000 C 
BRANCH  22  23
ATOM     23  O   UNL     1       5.311   4.705  18.698  0.00  0.00    +0.000 OA
BRANCH  23  24
ATOM     24  C   UNL     1       5.637   4.555  17.376  0.00  0.00    +0.000 A 
ATOM     25  C   UNL     1       4.879   3.610  16.680  0.00  0.00    +0.000 A 
ATOM     26  C   UNL     1       5.112   3.349  15.320  0.00  0.00    +0.000 A 
ATOM     27  C   UNL     1       6.126   4.021  14.634  0.00  0.00    +0.000 A 
ATOM     28  C   UNL     1       6.345   3.922  13.182  0.00  0.00    +0.000 A 
ATOM     29  C   UNL     1       5.701   2.898  12.308  0.00  0.00    +0.000 C 
ATOM     30  C   UNL     1       7.007   4.987  12.671  0.00  0.00    +0.000 A 
ATOM     31  C   UNL     1       8.116   5.586  13.412  0.00  0.00    +0.000 A 
ATOM     32  O   UNL     1       9.131   5.964  12.839  0.00  0.00    +0.000 OA
ATOM     33  O   UNL     1       7.920   5.692  14.766  0.00  0.00    +0.000 OA
ATOM     34  C   UNL     1       6.866   4.968  15.354  0.00  0.00    +0.000 A 
ATOM     35  C   UNL     1       6.635   5.244  16.703  0.00  0.00    +0.000 A 
ENDBRANCH  23  24
ENDBRANCH  22  23
ENDBRANCH   4  22
TORSDOF 6
ENDMDL
MODEL 4
REMARK VINA RESULT:      -8.2      6.175      9.574
REMARK  Name = 
REMARK  8 active torsions:
REMARK  status: ('A' for Active; 'I' for Inactive)
REMARK    1  A    between atoms: C_1  and  C_2
REMARK    2  A    between atoms: N_4  and  C_5
REMARK    3  A    between atoms: C_8  and  N_9
REMARK    4  A    between atoms: C_10  and  C_12
REMARK    5  A    between atoms: C_15  and  C_16
REMARK    6  A    between atoms: C_16  and  O_17
REMARK    7  A    between atoms: O_17  and  C_18
REMARK    8  A    between atoms: C_22  and  C_23
REMARK                            x       y       z     vdW  Elec       q    Type
REMARK                         _______ _______ _______ _____ _____    ______ ____
ROOT
ATOM      1  C   UNL     1       2.086   7.786  19.332  0.00  0.00    +0.000 A 
ATOM      2  C   UNL     1       1.969   6.731  20.251  0.00  0.00    +0.000 A 
ATOM      3  C   UNL     1       2.598   5.508  20.024  0.00  0.00    +0.000 A 
ATOM      4  C   UNL     1       3.363   5.314  18.869  0.00  0.00    +0.000 A 
ATOM      5  C   UNL     1       3.456   6.357  17.934  0.00  0.00    +0.000 A 
ATOM      6  C   UNL     1       2.825   7.590  18.164  0.00  0.00    +0.000 A 
ENDROOT
BRANCH   1   8
ATOM      7  N   UNL     1       0.584   9.062  20.821  0.00  0.00    +0.000 N 
ATOM      8  C   UNL     1       1.330   9.031  19.642  0.00  0.00    +0.000 C 
ATOM      9  O   UNL     1       1.403   9.929  18.813  0.00  0.00    +0.000 OA
ATOM     10  H   UNL     1       0.580   8.236  21.401  0.00  0.00    +0.000 HD
BRANCH   7  14
ATOM     11  C   UNL     1      -1.858  12.295  22.105  0.00  0.00    +0.000 A 
ATOM     12  C   UNL     1      -1.246  11.472  23.035  0.00  0.00    +0.000 A 
ATOM     13  C   UNL     1      -0.436  10.409  22.618  0.00  0.00    +0.000 A 
ATOM     14  C   UNL     1      -0.221  10.146  21.264  0.00  0.00    +0.000 A 
ATOM     15  C   UNL     1      -0.828  10.980  20.331  0.00  0.00    +0.000 A 
ATOM     16  C   UNL     1      -1.657  12.046  20.751  0.00  0.00    +0.000 A 
BRANCH  11  20
ATOM     17  C   UNL     1      -4.649  14.535  23.325  0.00  0.00    +0.000 C 
ATOM     18  C   UNL     1      -3.881  13.251  23.138  0.00  0.00    +0.000 C 
ATOM     19  O   UNL     1      -4.396  12.193  23.573  0.00  0.00    +0.000 OA
ATOM     20  N   UNL     1      -2.697  13.373  22.489  0.00  0.00    +0.000 N 
ATOM     21  H   UNL     1      -2.333  14.296  22.336  0.00  0.00    +0.000 HD
ENDBRANCH  11  20
ENDBRANCH   7  14
ENDBRANCH   1   8
BRANCH   4  22
ATOM     22  C   UNL     1       4.045   3.986  18.640  0.00  0.00    +0.000 C 
BRANCH  22  23
ATOM     23  O   UNL     1       5.436   4.204  18.409  0.00  0.00    +0.000 OA
BRANCH  23  24
ATOM     24  C   UNL     1       5.822   4.345  17.102  0.00  0.00    +0.000 A 
ATOM     25  C   UNL     1       6.959   5.132  16.899  0.00  0.00    +0.000 A 
ATOM     26  C   UNL     1       7.460   5.367  15.609  0.00  0.00    +0.000 A 
ATOM     27  C   UNL     1       6.817   4.830  14.491  0.00  0.00    +0.000 A 
ATOM     28  C   UNL     1       7.351   4.899  13.121  0.00  0.00    +0.000 A 
ATOM     29  C   UNL     1       8.490   5.773  12.710  0.00  0.00    +0.000 C 
ATOM     30  C   UNL     1       6.865   3.928  12.312  0.00  0.00    +0.000 A 
ATOM     31  C   UNL     1       5.458   3.540  12.396  0.00  0.00    +0.000 A 
ATOM     32  O   UNL     1       4.806   3.298  11.388  0.00  0.00    +0.000 OA
ATOM     33  O   UNL     1       4.951   3.462  13.669  0.00  0.00    +0.000 OA
ATOM     34  C   UNL     1       5.684   4.040  14.723  0.00  0.00    +0.000 A 
ATOM     35  C   UNL     1       5.184   3.790  16.002  0.00  0.00    +0.000 A 
ENDBRANCH  23  24
ENDBRANCH  22  23
ENDBRANCH   4  22
TORSDOF 6
ENDMDL
MODEL 5
REMARK VINA RESULT:      -8.1      1.742      1.936
REMARK  Name = 
REMARK  8 active torsions:
REMARK  status: ('A' for Active; 'I' for Inactive)
REMARK    1  A    between atoms: C_1  and  C_2
REMARK    2  A    between atoms: N_4  and  C_5
REMARK    3  A    between atoms: C_8  and  N_9
REMARK    4  A    between atoms: C_10  and  C_12
REMARK    5  A    between atoms: C_15  and  C_16
REMARK    6  A    between atoms: C_16  and  O_17
REMARK    7  A    between atoms: O_17  and  C_18
REMARK    8  A    between atoms: C_22  and  C_23
REMARK                            x       y       z     vdW  Elec       q    Type
REMARK                         _______ _______ _______ _____ _____    ______ ____
ROOT
ATOM      1  C   UNL     1       8.117   8.225  18.009  0.00  0.00    +0.000 A 
ATOM      2  C   UNL     1       8.275   7.234  18.991  0.00  0.00    +0.000 A 
ATOM      3  C   UNL     1       7.951   5.904  18.727  0.00  0.00    +0.000 A 
ATOM      4  C   UNL     1       7.462   5.535  17.469  0.00  0.00    +0.000 A 
ATOM      5  C   UNL     1       7.274   6.530  16.496  0.00  0.00    +0.000 A 
ATOM      6  C   UNL     1       7.602   7.869  16.761  0.00  0.00    +0.000 A 
ENDROOT
BRANCH   1   8
ATOM      7  N   UNL     1       9.225   9.807  19.548  0.00  0.00    +0.000 N 
ATOM      8  C   UNL     1       8.439   9.623  18.410  0.00  0.00    +0.000 C 
ATOM      9  O   UNL     1       7.960  10.510  17.714  0.00  0.00    +0.000 OA
ATOM     10  H   UNL     1       9.526   8.987  20.054  0.00  0.00    +0.000 HD
BRANCH   7  14
ATOM     11  C   UNL     1      10.378  13.575  21.140  0.00  0.00    +0.000 A 
ATOM     12  C   UNL     1       9.283  12.906  21.658  0.00  0.00    +0.000 A 
ATOM     13  C   UNL     1       8.902  11.663  21.141  0.00  0.00    +0.000 A 
ATOM     14  C   UNL     1       9.607  11.061  20.097  0.00  0.00    +0.000 A 
ATOM     15  C   UNL     1      10.713  11.730  19.585  0.00  0.00    +0.000 A 
ATOM     16  C   UNL     1      11.091  12.993  20.097  0.00  0.00    +0.000 A 
BRANCH  11  20
ATOM     17  C   UNL     1      11.416  17.181  21.607  0.00  0.00    +0.000 C 
ATOM     18  C   UNL     1      10.825  15.987  20.901  0.00  0.00    +0.000 C 
ATOM     19  O   UNL     1      10.440  16.140  19.717  0.00  0.00    +0.000 OA
ATOM     20  N   UNL     1      10.787  14.843  21.629  0.00  0.00    +0.000 N 
ATOM     21  H   UNL     1      10.982  14.900  22.612  0.00  0.00    +0.000 HD
ENDBRANCH  11  20
ENDBRANCH   7  14
ENDBRANCH   1   8
BRANCH   4  22
ATOM     22  C   UNL     1       7.123   4.089  17.196  0.00  0.00    +0.000 C 
BRANCH  22  23
ATOM     23  O   UNL     1       5.766   3.996  16.768  0.00  0.00    +0.000 OA
BRANCH  23  24
ATOM     24  C   UNL     1       4.808   4.235  17.718  0.00  0.00    +0.000 A 
ATOM     25  C   UNL     1       4.305   5.538  17.741  0.00  0.00    +0.000 A 
ATOM     26  C   UNL     1       3.325   5.923  18.670  0.00  0.00    +0.000 A 
ATOM     27  C   UNL     1       2.842   5.009  19.609  0.00  0.00    +0.000 A 
ATOM     28  C   UNL     1       1.717   5.279  20.518  0.00  0.00    +0.000 A 
ATOM     29  C   UNL     1       1.131   6.634  20.745  0.00  0.00    +0.000 C 
ATOM     30  C   UNL     1       1.109   4.152  20.960  0.00  0.00    +0.000 A 
ATOM     31  C   UNL     1       1.907   2.980  21.313  0.00  0.00    +0.000 A 
ATOM     32  O   UNL     1       1.632   2.298  22.294  0.00  0.00    +0.000 OA
ATOM     33  O   UNL     1       2.954   2.712  20.468  0.00  0.00    +0.000 OA
ATOM     34  C   UNL     1       3.359   3.708  19.559  0.00  0.00    +0.000 A 
ATOM     35  C   UNL     1       4.324   3.312  18.634  0.00  0.00    +0.000 A 
ENDBRANCH  23  24
ENDBRANCH  22  23
ENDBRANCH   4  22
TORSDOF 6
ENDMDL
MODEL 6
REMARK VINA RESULT:      -8.0      6.218      9.485
REMARK  Name = 
REMARK  8 active torsions:
REMARK  status: ('A' for Active; 'I' for Inactive)
REMARK    1  A    between atoms: C_1  and  C_2
REMARK    2  A    between atoms: N_4  and  C_5
REMARK    3  A    between atoms: C_8  and  N_9
REMARK    4  A    between atoms: C_10  and  C_12
REMARK    5  A    between atoms: C_15  and  C_16
REMARK    6  A    between atoms: C_16  and  O_17
REMARK    7  A    between atoms: O_17  and  C_18
REMARK    8  A    between atoms: C_22  and  C_23
REMARK                            x       y       z     vdW  Elec       q    Type
REMARK                         _______ _______ _______ _____ _____    ______ ____
ROOT
ATOM      1  C   UNL     1       2.003   7.334  19.707  0.00  0.00    +0.000 A 
ATOM      2  C   UNL     1       2.821   7.288  18.568  0.00  0.00    +0.000 A 
ATOM      3  C   UNL     1       3.554   6.143  18.257  0.00  0.00    +0.000 A 
ATOM      4  C   UNL     1       3.480   5.015  19.080  0.00  0.00    +0.000 A 
ATOM      5  C   UNL     1       2.687   5.071  20.237  0.00  0.00    +0.000 A 
ATOM      6  C   UNL     1       1.947   6.222  20.550  0.00  0.00    +0.000 A 
ENDROOT
BRANCH   1   8
ATOM      7  N   UNL     1       0.663   8.765  21.209  0.00  0.00    +0.000 N 
ATOM      8  C   UNL     1       1.306   8.622  19.980  0.00  0.00    +0.000 C 
ATOM      9  O   UNL     1       1.331   9.453  19.080  0.00  0.00    +0.000 OA
ATOM     10  H   UNL     1       0.686   7.985  21.850  0.00  0.00    +0.000 HD
BRANCH   7  14
ATOM     11  C   UNL     1      -1.526  12.164  22.522  0.00  0.00    +0.000 A 
ATOM     12  C   UNL     1      -0.922  12.164  21.276  0.00  0.00    +0.000 A 
ATOM     13  C   UNL     1      -0.204  11.045  20.837  0.00  0.00    +0.000 A 
ATOM     14  C   UNL     1      -0.076   9.904  21.631  0.00  0.00    +0.000 A 
ATOM     15  C   UNL     1      -0.692   9.902  22.878  0.00  0.00    +0.000 A 
ATOM     16  C   UNL     1      -1.406  11.037  23.329  0.00  0.00    +0.000 A 
BRANCH  11  20
ATOM     17  C   UNL     1      -4.137  14.624  23.718  0.00  0.00    +0.000 C 
ATOM     18  C   UNL     1      -3.562  13.279  23.348  0.00  0.00    +0.000 C 
ATOM     19  O   UNL     1      -4.332  12.289  23.369  0.00  0.00    +0.000 OA
ATOM     20  N   UNL     1      -2.250  13.284  23.007  0.00  0.00    +0.000 N 
ATOM     21  H   UNL     1      -1.716  14.115  23.186  0.00  0.00    +0.000 HD
ENDBRANCH  11  20
ENDBRANCH   7  14
ENDBRANCH   1   8
BRANCH   4  22
ATOM     22  C   UNL     1       4.273   3.780  18.726  0.00  0.00    +0.000 C 
BRANCH  22  23
ATOM     23  O   UNL     1       5.622   4.149  18.448  0.00  0.00    +0.000 OA
BRANCH  23  24
ATOM     24  C   UNL     1       5.953   4.304  17.128  0.00  0.00    +0.000 A 
ATOM     25  C   UNL     1       7.075   5.101  16.885  0.00  0.00    +0.000 A 
ATOM     26  C   UNL     1       7.521   5.351  15.577  0.00  0.00    +0.000 A 
ATOM     27  C   UNL     1       6.835   4.819  14.482  0.00  0.00    +0.000 A 
ATOM     28  C   UNL     1       7.311   4.905  13.092  0.00  0.00    +0.000 A 
ATOM     29  C   UNL     1       8.425   5.791  12.642  0.00  0.00    +0.000 C 
ATOM     30  C   UNL     1       6.799   3.937  12.295  0.00  0.00    +0.000 A 
ATOM     31  C   UNL     1       5.400   3.537  12.434  0.00  0.00    +0.000 A 
ATOM     32  O   UNL     1       4.707   3.300  11.451  0.00  0.00    +0.000 OA
ATOM     33  O   UNL     1       4.947   3.445  13.726  0.00  0.00    +0.000 OA
ATOM     34  C   UNL     1       5.719   4.019  14.754  0.00  0.00    +0.000 A 
ATOM     35  C   UNL     1       5.274   3.755  16.050  0.00  0.00    +0.000 A 
ENDBRANCH  23  24
ENDBRANCH  22  23
ENDBRANCH   4  22
TORSDOF 6
ENDMDL
MODEL 7
REMARK VINA RESULT:      -8.0      6.603     10.721
REMARK  Name = 
REMARK  8 active torsions:
REMARK  status: ('A' for Active; 'I' for Inactive)
REMARK    1  A    between atoms: C_1  and  C_2
REMARK    2  A    between atoms: N_4  and  C_5
REMARK    3  A    between atoms: C_8  and  N_9
REMARK    4  A    between atoms: C_10  and  C_12
REMARK    5  A    between atoms: C_15  and  C_16
REMARK    6  A    between atoms: C_16  and  O_17
REMARK    7  A    between atoms: O_17  and  C_18
REMARK    8  A    between atoms: C_22  and  C_23
REMARK                            x       y       z     vdW  Elec       q    Type
REMARK                         _______ _______ _______ _____ _____    ______ ____
ROOT
ATOM      1  C   UNL     1       1.981   8.231  19.233  0.00  0.00    +0.000 A 
ATOM      2  C   UNL     1       1.301   9.447  19.062  0.00  0.00    +0.000 A 
ATOM      3  C   UNL     1       0.570  10.013  20.106  0.00  0.00    +0.000 A 
ATOM      4  C   UNL     1       0.507   9.375  21.348  0.00  0.00    +0.000 A 
ATOM      5  C   UNL     1       1.161   8.143  21.512  0.00  0.00    +0.000 A 
ATOM      6  C   UNL     1       1.899   7.573  20.462  0.00  0.00    +0.000 A 
ENDROOT
BRANCH   1   8
ATOM      7  N   UNL     1       3.383   6.485  18.192  0.00  0.00    +0.000 N 
ATOM      8  C   UNL     1       2.685   7.683  18.040  0.00  0.00    +0.000 C 
ATOM      9  O   UNL     1       2.616   8.351  17.017  0.00  0.00    +0.000 OA
ATOM     10  H   UNL     1       3.391   6.053  19.104  0.00  0.00    +0.000 HD
BRANCH   7  14
ATOM     11  C   UNL     1       5.594   4.494  15.156  0.00  0.00    +0.000 A 
ATOM     12  C   UNL     1       5.653   5.872  15.270  0.00  0.00    +0.000 A 
ATOM     13  C   UNL     1       4.931   6.533  16.271  0.00  0.00    +0.000 A 
ATOM     14  C   UNL     1       4.136   5.831  17.179  0.00  0.00    +0.000 A 
ATOM     15  C   UNL     1       4.087   4.445  17.070  0.00  0.00    +0.000 A 
ATOM     16  C   UNL     1       4.804   3.778  16.051  0.00  0.00    +0.000 A 
BRANCH  11  20
ATOM     17  C   UNL     1       6.711   2.632  12.061  0.00  0.00    +0.000 C 
ATOM     18  C   UNL     1       5.819   3.500  12.913  0.00  0.00    +0.000 C 
ATOM     19  O   UNL     1       4.719   3.860  12.429  0.00  0.00    +0.000 OA
ATOM     20  N   UNL     1       6.300   3.790  14.147  0.00  0.00    +0.000 N 
ATOM     21  H   UNL     1       7.259   3.569  14.345  0.00  0.00    +0.000 HD
ENDBRANCH  11  20
ENDBRANCH   7  14
ENDBRANCH   1   8
BRANCH   4  22
ATOM     22  C   UNL     1      -0.281  10.005  22.472  0.00  0.00    +0.000 C 
BRANCH  22  23
ATOM     23  O   UNL     1      -0.418  11.403  22.226  0.00  0.00    +0.000 OA
BRANCH  23  24
ATOM     24  C   UNL     1      -1.694  11.901  22.229  0.00  0.00    +0.000 A 
ATOM     25  C   UNL     1      -2.338  11.883  23.469  0.00  0.00    +0.000 A 
ATOM     26  C   UNL     1      -3.651  12.356  23.615  0.00  0.00    +0.000 A 
ATOM     27  C   UNL     1      -4.355  12.840  22.510  0.00  0.00    +0.000 A 
ATOM     28  C   UNL     1      -5.674  13.489  22.592  0.00  0.00    +0.000 A 
ATOM     29  C   UNL     1      -6.541  13.468  23.808  0.00  0.00    +0.000 C 
ATOM     30  C   UNL     1      -5.933  14.301  21.541  0.00  0.00    +0.000 A 
ATOM     31  C   UNL     1      -5.536  13.903  20.191  0.00  0.00    +0.000 A 
ATOM     32  O   UNL     1      -6.267  14.108  19.229  0.00  0.00    +0.000 OA
ATOM     33  O   UNL     1      -4.305  13.306  20.100  0.00  0.00    +0.000 OA
ATOM     34  C   UNL     1      -3.685  12.853  21.280  0.00  0.00    +0.000 A 
ATOM     35  C   UNL     1      -2.375  12.396  21.126  0.00  0.00    +0.000 A 
ENDBRANCH  23  24
ENDBRANCH  22  23
ENDBRANCH   4  22
TORSDOF 6
ENDMDL
MODEL 8
REMARK VINA RESULT:      -8.0      6.177      9.056
REMARK  Name = 
REMARK  8 active torsions:
REMARK  status: ('A' for Active; 'I' for Inactive)
REMARK    1  A    between atoms: C_1  and  C_2
REMARK    2  A    between atoms: N_4  and  C_5
REMARK    3  A    between atoms: C_8  and  N_9
REMARK    4  A    between atoms: C_10  and  C_12
REMARK    5  A    between atoms: C_15  and  C_16
REMARK    6  A    between atoms: C_16  and  O_17
REMARK    7  A    between atoms: O_17  and  C_18
REMARK    8  A    between atoms: C_22  and  C_23
REMARK                            x       y       z     vdW  Elec       q    Type
REMARK                         _______ _______ _______ _____ _____    ______ ____
ROOT
ATOM      1  C   UNL     1       1.925   7.488  19.735  0.00  0.00    +0.000 A 
ATOM      2  C   UNL     1       1.909   6.365  20.576  0.00  0.00    +0.000 A 
ATOM      3  C   UNL     1       2.599   5.203  20.234  0.00  0.00    +0.000 A 
ATOM      4  C   UNL     1       3.326   5.141  19.041  0.00  0.00    +0.000 A 
ATOM      5  C   UNL     1       3.318   6.253  18.184  0.00  0.00    +0.000 A 
ATOM      6  C   UNL     1       2.625   7.424  18.528  0.00  0.00    +0.000 A 
ENDROOT
BRANCH   1   8
ATOM      7  N   UNL     1       0.875   9.665  19.227  0.00  0.00    +0.000 N 
ATOM      8  C   UNL     1       1.110   8.659  20.164  0.00  0.00    +0.000 C 
ATOM      9  O   UNL     1       0.731   8.657  21.328  0.00  0.00    +0.000 OA
ATOM     10  H   UNL     1       1.278   9.561  18.307  0.00  0.00    +0.000 HD
BRANCH   7  14
ATOM     11  C   UNL     1      -1.339  13.222  19.943  0.00  0.00    +0.000 A 
ATOM     12  C   UNL     1      -0.029  13.119  20.376  0.00  0.00    +0.000 A 
ATOM     13  C   UNL     1       0.707  11.952  20.138  0.00  0.00    +0.000 A 
ATOM     14  C   UNL     1       0.149  10.864  19.463  0.00  0.00    +0.000 A 
ATOM     15  C   UNL     1      -1.164  10.974  19.020  0.00  0.00    +0.000 A 
ATOM     16  C   UNL     1      -1.913  12.147  19.271  0.00  0.00    +0.000 A 
BRANCH  11  20
ATOM     17  C   UNL     1      -3.748  15.844  21.215  0.00  0.00    +0.000 C 
ATOM     18  C   UNL     1      -2.920  14.584  21.253  0.00  0.00    +0.000 C 
ATOM     19  O   UNL     1      -3.047  13.831  22.249  0.00  0.00    +0.000 OA
ATOM     20  N   UNL     1      -2.121  14.383  20.177  0.00  0.00    +0.000 N 
ATOM     21  H   UNL     1      -1.999  15.140  19.529  0.00  0.00    +0.000 HD
ENDBRANCH  11  20
ENDBRANCH   7  14
ENDBRANCH   1   8
BRANCH   4  22
ATOM     22  C   UNL     1       4.076   3.878  18.689  0.00  0.00    +0.000 C 
BRANCH  22  23
ATOM     23  O   UNL     1       5.446   4.193  18.452  0.00  0.00    +0.000 OA
BRANCH  23  24
ATOM     24  C   UNL     1       5.823   4.334  17.143  0.00  0.00    +0.000 A 
ATOM     25  C   UNL     1       6.982   5.086  16.934  0.00  0.00    +0.000 A 
ATOM     26  C   UNL     1       7.477   5.317  15.641  0.00  0.00    +0.000 A 
ATOM     27  C   UNL     1       6.806   4.810  14.525  0.00  0.00    +0.000 A 
ATOM     28  C   UNL     1       7.327   4.875  13.151  0.00  0.00    +0.000 A 
ATOM     29  C   UNL     1       8.488   5.717  12.735  0.00  0.00    +0.000 C 
ATOM     30  C   UNL     1       6.802   3.927  12.339  0.00  0.00    +0.000 A 
ATOM     31  C   UNL     1       5.385   3.582  12.435  0.00  0.00    +0.000 A 
ATOM     32  O   UNL     1       4.715   3.369  11.431  0.00  0.00    +0.000 OA
ATOM     33  O   UNL     1       4.889   3.509  13.712  0.00  0.00    +0.000 OA
ATOM     34  C   UNL     1       5.651   4.054  14.763  0.00  0.00    +0.000 A 
ATOM     35  C   UNL     1       5.156   3.809  16.045  0.00  0.00    +0.000 A 
ENDBRANCH  23  24
ENDBRANCH  22  23
ENDBRANCH   4  22
TORSDOF 6
ENDMDL
MODEL 9
REMARK VINA RESULT:      -8.0      6.829     10.727
REMARK  Name = 
REMARK  8 active torsions:
REMARK  status: ('A' for Active; 'I' for Inactive)
REMARK    1  A    between atoms: C_1  and  C_2
REMARK    2  A    between atoms: N_4  and  C_5
REMARK    3  A    between atoms: C_8  and  N_9
REMARK    4  A    between atoms: C_10  and  C_12
REMARK    5  A    between atoms: C_15  and  C_16
REMARK    6  A    between atoms: C_16  and  O_17
REMARK    7  A    between atoms: O_17  and  C_18
REMARK    8  A    between atoms: C_22  and  C_23
REMARK                            x       y       z     vdW  Elec       q    Type
REMARK                         _______ _______ _______ _____ _____    ______ ____
ROOT
ATOM      1  C   UNL     1       1.413   8.760  19.806  0.00  0.00    +0.000 A 
ATOM      2  C   UNL     1       0.473   9.780  19.589  0.00  0.00    +0.000 A 
ATOM      3  C   UNL     1      -0.240  10.335  20.650  0.00  0.00    +0.000 A 
ATOM      4  C   UNL     1      -0.026   9.883  21.956  0.00  0.00    +0.000 A 
ATOM      5  C   UNL     1       0.890   8.841  22.171  0.00  0.00    +0.000 A 
ATOM      6  C   UNL     1       1.611   8.283  21.104  0.00  0.00    +0.000 A 
ENDROOT
BRANCH   1   8
ATOM      7  N   UNL     1       2.795   7.007  18.750  0.00  0.00    +0.000 N 
ATOM      8  C   UNL     1       2.080   8.196  18.600  0.00  0.00    +0.000 C 
ATOM      9  O   UNL     1       1.968   8.843  17.567  0.00  0.00    +0.000 OA
ATOM     10  H   UNL     1       2.840   6.593  19.669  0.00  0.00    +0.000 HD
BRANCH   7  14
ATOM     11  C   UNL     1       5.000   5.049  15.689  0.00  0.00    +0.000 A 
ATOM     12  C   UNL     1       4.237   4.312  16.577  0.00  0.00    +0.000 A 
ATOM     13  C   UNL     1       3.504   4.952  17.584  0.00  0.00    +0.000 A 
ATOM     14  C   UNL     1       3.519   6.341  17.724  0.00  0.00    +0.000 A 
ATOM     15  C   UNL     1       4.278   7.080  16.824  0.00  0.00    +0.000 A 
ATOM     16  C   UNL     1       5.030   6.434  15.815  0.00  0.00    +0.000 A 
BRANCH  11  20
ATOM     17  C   UNL     1       7.572   4.087  13.089  0.00  0.00    +0.000 C 
ATOM     18  C   UNL     1       7.013   4.812  14.288  0.00  0.00    +0.000 C 
ATOM     19  O   UNL     1       7.725   5.699  14.818  0.00  0.00    +0.000 OA
ATOM     20  N   UNL     1       5.767   4.435  14.664  0.00  0.00    +0.000 N 
ATOM     21  H   UNL     1       5.377   3.608  14.251  0.00  0.00    +0.000 HD
ENDBRANCH  11  20
ENDBRANCH   7  14
ENDBRANCH   1   8
BRANCH   4  22
ATOM     22  C   UNL     1      -0.800  10.500  23.096  0.00  0.00    +0.000 C 
BRANCH  22  23
ATOM     23  O   UNL     1      -0.978  11.893  22.846  0.00  0.00    +0.000 OA
BRANCH  23  24
ATOM     24  C   UNL     1      -2.259  12.309  22.593  0.00  0.00    +0.000 A 
ATOM     25  C   UNL     1      -2.454  12.909  21.345  0.00  0.00    +0.000 A 
ATOM     26  C   UNL     1      -3.715  13.388  20.958  0.00  0.00    +0.000 A 
ATOM     27  C   UNL     1      -4.806  13.292  21.825  0.00  0.00    +0.000 A 
ATOM     28  C   UNL     1      -6.188  13.631  21.450  0.00  0.00    +0.000 A 
ATOM     29  C   UNL     1      -6.561  14.369  20.207  0.00  0.00    +0.000 C 
ATOM     30  C   UNL     1      -7.114  13.013  22.222  0.00  0.00    +0.000 A 
ATOM     31  C   UNL     1      -6.892  12.870  23.660  0.00  0.00    +0.000 A 
ATOM     32  O   UNL     1      -7.807  13.026  24.461  0.00  0.00    +0.000 OA
ATOM     33  O   UNL     1      -5.609  12.545  24.021  0.00  0.00    +0.000 OA
ATOM     34  C   UNL     1      -4.584  12.681  23.066  0.00  0.00    +0.000 A 
ATOM     35  C   UNL     1      -3.338  12.190  23.457  0.00  0.00    +0.000 A 
ENDBRANCH  23  24
ENDBRANCH  22  23
ENDBRANCH   4  22
TORSDOF 6
ENDMDL
