MODEL 1
REMARK VINA RESULT:      -8.5      0.000      0.000
REMARK  Name = 
REMARK  4 active torsions:
REMARK  status: ('A' for Active; 'I' for Inactive)
REMARK    1  A    between atoms: N_11  and  C_12
REMARK    2  A    between atoms: C_12  and  C_13
REMARK    3  A    between atoms: C_16  and  C_17
REMARK    4  A    between atoms: N_22  and  C_23
REMARK                            x       y       z     vdW  Elec       q    Type
REMARK                         _______ _______ _______ _____ _____    ______ ____
ROOT
ATOM      1  C   UNL     1       1.958   6.619  19.262  0.00  0.00    +0.000 C 
ATOM      2  C   UNL     1       2.083   7.355  20.601  0.00  0.00    +0.000 C 
ATOM      3  C   UNL     1       1.122   8.535  20.556  0.00  0.00    +0.000 C 
ATOM      4  C   UNL     1       1.391   9.514  19.394  0.00  0.00    +0.000 C 
ATOM      5  C   UNL     1       1.851   8.805  18.079  0.00  0.00    +0.000 C 
ATOM      6  C   UNL     1       2.705   7.525  18.264  0.00  0.00    +0.000 C 
ENDROOT
BRANCH   4   7
ATOM      7  C   UNL     1       0.083  10.310  19.152  0.00  0.00    +0.000 C 
ATOM      8  O   UNL     1      -1.001   9.811  19.473  0.00  0.00    +0.000 OA
ATOM      9  N   UNL     1       0.135  11.611  18.684  0.00  0.00    +0.000 N 
ATOM     10  C   UNL     1      -1.086  12.442  18.693  0.00  0.00    +0.000 C 
ATOM     11  C   UNL     1      -0.907  13.697  19.575  0.00  0.00    +0.000 C 
ATOM     12  N   UNL     1       0.349  14.407  19.252  0.00  0.00    +0.000 N 
ATOM     13  C   UNL     1       1.560  13.566  19.195  0.00  0.00    +0.000 C 
ATOM     14  C   UNL     1       1.318  12.366  18.260  0.00  0.00    +0.000 C 
BRANCH  12  15
ATOM     15  C   UNL     1       0.389  15.729  18.856  0.00  0.00    +0.000 A 
ATOM     16  C   UNL     1      -0.781  16.504  18.787  0.00  0.00    +0.000 A 
ATOM     17  C   UNL     1      -0.763  17.841  18.372  0.00  0.00    +0.000 A 
ATOM     18  C   UNL     1       0.438  18.440  18.016  0.00  0.00    +0.000 A 
ATOM     19  C   UNL     1       1.616  17.705  18.087  0.00  0.00    +0.000 A 
ATOM     20  C   UNL     1       1.586  16.367  18.499  0.00  0.00    +0.000 A 
ENDBRANCH  12  15
ENDBRANCH   4   7
BRANCH   1  21
ATOM     21  C   UNL     1       2.272   5.108  19.353  0.00  0.00    +0.000 C 
BRANCH  21  32
ATOM     22  O   UNL     1       2.351   3.694  16.734  0.00  0.00    +0.000 OA
ATOM     23  C   UNL     1       3.337   4.189  17.273  0.00  0.00    +0.000 C 
ATOM     24  C   UNL     1       4.650   4.229  16.647  0.00  0.00    +0.000 A 
ATOM     25  C   UNL     1       5.033   3.897  15.356  0.00  0.00    +0.000 A 
ATOM     26  C   UNL     1       6.389   3.997  15.043  0.00  0.00    +0.000 A 
ATOM     27  C   UNL     1       7.321   4.401  16.021  0.00  0.00    +0.000 A 
ATOM     28  C   UNL     1       6.900   4.765  17.310  0.00  0.00    +0.000 A 
ATOM     29  C   UNL     1       5.542   4.693  17.589  0.00  0.00    +0.000 A 
ATOM     30  C   UNL     1       4.756   5.054  18.785  0.00  0.00    +0.000 C 
ATOM     31  O   UNL     1       5.241   5.524  19.797  0.00  0.00    +0.000 OA
ATOM     32  N   UNL     1       3.439   4.764  18.502  0.00  0.00    +0.000 N 
ENDBRANCH  21  32
ENDBRANCH   1  21
TORSDOF 4
ENDMDL
MODEL 2
REMARK VINA RESULT:      -8.3      2.639      3.357
REMARK  Name = 
REMARK  4 active torsions:
REMARK  status: ('A' for Active; 'I' for Inactive)
REMARK    1  A    between atoms: N_11  and  C_12
REMARK    2  A    between atoms: C_12  and  C_13
REMARK    3  A    between atoms: C_16  and  C_17
REMARK    4  A    between atoms: N_22  and  C_23
REMARK                            x       y       z     vdW  Elec       q    Type
REMARK                         _______ _______ _______ _____ _____    ______ ____
ROOT
ATOM      1  C   UNL     1       1.930   6.720  19.164  0.00  0.00    +0.000 C 
ATOM      2  C   UNL     1       2.042   7.506  20.475  0.00  0.00    +0.000 C 
ATOM      3  C   UNL     1       1.084   8.685  20.375  0.00  0.00    +0.000 C 
ATOM      4  C   UNL     1       1.369   9.619  19.180  0.00  0.00    +0.000 C 
ATOM      5  C   UNL     1       1.841   8.860  17.898  0.00  0.00    +0.000 C 
ATOM      6  C   UNL     1       2.690   7.586  18.141  0.00  0.00    +0.000 C 
ENDROOT
BRANCH   4   7
ATOM      7  C   UNL     1       0.065  10.408  18.893  0.00  0.00    +0.000 C 
ATOM      8  O   UNL     1      -0.673  10.047  17.971  0.00  0.00    +0.000 OA
ATOM      9  N   UNL     1      -0.326  11.437  19.731  0.00  0.00    +0.000 N 
ATOM     10  C   UNL     1      -1.679  12.014  19.600  0.00  0.00    +0.000 C 
ATOM     11  C   UNL     1      -2.493  11.841  20.902  0.00  0.00    +0.000 C 
ATOM     12  N   UNL     1      -1.719  12.281  22.082  0.00  0.00    +0.000 N 
ATOM     13  C   UNL     1      -0.350  11.742  22.184  0.00  0.00    +0.000 C 
ATOM     14  C   UNL     1       0.410  11.997  20.868  0.00  0.00    +0.000 C 
BRANCH  12  15
ATOM     15  C   UNL     1      -2.158  13.261  22.950  0.00  0.00    +0.000 A 
ATOM     16  C   UNL     1      -1.252  14.108  23.611  0.00  0.00    +0.000 A 
ATOM     17  C   UNL     1      -1.677  15.095  24.507  0.00  0.00    +0.000 A 
ATOM     18  C   UNL     1      -3.032  15.263  24.763  0.00  0.00    +0.000 A 
ATOM     19  C   UNL     1      -3.955  14.452  24.114  0.00  0.00    +0.000 A 
ATOM     20  C   UNL     1      -3.519  13.463  23.222  0.00  0.00    +0.000 A 
ENDBRANCH  12  15
ENDBRANCH   4   7
BRANCH   1  21
ATOM     21  C   UNL     1       2.239   5.213  19.316  0.00  0.00    +0.000 C 
BRANCH  21  32
ATOM     22  O   UNL     1       2.326   3.727  16.738  0.00  0.00    +0.000 OA
ATOM     23  C   UNL     1       3.313   4.225  17.272  0.00  0.00    +0.000 C 
ATOM     24  C   UNL     1       4.631   4.234  16.657  0.00  0.00    +0.000 A 
ATOM     25  C   UNL     1       5.022   3.863  15.379  0.00  0.00    +0.000 A 
ATOM     26  C   UNL     1       6.382   3.939  15.076  0.00  0.00    +0.000 A 
ATOM     27  C   UNL     1       7.309   4.360  16.051  0.00  0.00    +0.000 A 
ATOM     28  C   UNL     1       6.881   4.763  17.326  0.00  0.00    +0.000 A 
ATOM     29  C   UNL     1       5.521   4.714  17.594  0.00  0.00    +0.000 A 
ATOM     30  C   UNL     1       4.728   5.117  18.773  0.00  0.00    +0.000 C 
ATOM     31  O   UNL     1       5.209   5.609  19.775  0.00  0.00    +0.000 OA
ATOM     32  N   UNL     1       3.410   4.833  18.486  0.00  0.00    +0.000 N 
ENDBRANCH  21  32
ENDBRANCH   1  21
TORSDOF 4
ENDMDL
MODEL 3
REMARK VINA RESULT:      -8.2      1.998      2.512
REMARK  Name = 
REMARK  4 active torsions:
REMARK  status: ('A' for Active; 'I' for Inactive)
REMARK    1  A    between atoms: N_11  and  C_12
REMARK    2  A    between atoms: C_12  and  C_13
REMARK    3  A    between atoms: C_16  and  C_17
REMARK    4  A    between atoms: N_22  and  C_23
REMARK                            x       y       z     vdW  Elec       q    Type
REMARK                         _______ _______ _______ _____ _____    ______ ____
ROOT
ATOM      1  C   UNL     1       2.028   6.825  19.169  0.00  0.00    +0.000 C 
ATOM      2  C   UNL     1       1.967   7.686  20.436  0.00  0.00    +0.000 C 
ATOM      3  C   UNL     1       0.961   8.799  20.176  0.00  0.00    +0.000 C 
ATOM      4  C   UNL     1       1.311   9.683  18.960  0.00  0.00    +0.000 C 
ATOM      5  C   UNL     1       1.948   8.885  17.776  0.00  0.00    +0.000 C 
ATOM      6  C   UNL     1       2.837   7.679  18.173  0.00  0.00    +0.000 C 
ENDROOT
BRANCH   4   7
ATOM      7  C   UNL     1       0.001  10.376  18.504  0.00  0.00    +0.000 C 
ATOM      8  O   UNL     1      -0.765   9.783  17.738  0.00  0.00    +0.000 OA
ATOM      9  N   UNL     1      -0.362  11.600  19.037  0.00  0.00    +0.000 N 
ATOM     10  C   UNL     1      -1.717  12.133  18.791  0.00  0.00    +0.000 C 
ATOM     11  C   UNL     1      -2.492  12.332  20.113  0.00  0.00    +0.000 C 
ATOM     12  N   UNL     1      -1.683  13.071  21.104  0.00  0.00    +0.000 N 
ATOM     13  C   UNL     1      -0.312  12.567  21.312  0.00  0.00    +0.000 C 
ATOM     14  C   UNL     1       0.409  12.443  19.956  0.00  0.00    +0.000 C 
BRANCH  12  15
ATOM     15  C   UNL     1      -2.093  14.257  21.682  0.00  0.00    +0.000 A 
ATOM     16  C   UNL     1      -2.488  14.312  23.029  0.00  0.00    +0.000 A 
ATOM     17  C   UNL     1      -2.923  15.500  23.627  0.00  0.00    +0.000 A 
ATOM     18  C   UNL     1      -2.971  16.673  22.885  0.00  0.00    +0.000 A 
ATOM     19  C   UNL     1      -2.573  16.655  21.553  0.00  0.00    +0.000 A 
ATOM     20  C   UNL     1      -2.143  15.460  20.963  0.00  0.00    +0.000 A 
ENDBRANCH  12  15
ENDBRANCH   4   7
BRANCH   1  21
ATOM     21  C   UNL     1       2.402   5.350  19.439  0.00  0.00    +0.000 C 
BRANCH  21  32
ATOM     22  O   UNL     1       2.300   3.827  16.883  0.00  0.00    +0.000 OA
ATOM     23  C   UNL     1       3.330   4.301  17.354  0.00  0.00    +0.000 C 
ATOM     24  C   UNL     1       4.613   4.259  16.669  0.00  0.00    +0.000 A 
ATOM     25  C   UNL     1       4.922   3.858  15.377  0.00  0.00    +0.000 A 
ATOM     26  C   UNL     1       6.264   3.887  14.999  0.00  0.00    +0.000 A 
ATOM     27  C   UNL     1       7.256   4.291  15.916  0.00  0.00    +0.000 A 
ATOM     28  C   UNL     1       6.911   4.726  17.206  0.00  0.00    +0.000 A 
ATOM     29  C   UNL     1       5.566   4.724  17.548  0.00  0.00    +0.000 A 
ATOM     30  C   UNL     1       4.852   5.167  18.762  0.00  0.00    +0.000 C 
ATOM     31  O   UNL     1       5.403   5.657  19.730  0.00  0.00    +0.000 OA
ATOM     32  N   UNL     1       3.513   4.921  18.552  0.00  0.00    +0.000 N 
ENDBRANCH  21  32
ENDBRANCH   1  21
TORSDOF 4
ENDMDL
MODEL 4
REMARK VINA RESULT:      -8.0      1.833      3.269
REMARK  Name = 
REMARK  4 active torsions:
REMARK  status: ('A' for Active; 'I' for Inactive)
REMARK    1  A    between atoms: N_11  and  C_12
REMARK    2  A    between atoms: C_12  and  C_13
REMARK    3  A    between atoms: C_16  and  C_17
REMARK    4  A    between atoms: N_22  and  C_23
REMARK                            x       y       z     vdW  Elec       q    Type
REMARK                         _______ _______ _______ _____ _____    ______ ____
ROOT
ATOM      1  C   UNL     1       4.378   5.885  18.447  0.00  0.00    +0.000 C 
ATOM      2  C   UNL     1       4.046   7.020  17.471  0.00  0.00    +0.000 C 
ATOM      3  C   UNL     1       3.202   8.033  18.230  0.00  0.00    +0.000 C 
ATOM      4  C   UNL     1       1.898   7.447  18.812  0.00  0.00    +0.000 C 
ATOM      5  C   UNL     1       2.056   5.982  19.337  0.00  0.00    +0.000 C 
ATOM      6  C   UNL     1       3.062   5.092  18.563  0.00  0.00    +0.000 C 
ENDROOT
BRANCH   4   7
ATOM      7  C   UNL     1       1.444   8.387  19.958  0.00  0.00    +0.000 C 
ATOM      8  O   UNL     1       1.551   8.012  21.131  0.00  0.00    +0.000 OA
ATOM      9  N   UNL     1       1.026   9.676  19.679  0.00  0.00    +0.000 N 
ATOM     10  C   UNL     1       0.835  10.639  20.781  0.00  0.00    +0.000 C 
ATOM     11  C   UNL     1       1.766  11.862  20.628  0.00  0.00    +0.000 C 
ATOM     12  N   UNL     1       1.693  12.426  19.264  0.00  0.00    +0.000 N 
ATOM     13  C   UNL     1       1.834  11.454  18.164  0.00  0.00    +0.000 C 
ATOM     14  C   UNL     1       0.841  10.293  18.362  0.00  0.00    +0.000 C 
BRANCH  12  15
ATOM     15  C   UNL     1       1.344  13.737  19.007  0.00  0.00    +0.000 A 
ATOM     16  C   UNL     1       2.320  14.713  18.743  0.00  0.00    +0.000 A 
ATOM     17  C   UNL     1       1.987  16.050  18.496  0.00  0.00    +0.000 A 
ATOM     18  C   UNL     1       0.656  16.445  18.505  0.00  0.00    +0.000 A 
ATOM     19  C   UNL     1      -0.336  15.502  18.748  0.00  0.00    +0.000 A 
ATOM     20  C   UNL     1       0.009  14.167  18.998  0.00  0.00    +0.000 A 
ENDBRANCH  12  15
ENDBRANCH   4   7
BRANCH   1  21
ATOM     21  C   UNL     1       5.713   5.170  18.136  0.00  0.00    +0.000 C 
BRANCH  21  32
ATOM     22  O   UNL     1       7.572   6.569  16.279  0.00  0.00    +0.000 OA
ATOM     23  C   UNL     1       6.840   5.643  15.942  0.00  0.00    +0.000 C 
ATOM     24  C   UNL     1       6.865   5.050  14.613  0.00  0.00    +0.000 A 
ATOM     25  C   UNL     1       7.743   5.259  13.560  0.00  0.00    +0.000 A 
ATOM     26  C   UNL     1       7.495   4.573  12.371  0.00  0.00    +0.000 A 
ATOM     27  C   UNL     1       6.377   3.721  12.258  0.00  0.00    +0.000 A 
ATOM     28  C   UNL     1       5.525   3.501  13.352  0.00  0.00    +0.000 A 
ATOM     29  C   UNL     1       5.812   4.165  14.536  0.00  0.00    +0.000 A 
ATOM     30  C   UNL     1       5.187   4.121  15.873  0.00  0.00    +0.000 C 
ATOM     31  O   UNL     1       4.240   3.413  16.154  0.00  0.00    +0.000 OA
ATOM     32  N   UNL     1       5.887   5.001  16.671  0.00  0.00    +0.000 N 
ENDBRANCH  21  32
ENDBRANCH   1  21
TORSDOF 4
ENDMDL
MODEL 5
REMARK VINA RESULT:      -7.7      1.943      3.079
REMARK  Name = 
REMARK  4 active torsions:
REMARK  status: ('A' for Active; 'I' for Inactive)
REMARK    1  A    between atoms: N_11  and  C_12
REMARK    2  A    between atoms: C_12  and  C_13
REMARK    3  A    between atoms: C_16  and  C_17
REMARK    4  A    between atoms: N_22  and  C_23
REMARK                            x       y       z     vdW  Elec       q    Type
REMARK                         _______ _______ _______ _____ _____    ______ ____
ROOT
ATOM      1  C   UNL     1       4.619   5.616  18.199  0.00  0.00    +0.000 C 
ATOM      2  C   UNL     1       4.590   6.912  17.380  0.00  0.00    +0.000 C 
ATOM      3  C   UNL     1       3.650   7.874  18.093  0.00  0.00    +0.000 C 
ATOM      4  C   UNL     1       2.215   7.331  18.262  0.00  0.00    +0.000 C 
ATOM      5  C   UNL     1       2.162   5.796  18.553  0.00  0.00    +0.000 C 
ATOM      6  C   UNL     1       3.269   4.942  17.883  0.00  0.00    +0.000 C 
ENDROOT
BRANCH   4   7
ATOM      7  C   UNL     1       1.558   8.125  19.420  0.00  0.00    +0.000 C 
ATOM      8  O   UNL     1       1.510   7.626  20.549  0.00  0.00    +0.000 OA
ATOM      9  N   UNL     1       1.130   9.425  19.219  0.00  0.00    +0.000 N 
ATOM     10  C   UNL     1       0.738  10.254  20.376  0.00  0.00    +0.000 C 
ATOM     11  C   UNL     1       1.628  11.512  20.495  0.00  0.00    +0.000 C 
ATOM     12  N   UNL     1       1.729  12.222  19.202  0.00  0.00    +0.000 N 
ATOM     13  C   UNL     1       2.071  11.383  18.039  0.00  0.00    +0.000 C 
ATOM     14  C   UNL     1       1.111  10.179  17.963  0.00  0.00    +0.000 C 
BRANCH  12  15
ATOM     15  C   UNL     1       1.364  13.543  19.036  0.00  0.00    +0.000 A 
ATOM     16  C   UNL     1       0.029  13.956  19.192  0.00  0.00    +0.000 A 
ATOM     17  C   UNL     1      -0.363  15.287  19.012  0.00  0.00    +0.000 A 
ATOM     18  C   UNL     1       0.580  16.247  18.670  0.00  0.00    +0.000 A 
ATOM     19  C   UNL     1       1.912  15.875  18.522  0.00  0.00    +0.000 A 
ATOM     20  C   UNL     1       2.293  14.539  18.701  0.00  0.00    +0.000 A 
ENDBRANCH  12  15
ENDBRANCH   4   7
BRANCH   1  21
ATOM     21  C   UNL     1       5.946   4.834  18.077  0.00  0.00    +0.000 C 
BRANCH  21  32
ATOM     22  O   UNL     1       5.055   2.711  16.188  0.00  0.00    +0.000 OA
ATOM     23  C   UNL     1       5.757   3.664  15.862  0.00  0.00    +0.000 C 
ATOM     24  C   UNL     1       6.157   3.925  14.487  0.00  0.00    +0.000 A 
ATOM     25  C   UNL     1       5.753   3.314  13.309  0.00  0.00    +0.000 A 
ATOM     26  C   UNL     1       6.344   3.751  12.123  0.00  0.00    +0.000 A 
ATOM     27  C   UNL     1       7.329   4.760  12.145  0.00  0.00    +0.000 A 
ATOM     28  C   UNL     1       7.693   5.385  13.348  0.00  0.00    +0.000 A 
ATOM     29  C   UNL     1       7.065   4.961  14.511  0.00  0.00    +0.000 A 
ATOM     30  C   UNL     1       7.149   5.428  15.909  0.00  0.00    +0.000 C 
ATOM     31  O   UNL     1       7.847   6.355  16.272  0.00  0.00    +0.000 OA
ATOM     32  N   UNL     1       6.304   4.630  16.650  0.00  0.00    +0.000 N 
ENDBRANCH  21  32
ENDBRANCH   1  21
TORSDOF 4
ENDMDL
MODEL 6
REMARK VINA RESULT:      -7.6      1.900      2.668
REMARK  Name = 
REMARK  4 active torsions:
REMARK  status: ('A' for Active; 'I' for Inactive)
REMARK    1  A    between atoms: N_11  and  C_12
REMARK    2  A    between atoms: C_12  and  C_13
REMARK    3  A    between atoms: C_16  and  C_17
REMARK    4  A    between atoms: N_22  and  C_23
REMARK                            x       y       z     vdW  Elec       q    Type
REMARK                         _______ _______ _______ _____ _____    ______ ____
ROOT
ATOM      1  C   UNL     1       2.890   6.417  19.442  0.00  0.00    +0.000 C 
ATOM      2  C   UNL     1       2.175   6.553  18.092  0.00  0.00    +0.000 C 
ATOM      3  C   UNL     1       2.052   8.041  17.797  0.00  0.00    +0.000 C 
ATOM      4  C   UNL     1       1.281   8.829  18.878  0.00  0.00    +0.000 C 
ATOM      5  C   UNL     1       1.555   8.320  20.330  0.00  0.00    +0.000 C 
ATOM      6  C   UNL     1       1.813   6.799  20.476  0.00  0.00    +0.000 C 
ENDROOT
BRANCH   4   7
ATOM      7  C   UNL     1       1.689  10.318  18.739  0.00  0.00    +0.000 C 
ATOM      8  O   UNL     1       2.521  10.644  17.887  0.00  0.00    +0.000 OA
ATOM      9  N   UNL     1       1.046  11.289  19.486  0.00  0.00    +0.000 N 
ATOM     10  C   UNL     1       1.261  12.716  19.172  0.00  0.00    +0.000 C 
ATOM     11  C   UNL     1      -0.061  13.411  18.777  0.00  0.00    +0.000 C 
ATOM     12  N   UNL     1      -1.132  13.124  19.755  0.00  0.00    +0.000 N 
ATOM     13  C   UNL     1      -1.312  11.702  20.104  0.00  0.00    +0.000 C 
ATOM     14  C   UNL     1       0.038  11.095  20.533  0.00  0.00    +0.000 C 
BRANCH  12  15
ATOM     15  C   UNL     1      -1.815  14.110  20.439  0.00  0.00    +0.000 A 
ATOM     16  C   UNL     1      -2.921  13.803  21.250  0.00  0.00    +0.000 A 
ATOM     17  C   UNL     1      -3.635  14.791  21.938  0.00  0.00    +0.000 A 
ATOM     18  C   UNL     1      -3.254  16.122  21.832  0.00  0.00    +0.000 A 
ATOM     19  C   UNL     1      -2.155  16.458  21.050  0.00  0.00    +0.000 A 
ATOM     20  C   UNL     1      -1.449  15.462  20.363  0.00  0.00    +0.000 A 
ENDBRANCH  12  15
ENDBRANCH   4   7
BRANCH   1  21
ATOM     21  C   UNL     1       3.702   5.110  19.584  0.00  0.00    +0.000 C 
BRANCH  21  32
ATOM     22  O   UNL     1       3.136   3.362  17.241  0.00  0.00    +0.000 OA
ATOM     23  C   UNL     1       4.108   4.107  17.317  0.00  0.00    +0.000 C 
ATOM     24  C   UNL     1       5.052   4.300  16.226  0.00  0.00    +0.000 A 
ATOM     25  C   UNL     1       4.999   3.857  14.913  0.00  0.00    +0.000 A 
ATOM     26  C   UNL     1       6.082   4.162  14.088  0.00  0.00    +0.000 A 
ATOM     27  C   UNL     1       7.188   4.875  14.594  0.00  0.00    +0.000 A 
ATOM     28  C   UNL     1       7.199   5.341  15.919  0.00  0.00    +0.000 A 
ATOM     29  C   UNL     1       6.095   5.058  16.711  0.00  0.00    +0.000 A 
ATOM     30  C   UNL     1       5.744   5.439  18.093  0.00  0.00    +0.000 C 
ATOM     31  O   UNL     1       6.444   6.137  18.801  0.00  0.00    +0.000 OA
ATOM     32  N   UNL     1       4.520   4.868  18.368  0.00  0.00    +0.000 N 
ENDBRANCH  21  32
ENDBRANCH   1  21
TORSDOF 4
ENDMDL
MODEL 7
REMARK VINA RESULT:      -7.6      3.959     11.186
REMARK  Name = 
REMARK  4 active torsions:
REMARK  status: ('A' for Active; 'I' for Inactive)
REMARK    1  A    between atoms: N_11  and  C_12
REMARK    2  A    between atoms: C_12  and  C_13
REMARK    3  A    between atoms: C_16  and  C_17
REMARK    4  A    between atoms: N_22  and  C_23
REMARK                            x       y       z     vdW  Elec       q    Type
REMARK                         _______ _______ _______ _____ _____    ______ ____
ROOT
ATOM      1  C   UNL     1      -1.220  13.291  21.890  0.00  0.00    +0.000 C 
ATOM      2  C   UNL     1       0.283  13.579  21.975  0.00  0.00    +0.000 C 
ATOM      3  C   UNL     1       0.947  12.850  20.814  0.00  0.00    +0.000 C 
ATOM      4  C   UNL     1       0.705  11.325  20.817  0.00  0.00    +0.000 C 
ATOM      5  C   UNL     1      -0.726  10.925  21.301  0.00  0.00    +0.000 C 
ATOM      6  C   UNL     1      -1.354  11.838  22.385  0.00  0.00    +0.000 C 
ENDROOT
BRANCH   4   7
ATOM      7  C   UNL     1       0.949  10.820  19.372  0.00  0.00    +0.000 C 
ATOM      8  O   UNL     1       1.155  11.637  18.468  0.00  0.00    +0.000 OA
ATOM      9  N   UNL     1       1.047   9.464  19.115  0.00  0.00    +0.000 N 
ATOM     10  C   UNL     1       1.523   9.001  17.796  0.00  0.00    +0.000 C 
ATOM     11  C   UNL     1       2.814   8.162  17.926  0.00  0.00    +0.000 C 
ATOM     12  N   UNL     1       2.672   7.115  18.960  0.00  0.00    +0.000 N 
ATOM     13  C   UNL     1       2.149   7.571  20.261  0.00  0.00    +0.000 C 
ATOM     14  C   UNL     1       0.839   8.356  20.051  0.00  0.00    +0.000 C 
BRANCH  12  15
ATOM     15  C   UNL     1       2.844   5.770  18.701  0.00  0.00    +0.000 A 
ATOM     16  C   UNL     1       1.888   5.040  17.975  0.00  0.00    +0.000 A 
ATOM     17  C   UNL     1       2.037   3.672  17.717  0.00  0.00    +0.000 A 
ATOM     18  C   UNL     1       3.158   2.997  18.181  0.00  0.00    +0.000 A 
ATOM     19  C   UNL     1       4.131   3.694  18.889  0.00  0.00    +0.000 A 
ATOM     20  C   UNL     1       3.970   5.061  19.146  0.00  0.00    +0.000 A 
ENDBRANCH  12  15
ENDBRANCH   4   7
BRANCH   1  21
ATOM     21  C   UNL     1      -2.101  14.417  22.479  0.00  0.00    +0.000 C 
BRANCH  21  32
ATOM     22  O   UNL     1      -4.118  14.067  20.317  0.00  0.00    +0.000 OA
ATOM     23  C   UNL     1      -4.319  13.771  21.492  0.00  0.00    +0.000 C 
ATOM     24  C   UNL     1      -5.535  13.121  21.953  0.00  0.00    +0.000 A 
ATOM     25  C   UNL     1      -6.591  12.586  21.229  0.00  0.00    +0.000 A 
ATOM     26  C   UNL     1      -7.660  12.054  21.950  0.00  0.00    +0.000 A 
ATOM     27  C   UNL     1      -7.659  12.088  23.359  0.00  0.00    +0.000 A 
ATOM     28  C   UNL     1      -6.562  12.604  24.067  0.00  0.00    +0.000 A 
ATOM     29  C   UNL     1      -5.493  13.094  23.330  0.00  0.00    +0.000 A 
ATOM     30  C   UNL     1      -4.179  13.635  23.731  0.00  0.00    +0.000 C 
ATOM     31  O   UNL     1      -3.809  13.726  24.886  0.00  0.00    +0.000 OA
ATOM     32  N   UNL     1      -3.517  13.978  22.572  0.00  0.00    +0.000 N 
ENDBRANCH  21  32
ENDBRANCH   1  21
TORSDOF 4
ENDMDL
MODEL 8
REMARK VINA RESULT:      -7.6      2.758      3.929
REMARK  Name = 
REMARK  4 active torsions:
REMARK  status: ('A' for Active; 'I' for Inactive)
REMARK    1  A    between atoms: N_11  and  C_12
REMARK    2  A    between atoms: C_12  and  C_13
REMARK    3  A    between atoms: C_16  and  C_17
REMARK    4  A    between atoms: N_22  and  C_23
REMARK                            x       y       z     vdW  Elec       q    Type
REMARK                         _______ _______ _______ _____ _____    ______ ____
ROOT
ATOM      1  C   UNL     1       4.153   6.605  18.586  0.00  0.00    +0.000 C 
ATOM      2  C   UNL     1       3.690   6.876  17.150  0.00  0.00    +0.000 C 
ATOM      3  C   UNL     1       3.098   8.279  17.126  0.00  0.00    +0.000 C 
ATOM      4  C   UNL     1       1.918   8.473  18.101  0.00  0.00    +0.000 C 
ATOM      5  C   UNL     1       2.092   7.700  19.449  0.00  0.00    +0.000 C 
ATOM      6  C   UNL     1       2.846   6.348  19.360  0.00  0.00    +0.000 C 
ENDROOT
BRANCH   4   7
ATOM      7  C   UNL     1       1.785   9.995  18.363  0.00  0.00    +0.000 C 
ATOM      8  O   UNL     1       2.668  10.761  17.961  0.00  0.00    +0.000 OA
ATOM      9  N   UNL     1       0.637  10.505  18.941  0.00  0.00    +0.000 N 
ATOM     10  C   UNL     1       0.412  11.965  18.960  0.00  0.00    +0.000 C 
ATOM     11  C   UNL     1      -0.875  12.346  18.195  0.00  0.00    +0.000 C 
ATOM     12  N   UNL     1      -2.021  11.515  18.623  0.00  0.00    +0.000 N 
ATOM     13  C   UNL     1      -1.778  10.061  18.651  0.00  0.00    +0.000 C 
ATOM     14  C   UNL     1      -0.509   9.760  19.471  0.00  0.00    +0.000 C 
BRANCH  12  15
ATOM     15  C   UNL     1      -3.190  12.046  19.132  0.00  0.00    +0.000 A 
ATOM     16  C   UNL     1      -4.428  11.811  18.510  0.00  0.00    +0.000 A 
ATOM     17  C   UNL     1      -5.621  12.353  19.001  0.00  0.00    +0.000 A 
ATOM     18  C   UNL     1      -5.604  13.149  20.139  0.00  0.00    +0.000 A 
ATOM     19  C   UNL     1      -4.397  13.389  20.786  0.00  0.00    +0.000 A 
ATOM     20  C   UNL     1      -3.208  12.845  20.284  0.00  0.00    +0.000 A 
ENDBRANCH  12  15
ENDBRANCH   4   7
BRANCH   1  21
ATOM     21  C   UNL     1       5.340   5.618  18.679  0.00  0.00    +0.000 C 
BRANCH  21  32
ATOM     22  O   UNL     1       4.292   3.394  17.000  0.00  0.00    +0.000 OA
ATOM     23  C   UNL     1       5.141   4.195  16.619  0.00  0.00    +0.000 C 
ATOM     24  C   UNL     1       5.666   4.214  15.263  0.00  0.00    +0.000 A 
ATOM     25  C   UNL     1       5.263   3.507  14.139  0.00  0.00    +0.000 A 
ATOM     26  C   UNL     1       5.989   3.698  12.964  0.00  0.00    +0.000 A 
ATOM     27  C   UNL     1       7.101   4.565  12.944  0.00  0.00    +0.000 A 
ATOM     28  C   UNL     1       7.467   5.295  14.087  0.00  0.00    +0.000 A 
ATOM     29  C   UNL     1       6.707   5.117  15.235  0.00  0.00    +0.000 A 
ATOM     30  C   UNL     1       6.759   5.753  16.566  0.00  0.00    +0.000 C 
ATOM     31  O   UNL     1       7.554   6.623  16.869  0.00  0.00    +0.000 OA
ATOM     32  N   UNL     1       5.762   5.179  17.325  0.00  0.00    +0.000 N 
ENDBRANCH  21  32
ENDBRANCH   1  21
TORSDOF 4
ENDMDL
MODEL 9
REMARK VINA RESULT:      -7.5      6.127      8.543
REMARK  Name = 
REMARK  4 active torsions:
REMARK  status: ('A' for Active; 'I' for Inactive)
REMARK    1  A    between atoms: N_11  and  C_12
REMARK    2  A    between atoms: C_12  and  C_13
REMARK    3  A    between atoms: C_16  and  C_17
REMARK    4  A    between atoms: N_22  and  C_23
REMARK                            x       y       z     vdW  Elec       q    Type
REMARK                         _______ _______ _______ _____ _____    ______ ____
ROOT
ATOM      1  C   UNL     1       6.292  15.927  19.478  0.00  0.00    +0.000 C 
ATOM      2  C   UNL     1       5.204  16.833  20.065  0.00  0.00    +0.000 C 
ATOM      3  C   UNL     1       4.130  15.926  20.649  0.00  0.00    +0.000 C 
ATOM      4  C   UNL     1       3.506  14.959  19.621  0.00  0.00    +0.000 C 
ATOM      5  C   UNL     1       4.534  14.414  18.577  0.00  0.00    +0.000 C 
ATOM      6  C   UNL     1       5.670  15.389  18.175  0.00  0.00    +0.000 C 
ENDROOT
BRANCH   4   7
ATOM      7  C   UNL     1       2.871  13.790  20.417  0.00  0.00    +0.000 C 
ATOM      8  O   UNL     1       3.156  13.641  21.610  0.00  0.00    +0.000 OA
ATOM      9  N   UNL     1       1.910  12.987  19.829  0.00  0.00    +0.000 N 
ATOM     10  C   UNL     1       1.136  12.043  20.660  0.00  0.00    +0.000 C 
ATOM     11  C   UNL     1      -0.376  12.357  20.610  0.00  0.00    +0.000 C 
ATOM     12  N   UNL     1      -0.845  12.519  19.217  0.00  0.00    +0.000 N 
ATOM     13  C   UNL     1      -0.041  13.424  18.374  0.00  0.00    +0.000 C 
ATOM     14  C   UNL     1       1.444  13.016  18.440  0.00  0.00    +0.000 C 
BRANCH  12  15
ATOM     15  C   UNL     1      -1.857  11.757  18.668  0.00  0.00    +0.000 A 
ATOM     16  C   UNL     1      -3.208  12.077  18.882  0.00  0.00    +0.000 A 
ATOM     17  C   UNL     1      -4.247  11.306  18.348  0.00  0.00    +0.000 A 
ATOM     18  C   UNL     1      -3.957  10.189  17.576  0.00  0.00    +0.000 A 
ATOM     19  C   UNL     1      -2.629   9.854  17.332  0.00  0.00    +0.000 A 
ATOM     20  C   UNL     1      -1.597  10.629  17.875  0.00  0.00    +0.000 A 
ENDBRANCH  12  15
ENDBRANCH   4   7
BRANCH   1  21
ATOM     21  C   UNL     1       7.700  16.566  19.484  0.00  0.00    +0.000 C 
BRANCH  21  32
ATOM     22  O   UNL     1       8.579  14.307  21.212  0.00  0.00    +0.000 OA
ATOM     23  C   UNL     1       8.992  14.494  20.072  0.00  0.00    +0.000 C 
ATOM     24  C   UNL     1       9.890  13.575  19.389  0.00  0.00    +0.000 A 
ATOM     25  C   UNL     1      10.327  12.312  19.762  0.00  0.00    +0.000 A 
ATOM     26  C   UNL     1      11.233  11.670  18.918  0.00  0.00    +0.000 A 
ATOM     27  C   UNL     1      11.691  12.305  17.746  0.00  0.00    +0.000 A 
ATOM     28  C   UNL     1      11.205  13.570  17.374  0.00  0.00    +0.000 A 
ATOM     29  C   UNL     1      10.277  14.174  18.210  0.00  0.00    +0.000 A 
ATOM     30  C   UNL     1       9.521  15.438  18.102  0.00  0.00    +0.000 C 
ATOM     31  O   UNL     1       9.610  16.200  17.159  0.00  0.00    +0.000 OA
ATOM     32  N   UNL     1       8.742  15.537  19.234  0.00  0.00    +0.000 N 
ENDBRANCH  21  32
ENDBRANCH   1  21
TORSDOF 4
ENDMDL
