MODEL 1
REMARK VINA RESULT:      -6.9      0.000      0.000
REMARK  Name = 
REMARK  10 active torsions:
REMARK  status: ('A' for Active; 'I' for Inactive)
REMARK    1  A    between atoms: C_1  and  O_2
REMARK    2  A    between atoms: O_2  and  C_3
REMARK    3  A    between atoms: C_6  and  C_7
REMARK    4  A    between atoms: C_8  and  C_9
REMARK    5  A    between atoms: C_11  and  O_12
REMARK    6  A    between atoms: O_12  and  C_13
REMARK    7  A    between atoms: C_14  and  O_15
REMARK    8  A    between atoms: O_15  and  C_16
REMARK    9  A    between atoms: C_17  and  O_18
REMARK   10  A    between atoms: O_18  and  C_19
REMARK                            x       y       z     vdW  Elec       q    Type
REMARK                         _______ _______ _______ _____ _____    ______ ____
ROOT
ATOM      1  C   UNL     1       2.376   6.560  19.659  0.00  0.00    +0.000 A 
ATOM      2  C   UNL     1       2.259   5.488  20.528  0.00  0.00    +0.000 A 
ATOM      3  C   UNL     1       2.809   4.235  20.235  0.00  0.00    +0.000 A 
ATOM      4  C   UNL     1       3.516   4.039  19.022  0.00  0.00    +0.000 A 
ATOM      5  C   UNL     1       3.668   5.135  18.137  0.00  0.00    +0.000 A 
ATOM      6  C   UNL     1       3.082   6.379  18.468  0.00  0.00    +0.000 A 
ENDROOT
BRANCH   1   8
ATOM      7  C   UNL     1       1.071   7.990  21.148  0.00  0.00    +0.000 C 
ATOM      8  C   UNL     1       1.796   7.844  20.032  0.00  0.00    +0.000 C 
BRANCH   7  12
ATOM      9  C   UNL     1      -1.208  11.476  22.220  0.00  0.00    +0.000 A 
ATOM     10  C   UNL     1      -0.874  10.513  23.169  0.00  0.00    +0.000 A 
ATOM     11  C   UNL     1      -0.111   9.392  22.812  0.00  0.00    +0.000 A 
ATOM     12  C   UNL     1       0.297   9.199  21.488  0.00  0.00    +0.000 A 
ATOM     13  C   UNL     1      -0.046  10.170  20.541  0.00  0.00    +0.000 A 
ATOM     14  C   UNL     1      -0.796  11.298  20.897  0.00  0.00    +0.000 A 
BRANCH   9  16
ATOM     15  C   UNL     1      -1.228  13.572  23.309  0.00  0.00    +0.000 C 
ATOM     16  O   UNL     1      -1.955  12.523  22.678  0.00  0.00    +0.000 OA
ENDBRANCH   9  16
ENDBRANCH   7  12
ENDBRANCH   1   8
BRANCH   3  17
ATOM     17  O   UNL     1       2.686   3.196  21.140  0.00  0.00    +0.000 OA
ATOM     18  C   UNL     1       1.338   2.783  21.395  0.00  0.00    +0.000 C 
ENDBRANCH   3  17
BRANCH   4  19
ATOM     19  O   UNL     1       4.061   2.781  18.826  0.00  0.00    +0.000 OA
ATOM     20  C   UNL     1       3.340   1.848  18.023  0.00  0.00    +0.000 C 
ENDBRANCH   4  19
BRANCH   5  21
ATOM     21  O   UNL     1       4.422   4.981  17.000  0.00  0.00    +0.000 OA
ATOM     22  C   UNL     1       5.007   6.137  16.413  0.00  0.00    +0.000 C 
ENDBRANCH   5  21
TORSDOF 6
ENDMDL
MODEL 2
REMARK VINA RESULT:      -6.9      0.631      2.844
REMARK  Name = 
REMARK  10 active torsions:
REMARK  status: ('A' for Active; 'I' for Inactive)
REMARK    1  A    between atoms: C_1  and  O_2
REMARK    2  A    between atoms: O_2  and  C_3
REMARK    3  A    between atoms: C_6  and  C_7
REMARK    4  A    between atoms: C_8  and  C_9
REMARK    5  A    between atoms: C_11  and  O_12
REMARK    6  A    between atoms: O_12  and  C_13
REMARK    7  A    between atoms: C_14  and  O_15
REMARK    8  A    between atoms: O_15  and  C_16
REMARK    9  A    between atoms: C_17  and  O_18
REMARK   10  A    between atoms: O_18  and  C_19
REMARK                            x       y       z     vdW  Elec       q    Type
REMARK                         _______ _______ _______ _____ _____    ______ ____
ROOT
ATOM      1  C   UNL     1       2.374   6.666  19.704  0.00  0.00    +0.000 A 
ATOM      2  C   UNL     1       3.005   6.535  18.478  0.00  0.00    +0.000 A 
ATOM      3  C   UNL     1       3.561   5.322  18.057  0.00  0.00    +0.000 A 
ATOM      4  C   UNL     1       3.479   4.179  18.893  0.00  0.00    +0.000 A 
ATOM      5  C   UNL     1       2.811   4.291  20.138  0.00  0.00    +0.000 A 
ATOM      6  C   UNL     1       2.278   5.542  20.527  0.00  0.00    +0.000 A 
ENDROOT
BRANCH   1   8
ATOM      7  C   UNL     1       1.375   8.199  21.321  0.00  0.00    +0.000 C 
ATOM      8  C   UNL     1       1.800   7.952  20.075  0.00  0.00    +0.000 C 
BRANCH   7  12
ATOM      9  C   UNL     1      -0.906  11.637  22.536  0.00  0.00    +0.000 A 
ATOM     10  C   UNL     1      -1.027  10.419  23.200  0.00  0.00    +0.000 A 
ATOM     11  C   UNL     1      -0.262   9.312  22.810  0.00  0.00    +0.000 A 
ATOM     12  C   UNL     1       0.612   9.397  21.720  0.00  0.00    +0.000 A 
ATOM     13  C   UNL     1       0.725  10.624  21.056  0.00  0.00    +0.000 A 
ATOM     14  C   UNL     1      -0.028  11.736  21.454  0.00  0.00    +0.000 A 
BRANCH   9  16
ATOM     15  C   UNL     1      -3.076  12.320  23.170  0.00  0.00    +0.000 C 
ATOM     16  O   UNL     1      -1.701  12.646  23.000  0.00  0.00    +0.000 OA
ENDBRANCH   9  16
ENDBRANCH   7  12
ENDBRANCH   1   8
BRANCH   3  17
ATOM     17  O   UNL     1       4.165   5.229  16.816  0.00  0.00    +0.000 OA
ATOM     18  C   UNL     1       5.086   6.287  16.521  0.00  0.00    +0.000 C 
ENDBRANCH   3  17
BRANCH   4  19
ATOM     19  O   UNL     1       4.020   3.009  18.387  0.00  0.00    +0.000 OA
ATOM     20  C   UNL     1       3.130   2.009  17.893  0.00  0.00    +0.000 C 
ENDBRANCH   4  19
BRANCH   5  21
ATOM     21  O   UNL     1       2.652   3.173  20.918  0.00  0.00    +0.000 OA
ATOM     22  C   UNL     1       1.372   2.918  21.482  0.00  0.00    +0.000 C 
ENDBRANCH   5  21
TORSDOF 6
ENDMDL
MODEL 3
REMARK VINA RESULT:      -6.8      0.542      3.006
REMARK  Name = 
REMARK  10 active torsions:
REMARK  status: ('A' for Active; 'I' for Inactive)
REMARK    1  A    between atoms: C_1  and  O_2
REMARK    2  A    between atoms: O_2  and  C_3
REMARK    3  A    between atoms: C_6  and  C_7
REMARK    4  A    between atoms: C_8  and  C_9
REMARK    5  A    between atoms: C_11  and  O_12
REMARK    6  A    between atoms: O_12  and  C_13
REMARK    7  A    between atoms: C_14  and  O_15
REMARK    8  A    between atoms: O_15  and  C_16
REMARK    9  A    between atoms: C_17  and  O_18
REMARK   10  A    between atoms: O_18  and  C_19
REMARK                            x       y       z     vdW  Elec       q    Type
REMARK                         _______ _______ _______ _____ _____    ______ ____
ROOT
ATOM      1  C   UNL     1       2.361   6.565  19.741  0.00  0.00    +0.000 A 
ATOM      2  C   UNL     1       2.975   6.431  18.507  0.00  0.00    +0.000 A 
ATOM      3  C   UNL     1       3.555   5.225  18.097  0.00  0.00    +0.000 A 
ATOM      4  C   UNL     1       3.516   4.095  18.952  0.00  0.00    +0.000 A 
ATOM      5  C   UNL     1       2.866   4.211  20.206  0.00  0.00    +0.000 A 
ATOM      6  C   UNL     1       2.307   5.454  20.583  0.00  0.00    +0.000 A 
ENDROOT
BRANCH   1   8
ATOM      7  C   UNL     1       1.081   8.004  21.243  0.00  0.00    +0.000 C 
ATOM      8  C   UNL     1       1.759   7.843  20.100  0.00  0.00    +0.000 C 
BRANCH   7  12
ATOM      9  C   UNL     1      -1.205  11.533  22.148  0.00  0.00    +0.000 A 
ATOM     10  C   UNL     1      -0.666  11.328  20.881  0.00  0.00    +0.000 A 
ATOM     11  C   UNL     1       0.058  10.163  20.591  0.00  0.00    +0.000 A 
ATOM     12  C   UNL     1       0.287   9.200  21.581  0.00  0.00    +0.000 A 
ATOM     13  C   UNL     1      -0.257   9.416  22.852  0.00  0.00    +0.000 A 
ATOM     14  C   UNL     1      -0.993  10.572  23.140  0.00  0.00    +0.000 A 
BRANCH   9  16
ATOM     15  C   UNL     1      -3.275  12.660  21.996  0.00  0.00    +0.000 C 
ATOM     16  O   UNL     1      -1.889  12.703  22.318  0.00  0.00    +0.000 OA
ENDBRANCH   9  16
ENDBRANCH   7  12
ENDBRANCH   1   8
BRANCH   3  17
ATOM     17  O   UNL     1       4.141   5.127  16.847  0.00  0.00    +0.000 OA
ATOM     18  C   UNL     1       5.140   6.119  16.578  0.00  0.00    +0.000 C 
ENDBRANCH   3  17
BRANCH   4  19
ATOM     19  O   UNL     1       4.078   2.931  18.457  0.00  0.00    +0.000 OA
ATOM     20  C   UNL     1       3.207   1.912  17.966  0.00  0.00    +0.000 C 
ENDBRANCH   4  19
BRANCH   5  21
ATOM     21  O   UNL     1       2.747   3.102  21.006  0.00  0.00    +0.000 OA
ATOM     22  C   UNL     1       1.460   2.760  21.504  0.00  0.00    +0.000 C 
ENDBRANCH   5  21
TORSDOF 6
ENDMDL
MODEL 4
REMARK VINA RESULT:      -6.8      7.179     10.542
REMARK  Name = 
REMARK  10 active torsions:
REMARK  status: ('A' for Active; 'I' for Inactive)
REMARK    1  A    between atoms: C_1  and  O_2
REMARK    2  A    between atoms: O_2  and  C_3
REMARK    3  A    between atoms: C_6  and  C_7
REMARK    4  A    between atoms: C_8  and  C_9
REMARK    5  A    between atoms: C_11  and  O_12
REMARK    6  A    between atoms: O_12  and  C_13
REMARK    7  A    between atoms: C_14  and  O_15
REMARK    8  A    between atoms: O_15  and  C_16
REMARK    9  A    between atoms: C_17  and  O_18
REMARK   10  A    between atoms: O_18  and  C_19
REMARK                            x       y       z     vdW  Elec       q    Type
REMARK                         _______ _______ _______ _____ _____    ______ ____
ROOT
ATOM      1  C   UNL     1       9.375  10.467  19.047  0.00  0.00    +0.000 A 
ATOM      2  C   UNL     1       9.386  11.037  20.309  0.00  0.00    +0.000 A 
ATOM      3  C   UNL     1       9.827  12.348  20.526  0.00  0.00    +0.000 A 
ATOM      4  C   UNL     1      10.274  13.133  19.433  0.00  0.00    +0.000 A 
ATOM      5  C   UNL     1      10.242  12.572  18.132  0.00  0.00    +0.000 A 
ATOM      6  C   UNL     1       9.801  11.239  17.964  0.00  0.00    +0.000 A 
ENDROOT
BRANCH   1   8
ATOM      7  C   UNL     1       8.074   8.764  17.877  0.00  0.00    +0.000 C 
ATOM      8  C   UNL     1       8.886   9.104  18.887  0.00  0.00    +0.000 C 
BRANCH   7  12
ATOM      9  C   UNL     1       6.001   5.014  17.503  0.00  0.00    +0.000 A 
ATOM     10  C   UNL     1       5.550   6.157  16.846  0.00  0.00    +0.000 A 
ATOM     11  C   UNL     1       6.247   7.368  16.957  0.00  0.00    +0.000 A 
ATOM     12  C   UNL     1       7.388   7.463  17.762  0.00  0.00    +0.000 A 
ATOM     13  C   UNL     1       7.832   6.311  18.420  0.00  0.00    +0.000 A 
ATOM     14  C   UNL     1       7.145   5.096  18.299  0.00  0.00    +0.000 A 
BRANCH   9  16
ATOM     15  C   UNL     1       4.288   3.622  18.346  0.00  0.00    +0.000 C 
ATOM     16  O   UNL     1       5.243   3.892  17.325  0.00  0.00    +0.000 OA
ENDBRANCH   9  16
ENDBRANCH   7  12
ENDBRANCH   1   8
BRANCH   3  17
ATOM     17  O   UNL     1       9.802  12.886  21.800  0.00  0.00    +0.000 OA
ATOM     18  C   UNL     1       8.622  12.580  22.553  0.00  0.00    +0.000 C 
ENDBRANCH   3  17
BRANCH   4  19
ATOM     19  O   UNL     1      10.658  14.431  19.726  0.00  0.00    +0.000 OA
ATOM     20  C   UNL     1       9.691  15.471  19.590  0.00  0.00    +0.000 C 
ENDBRANCH   4  19
BRANCH   5  21
ATOM     21  O   UNL     1      10.591  13.350  17.056  0.00  0.00    +0.000 OA
ATOM     22  C   UNL     1      11.956  13.385  16.660  0.00  0.00    +0.000 C 
ENDBRANCH   5  21
TORSDOF 6
ENDMDL
MODEL 5
REMARK VINA RESULT:      -6.8      1.862      2.856
REMARK  Name = 
REMARK  10 active torsions:
REMARK  status: ('A' for Active; 'I' for Inactive)
REMARK    1  A    between atoms: C_1  and  O_2
REMARK    2  A    between atoms: O_2  and  C_3
REMARK    3  A    between atoms: C_6  and  C_7
REMARK    4  A    between atoms: C_8  and  C_9
REMARK    5  A    between atoms: C_11  and  O_12
REMARK    6  A    between atoms: O_12  and  C_13
REMARK    7  A    between atoms: C_14  and  O_15
REMARK    8  A    between atoms: O_15  and  C_16
REMARK    9  A    between atoms: C_17  and  O_18
REMARK   10  A    between atoms: O_18  and  C_19
REMARK                            x       y       z     vdW  Elec       q    Type
REMARK                         _______ _______ _______ _____ _____    ______ ____
ROOT
ATOM      1  C   UNL     1       3.377   6.394  17.986  0.00  0.00    +0.000 A 
ATOM      2  C   UNL     1       3.227   5.025  17.840  0.00  0.00    +0.000 A 
ATOM      3  C   UNL     1       4.197   4.239  17.206  0.00  0.00    +0.000 A 
ATOM      4  C   UNL     1       5.375   4.842  16.699  0.00  0.00    +0.000 A 
ATOM      5  C   UNL     1       5.554   6.238  16.867  0.00  0.00    +0.000 A 
ATOM      6  C   UNL     1       4.541   6.994  17.501  0.00  0.00    +0.000 A 
ENDROOT
BRANCH   1   8
ATOM      7  C   UNL     1       2.092   8.435  18.373  0.00  0.00    +0.000 C 
ATOM      8  C   UNL     1       2.339   7.153  18.673  0.00  0.00    +0.000 C 
BRANCH   7  12
ATOM      9  C   UNL     1      -0.513  10.938  20.707  0.00  0.00    +0.000 A 
ATOM     10  C   UNL     1       0.102   9.819  21.264  0.00  0.00    +0.000 A 
ATOM     11  C   UNL     1       0.966   9.024  20.500  0.00  0.00    +0.000 A 
ATOM     12  C   UNL     1       1.200   9.316  19.151  0.00  0.00    +0.000 A 
ATOM     13  C   UNL     1       0.576  10.441  18.600  0.00  0.00    +0.000 A 
ATOM     14  C   UNL     1      -0.278  11.245  19.365  0.00  0.00    +0.000 A 
BRANCH   9  16
ATOM     15  C   UNL     1      -1.218  11.329  22.928  0.00  0.00    +0.000 C 
ATOM     16  O   UNL     1      -1.336  11.637  21.543  0.00  0.00    +0.000 OA
ENDBRANCH   9  16
ENDBRANCH   7  12
ENDBRANCH   1   8
BRANCH   3  17
ATOM     17  O   UNL     1       4.018   2.871  17.098  0.00  0.00    +0.000 OA
ATOM     18  C   UNL     1       2.877   2.362  17.801  0.00  0.00    +0.000 C 
ENDBRANCH   3  17
BRANCH   4  19
ATOM     19  O   UNL     1       6.300   3.990  16.120  0.00  0.00    +0.000 OA
ATOM     20  C   UNL     1       6.325   3.881  14.697  0.00  0.00    +0.000 C 
ENDBRANCH   4  19
BRANCH   5  21
ATOM     21  O   UNL     1       6.727   6.819  16.456  0.00  0.00    +0.000 OA
ATOM     22  C   UNL     1       7.495   7.543  17.410  0.00  0.00    +0.000 C 
ENDBRANCH   5  21
TORSDOF 6
ENDMDL
MODEL 6
REMARK VINA RESULT:      -6.8      6.990     10.797
REMARK  Name = 
REMARK  10 active torsions:
REMARK  status: ('A' for Active; 'I' for Inactive)
REMARK    1  A    between atoms: C_1  and  O_2
REMARK    2  A    between atoms: O_2  and  C_3
REMARK    3  A    between atoms: C_6  and  C_7
REMARK    4  A    between atoms: C_8  and  C_9
REMARK    5  A    between atoms: C_11  and  O_12
REMARK    6  A    between atoms: O_12  and  C_13
REMARK    7  A    between atoms: C_14  and  O_15
REMARK    8  A    between atoms: O_15  and  C_16
REMARK    9  A    between atoms: C_17  and  O_18
REMARK   10  A    between atoms: O_18  and  C_19
REMARK                            x       y       z     vdW  Elec       q    Type
REMARK                         _______ _______ _______ _____ _____    ______ ____
ROOT
ATOM      1  C   UNL     1       9.176  10.265  18.968  0.00  0.00    +0.000 A 
ATOM      2  C   UNL     1       9.513  11.109  17.923  0.00  0.00    +0.000 A 
ATOM      3  C   UNL     1       9.939  12.425  18.142  0.00  0.00    +0.000 A 
ATOM      4  C   UNL     1      10.042  12.923  19.465  0.00  0.00    +0.000 A 
ATOM      5  C   UNL     1       9.727  12.062  20.545  0.00  0.00    +0.000 A 
ATOM      6  C   UNL     1       9.287  10.745  20.275  0.00  0.00    +0.000 A 
ENDROOT
BRANCH   1   8
ATOM      7  C   UNL     1       7.818   8.637  17.756  0.00  0.00    +0.000 C 
ATOM      8  C   UNL     1       8.758   8.901  18.674  0.00  0.00    +0.000 C 
BRANCH   7  12
ATOM      9  C   UNL     1       5.969   4.810  17.100  0.00  0.00    +0.000 A 
ATOM     10  C   UNL     1       5.484   5.961  16.484  0.00  0.00    +0.000 A 
ATOM     11  C   UNL     1       6.108   7.199  16.687  0.00  0.00    +0.000 A 
ATOM     12  C   UNL     1       7.209   7.311  17.544  0.00  0.00    +0.000 A 
ATOM     13  C   UNL     1       7.688   6.149  18.161  0.00  0.00    +0.000 A 
ATOM     14  C   UNL     1       7.074   4.908  17.948  0.00  0.00    +0.000 A 
BRANCH   9  16
ATOM     15  C   UNL     1       3.992   3.559  17.428  0.00  0.00    +0.000 C 
ATOM     16  O   UNL     1       5.281   3.661  16.832  0.00  0.00    +0.000 OA
ENDBRANCH   9  16
ENDBRANCH   7  12
ENDBRANCH   1   8
BRANCH   3  17
ATOM     17  O   UNL     1      10.286  13.228  17.071  0.00  0.00    +0.000 OA
ATOM     18  C   UNL     1      11.680  13.209  16.739  0.00  0.00    +0.000 C 
ENDBRANCH   3  17
BRANCH   4  19
ATOM     19  O   UNL     1      10.507  14.221  19.597  0.00  0.00    +0.000 OA
ATOM     20  C   UNL     1       9.553  15.271  19.753  0.00  0.00    +0.000 C 
ENDBRANCH   4  19
BRANCH   5  21
ATOM     21  O   UNL     1       9.904  12.505  21.832  0.00  0.00    +0.000 OA
ATOM     22  C   UNL     1       8.756  12.672  22.655  0.00  0.00    +0.000 C 
ENDBRANCH   5  21
TORSDOF 6
ENDMDL
MODEL 7
REMARK VINA RESULT:      -6.7      7.174     10.541
REMARK  Name = 
REMARK  10 active torsions:
REMARK  status: ('A' for Active; 'I' for Inactive)
REMARK    1  A    between atoms: C_1  and  O_2
REMARK    2  A    between atoms: O_2  and  C_3
REMARK    3  A    between atoms: C_6  and  C_7
REMARK    4  A    between atoms: C_8  and  C_9
REMARK    5  A    between atoms: C_11  and  O_12
REMARK    6  A    between atoms: O_12  and  C_13
REMARK    7  A    between atoms: C_14  and  O_15
REMARK    8  A    between atoms: O_15  and  C_16
REMARK    9  A    between atoms: C_17  and  O_18
REMARK   10  A    between atoms: O_18  and  C_19
REMARK                            x       y       z     vdW  Elec       q    Type
REMARK                         _______ _______ _______ _____ _____    ______ ____
ROOT
ATOM      1  C   UNL     1       9.352  10.468  19.045  0.00  0.00    +0.000 A 
ATOM      2  C   UNL     1       9.394  10.951  20.342  0.00  0.00    +0.000 A 
ATOM      3  C   UNL     1       9.830  12.249  20.634  0.00  0.00    +0.000 A 
ATOM      4  C   UNL     1      10.238  13.111  19.584  0.00  0.00    +0.000 A 
ATOM      5  C   UNL     1      10.174  12.638  18.250  0.00  0.00    +0.000 A 
ATOM      6  C   UNL     1       9.740  11.314  18.005  0.00  0.00    +0.000 A 
ENDROOT
BRANCH   1   8
ATOM      7  C   UNL     1       7.990   8.842  17.833  0.00  0.00    +0.000 C 
ATOM      8  C   UNL     1       8.870   9.113  18.806  0.00  0.00    +0.000 C 
BRANCH   7  12
ATOM      9  C   UNL     1       6.092   5.011  17.367  0.00  0.00    +0.000 A 
ATOM     10  C   UNL     1       7.166   5.183  18.237  0.00  0.00    +0.000 A 
ATOM     11  C   UNL     1       7.762   6.441  18.397  0.00  0.00    +0.000 A 
ATOM     12  C   UNL     1       7.315   7.543  17.658  0.00  0.00    +0.000 A 
ATOM     13  C   UNL     1       6.237   7.360  16.785  0.00  0.00    +0.000 A 
ATOM     14  C   UNL     1       5.630   6.106  16.633  0.00  0.00    +0.000 A 
BRANCH   9  16
ATOM     15  C   UNL     1       4.180   3.644  17.129  0.00  0.00    +0.000 C 
ATOM     16  O   UNL     1       5.592   3.743  17.289  0.00  0.00    +0.000 OA
ENDBRANCH   9  16
ENDBRANCH   7  12
ENDBRANCH   1   8
BRANCH   3  17
ATOM     17  O   UNL     1       9.837  12.700  21.942  0.00  0.00    +0.000 OA
ATOM     18  C   UNL     1       8.551  12.707  22.576  0.00  0.00    +0.000 C 
ENDBRANCH   3  17
BRANCH   4  19
ATOM     19  O   UNL     1      10.620  14.389  19.954  0.00  0.00    +0.000 OA
ATOM     20  C   UNL     1       9.644  15.429  19.903  0.00  0.00    +0.000 C 
ENDBRANCH   4  19
BRANCH   5  21
ATOM     21  O   UNL     1      10.486  13.490  17.220  0.00  0.00    +0.000 OA
ATOM     22  C   UNL     1      11.753  13.353  16.588  0.00  0.00    +0.000 C 
ENDBRANCH   5  21
TORSDOF 6
ENDMDL
MODEL 8
REMARK VINA RESULT:      -6.6      1.577      2.563
REMARK  Name = 
REMARK  10 active torsions:
REMARK  status: ('A' for Active; 'I' for Inactive)
REMARK    1  A    between atoms: C_1  and  O_2
REMARK    2  A    between atoms: O_2  and  C_3
REMARK    3  A    between atoms: C_6  and  C_7
REMARK    4  A    between atoms: C_8  and  C_9
REMARK    5  A    between atoms: C_11  and  O_12
REMARK    6  A    between atoms: O_12  and  C_13
REMARK    7  A    between atoms: C_14  and  O_15
REMARK    8  A    between atoms: O_15  and  C_16
REMARK    9  A    between atoms: C_17  and  O_18
REMARK   10  A    between atoms: O_18  and  C_19
REMARK                            x       y       z     vdW  Elec       q    Type
REMARK                         _______ _______ _______ _____ _____    ______ ____
ROOT
ATOM      1  C   UNL     1       3.151   6.224  18.719  0.00  0.00    +0.000 A 
ATOM      2  C   UNL     1       3.072   4.853  18.534  0.00  0.00    +0.000 A 
ATOM      3  C   UNL     1       3.928   4.174  17.660  0.00  0.00    +0.000 A 
ATOM      4  C   UNL     1       4.916   4.891  16.938  0.00  0.00    +0.000 A 
ATOM      5  C   UNL     1       5.026   6.289  17.138  0.00  0.00    +0.000 A 
ATOM      6  C   UNL     1       4.130   6.935  18.022  0.00  0.00    +0.000 A 
ENDROOT
BRANCH   1   8
ATOM      7  C   UNL     1       1.889   8.153  19.525  0.00  0.00    +0.000 C 
ATOM      8  C   UNL     1       2.243   6.868  19.659  0.00  0.00    +0.000 C 
BRANCH   7  12
ATOM      9  C   UNL     1      -0.317  10.458  22.408  0.00  0.00    +0.000 A 
ATOM     10  C   UNL     1      -0.340  10.784  21.055  0.00  0.00    +0.000 A 
ATOM     11  C   UNL     1       0.365  10.012  20.121  0.00  0.00    +0.000 A 
ATOM     12  C   UNL     1       1.137   8.920  20.535  0.00  0.00    +0.000 A 
ATOM     13  C   UNL     1       1.155   8.602  21.898  0.00  0.00    +0.000 A 
ATOM     14  C   UNL     1       0.440   9.364  22.831  0.00  0.00    +0.000 A 
BRANCH   9  16
ATOM     15  C   UNL     1      -1.156  12.633  22.796  0.00  0.00    +0.000 C 
ATOM     16  O   UNL     1      -1.038  11.281  23.227  0.00  0.00    +0.000 OA
ENDBRANCH   9  16
ENDBRANCH   7  12
ENDBRANCH   1   8
BRANCH   3  17
ATOM     17  O   UNL     1       3.829   2.801  17.520  0.00  0.00    +0.000 OA
ATOM     18  C   UNL     1       2.495   2.286  17.622  0.00  0.00    +0.000 C 
ENDBRANCH   3  17
BRANCH   4  19
ATOM     19  O   UNL     1       5.745   4.140  16.123  0.00  0.00    +0.000 OA
ATOM     20  C   UNL     1       5.582   4.243  14.709  0.00  0.00    +0.000 C 
ENDBRANCH   4  19
BRANCH   5  21
ATOM     21  O   UNL     1       6.031   6.981  16.510  0.00  0.00    +0.000 OA
ATOM     22  C   UNL     1       7.244   7.205  17.218  0.00  0.00    +0.000 C 
ENDBRANCH   5  21
TORSDOF 6
ENDMDL
MODEL 9
REMARK VINA RESULT:      -6.6      1.639      3.368
REMARK  Name = 
REMARK  10 active torsions:
REMARK  status: ('A' for Active; 'I' for Inactive)
REMARK    1  A    between atoms: C_1  and  O_2
REMARK    2  A    between atoms: O_2  and  C_3
REMARK    3  A    between atoms: C_6  and  C_7
REMARK    4  A    between atoms: C_8  and  C_9
REMARK    5  A    between atoms: C_11  and  O_12
REMARK    6  A    between atoms: O_12  and  C_13
REMARK    7  A    between atoms: C_14  and  O_15
REMARK    8  A    between atoms: O_15  and  C_16
REMARK    9  A    between atoms: C_17  and  O_18
REMARK   10  A    between atoms: O_18  and  C_19
REMARK                            x       y       z     vdW  Elec       q    Type
REMARK                         _______ _______ _______ _____ _____    ______ ____
ROOT
ATOM      1  C   UNL     1       3.198   6.085  18.762  0.00  0.00    +0.000 A 
ATOM      2  C   UNL     1       4.168   6.820  18.099  0.00  0.00    +0.000 A 
ATOM      3  C   UNL     1       5.083   6.220  17.226  0.00  0.00    +0.000 A 
ATOM      4  C   UNL     1       5.028   4.822  16.995  0.00  0.00    +0.000 A 
ATOM      5  C   UNL     1       4.023   4.063  17.645  0.00  0.00    +0.000 A 
ATOM      6  C   UNL     1       3.130   4.710  18.530  0.00  0.00    +0.000 A 
ENDROOT
BRANCH   1   8
ATOM      7  C   UNL     1       1.949   8.063  19.463  0.00  0.00    +0.000 C 
ATOM      8  C   UNL     1       2.264   6.773  19.643  0.00  0.00    +0.000 C 
BRANCH   7  12
ATOM      9  C   UNL     1      -0.303  10.359  22.319  0.00  0.00    +0.000 A 
ATOM     10  C   UNL     1       0.565   9.350  22.728  0.00  0.00    +0.000 A 
ATOM     11  C   UNL     1       1.311   8.624  21.790  0.00  0.00    +0.000 A 
ATOM     12  C   UNL     1       1.169   8.871  20.420  0.00  0.00    +0.000 A 
ATOM     13  C   UNL     1       0.292   9.885  20.018  0.00  0.00    +0.000 A 
ATOM     14  C   UNL     1      -0.444  10.622  20.954  0.00  0.00    +0.000 A 
BRANCH   9  16
ATOM     15  C   UNL     1      -1.994  11.904  22.896  0.00  0.00    +0.000 C 
ATOM     16  O   UNL     1      -0.980  10.999  23.318  0.00  0.00    +0.000 OA
ENDBRANCH   9  16
ENDBRANCH   7  12
ENDBRANCH   1   8
BRANCH   3  17
ATOM     17  O   UNL     1       6.022   6.994  16.568  0.00  0.00    +0.000 OA
ATOM     18  C   UNL     1       7.168   7.338  17.356  0.00  0.00    +0.000 C 
ENDBRANCH   3  17
BRANCH   4  19
ATOM     19  O   UNL     1       5.943   4.313  16.090  0.00  0.00    +0.000 OA
ATOM     20  C   UNL     1       5.581   4.271  14.710  0.00  0.00    +0.000 C 
ENDBRANCH   4  19
BRANCH   5  21
ATOM     21  O   UNL     1       3.907   2.724  17.366  0.00  0.00    +0.000 OA
ATOM     22  C   UNL     1       2.770   2.025  17.859  0.00  0.00    +0.000 C 
ENDBRANCH   5  21
TORSDOF 6
ENDMDL
