MODEL 1
REMARK VINA RESULT:      -7.4      0.000      0.000
REMARK  Name = 
REMARK  5 active torsions:
REMARK  status: ('A' for Active; 'I' for Inactive)
REMARK    1  A    between atoms: N_1  and  C_2
REMARK    2  A    between atoms: N_10  and  C_11
REMARK    3  A    between atoms: C_14  and  C_15
REMARK    4  A    between atoms: C_15  and  C_16
REMARK    5  A    between atoms: N_18  and  O_19
REMARK                            x       y       z     vdW  Elec       q    Type
REMARK                         _______ _______ _______ _____ _____    ______ ____
ROOT
ATOM      1  C   UNL     1       2.073   3.093  20.299  0.00  0.00    +0.000 A 
ATOM      2  N   UNL     1       2.942   2.307  20.976  0.00  0.00    +0.000 NA
ATOM      3  C   UNL     1       4.243   2.330  20.611  0.00  0.00    +0.000 A 
ATOM      4  N   UNL     1       4.830   3.058  19.638  0.00  0.00    +0.000 NA
ATOM      5  C   UNL     1       3.927   3.834  19.014  0.00  0.00    +0.000 A 
ATOM      6  C   UNL     1       2.570   3.919  19.278  0.00  0.00    +0.000 A 
ATOM      7  N   UNL     1       1.966   4.838  18.443  0.00  0.00    +0.000 NA
ATOM      8  C   UNL     1       2.936   5.271  17.663  0.00  0.00    +0.000 A 
ATOM      9  N   UNL     1       4.140   4.690  17.963  0.00  0.00    +0.000 N 
ENDROOT
BRANCH   9  10
ATOM     10  C   UNL     1       5.411   4.846  17.277  0.00  0.00    +0.000 C 
ATOM     11  C   UNL     1       5.576   6.153  16.557  0.00  0.00    +0.000 C 
ATOM     12  C   UNL     1       5.573   6.007  15.228  0.00  0.00    +0.000 C 
ATOM     13  C   UNL     1       5.379   4.572  14.819  0.00  0.00    +0.000 C 
ATOM     14  C   UNL     1       5.603   3.820  16.146  0.00  0.00    +0.000 C 
BRANCH  13  15
ATOM     15  C   UNL     1       6.342   4.148  13.708  0.00  0.00    +0.000 C 
BRANCH  15  16
ATOM     16  C   UNL     1       5.661   3.357  12.608  0.00  0.00    +0.000 C 
ATOM     17  O   UNL     1       4.540   3.595  12.167  0.00  0.00    +0.000 OA
ATOM     18  N   UNL     1       6.411   2.299  12.150  0.00  0.00    +0.000 N 
ATOM     19  H   UNL     1       7.425   2.292  12.193  0.00  0.00    +0.000 HD
BRANCH  18  20
ATOM     20  O   UNL     1       5.834   1.575  11.076  0.00  0.00    +0.000 OA
ATOM     21  H   UNL     1       6.570   0.985  10.799  0.00  0.00    +0.000 HD
ENDBRANCH  18  20
ENDBRANCH  15  16
ENDBRANCH  13  15
ENDBRANCH   9  10
BRANCH   1  22
ATOM     22  N   UNL     1       0.732   3.044  20.655  0.00  0.00    +0.000 N 
ATOM     23  H   UNL     1       0.262   3.928  20.512  0.00  0.00    +0.000 HD
ATOM     24  H   UNL     1       0.263   2.198  20.352  0.00  0.00    +0.000 HD
ENDBRANCH   1  22
TORSDOF 5
ENDMDL
MODEL 2
REMARK VINA RESULT:      -7.1      1.169      1.722
REMARK  Name = 
REMARK  5 active torsions:
REMARK  status: ('A' for Active; 'I' for Inactive)
REMARK    1  A    between atoms: N_1  and  C_2
REMARK    2  A    between atoms: N_10  and  C_11
REMARK    3  A    between atoms: C_14  and  C_15
REMARK    4  A    between atoms: C_15  and  C_16
REMARK    5  A    between atoms: N_18  and  O_19
REMARK                            x       y       z     vdW  Elec       q    Type
REMARK                         _______ _______ _______ _____ _____    ______ ____
ROOT
ATOM      1  C   UNL     1       1.730   4.123  20.130  0.00  0.00    +0.000 A 
ATOM      2  N   UNL     1       1.780   5.437  20.448  0.00  0.00    +0.000 NA
ATOM      3  C   UNL     1       2.721   6.204  19.854  0.00  0.00    +0.000 A 
ATOM      4  N   UNL     1       3.649   5.840  18.946  0.00  0.00    +0.000 NA
ATOM      5  C   UNL     1       3.542   4.534  18.651  0.00  0.00    +0.000 A 
ATOM      6  C   UNL     1       2.631   3.629  19.173  0.00  0.00    +0.000 A 
ATOM      7  N   UNL     1       2.812   2.378  18.618  0.00  0.00    +0.000 NA
ATOM      8  C   UNL     1       3.840   2.517  17.804  0.00  0.00    +0.000 A 
ATOM      9  N   UNL     1       4.320   3.800  17.793  0.00  0.00    +0.000 N 
ENDROOT
BRANCH   9  10
ATOM     10  C   UNL     1       5.485   4.319  17.094  0.00  0.00    +0.000 C 
ATOM     11  C   UNL     1       5.317   5.706  16.547  0.00  0.00    +0.000 C 
ATOM     12  C   UNL     1       5.268   5.724  15.210  0.00  0.00    +0.000 C 
ATOM     13  C   UNL     1       5.369   4.342  14.624  0.00  0.00    +0.000 C 
ATOM     14  C   UNL     1       5.830   3.506  15.835  0.00  0.00    +0.000 C 
BRANCH  13  15
ATOM     15  C   UNL     1       6.335   4.282  13.438  0.00  0.00    +0.000 C 
BRANCH  15  16
ATOM     16  C   UNL     1       5.887   3.313  12.361  0.00  0.00    +0.000 C 
ATOM     17  O   UNL     1       4.787   3.334  11.817  0.00  0.00    +0.000 OA
ATOM     18  N   UNL     1       6.830   2.360  12.055  0.00  0.00    +0.000 N 
ATOM     19  H   UNL     1       7.824   2.520  12.177  0.00  0.00    +0.000 HD
BRANCH  18  20
ATOM     20  O   UNL     1       6.471   1.477  11.007  0.00  0.00    +0.000 OA
ATOM     21  H   UNL     1       6.712   0.598  11.378  0.00  0.00    +0.000 HD
ENDBRANCH  18  20
ENDBRANCH  15  16
ENDBRANCH  13  15
ENDBRANCH   9  10
BRANCH   1  22
ATOM     22  N   UNL     1       0.782   3.331  20.764  0.00  0.00    +0.000 N 
ATOM     23  H   UNL     1       1.180   2.775  21.509  0.00  0.00    +0.000 HD
ATOM     24  H   UNL     1      -0.094   3.809  20.939  0.00  0.00    +0.000 HD
ENDBRANCH   1  22
TORSDOF 5
ENDMDL
MODEL 3
REMARK VINA RESULT:      -7.0      3.870      6.614
REMARK  Name = 
REMARK  5 active torsions:
REMARK  status: ('A' for Active; 'I' for Inactive)
REMARK    1  A    between atoms: N_1  and  C_2
REMARK    2  A    between atoms: N_10  and  C_11
REMARK    3  A    between atoms: C_14  and  C_15
REMARK    4  A    between atoms: C_15  and  C_16
REMARK    5  A    between atoms: N_18  and  O_19
REMARK                            x       y       z     vdW  Elec       q    Type
REMARK                         _______ _______ _______ _____ _____    ______ ____
ROOT
ATOM      1  C   UNL     1       7.672   7.372  17.826  0.00  0.00    +0.000 A 
ATOM      2  N   UNL     1       8.325   6.866  18.897  0.00  0.00    +0.000 NA
ATOM      3  C   UNL     1       7.807   5.775  19.505  0.00  0.00    +0.000 A 
ATOM      4  N   UNL     1       6.696   5.082  19.182  0.00  0.00    +0.000 NA
ATOM      5  C   UNL     1       6.100   5.614  18.102  0.00  0.00    +0.000 A 
ATOM      6  C   UNL     1       6.512   6.720  17.376  0.00  0.00    +0.000 A 
ATOM      7  N   UNL     1       5.657   6.958  16.319  0.00  0.00    +0.000 NA
ATOM      8  C   UNL     1       4.723   6.034  16.429  0.00  0.00    +0.000 A 
ATOM      9  N   UNL     1       4.942   5.201  17.494  0.00  0.00    +0.000 N 
ENDROOT
BRANCH   9  10
ATOM     10  C   UNL     1       4.095   4.127  17.985  0.00  0.00    +0.000 C 
ATOM     11  C   UNL     1       2.930   3.795  17.098  0.00  0.00    +0.000 C 
ATOM     12  C   UNL     1       1.759   4.142  17.645  0.00  0.00    +0.000 C 
ATOM     13  C   UNL     1       1.936   4.794  18.989  0.00  0.00    +0.000 C 
ATOM     14  C   UNL     1       3.409   4.476  19.317  0.00  0.00    +0.000 C 
BRANCH  13  15
ATOM     15  C   UNL     1       0.950   4.258  20.030  0.00  0.00    +0.000 C 
BRANCH  15  16
ATOM     16  C   UNL     1       1.347   2.900  20.574  0.00  0.00    +0.000 C 
ATOM     17  O   UNL     1       1.349   1.859  19.922  0.00  0.00    +0.000 OA
ATOM     18  N   UNL     1       1.684   2.921  21.907  0.00  0.00    +0.000 N 
ATOM     19  H   UNL     1       2.054   3.749  22.361  0.00  0.00    +0.000 HD
BRANCH  18  20
ATOM     20  O   UNL     1       2.123   1.680  22.434  0.00  0.00    +0.000 OA
ATOM     21  H   UNL     1       1.296   1.307  22.815  0.00  0.00    +0.000 HD
ENDBRANCH  18  20
ENDBRANCH  15  16
ENDBRANCH  13  15
ENDBRANCH   9  10
BRANCH   1  22
ATOM     22  N   UNL     1       8.188   8.510  17.222  0.00  0.00    +0.000 N 
ATOM     23  H   UNL     1       8.125   9.326  17.816  0.00  0.00    +0.000 HD
ATOM     24  H   UNL     1       9.056   8.347  16.724  0.00  0.00    +0.000 HD
ENDBRANCH   1  22
TORSDOF 5
ENDMDL
MODEL 4
REMARK VINA RESULT:      -7.0      1.925      2.031
REMARK  Name = 
REMARK  5 active torsions:
REMARK  status: ('A' for Active; 'I' for Inactive)
REMARK    1  A    between atoms: N_1  and  C_2
REMARK    2  A    between atoms: N_10  and  C_11
REMARK    3  A    between atoms: C_14  and  C_15
REMARK    4  A    between atoms: C_15  and  C_16
REMARK    5  A    between atoms: N_18  and  O_19
REMARK                            x       y       z     vdW  Elec       q    Type
REMARK                         _______ _______ _______ _____ _____    ______ ____
ROOT
ATOM      1  C   UNL     1       2.125   2.996  20.715  0.00  0.00    +0.000 A 
ATOM      2  N   UNL     1       3.054   2.154  21.224  0.00  0.00    +0.000 NA
ATOM      3  C   UNL     1       4.316   2.230  20.746  0.00  0.00    +0.000 A 
ATOM      4  N   UNL     1       4.809   3.062  19.806  0.00  0.00    +0.000 NA
ATOM      5  C   UNL     1       3.852   3.888  19.351  0.00  0.00    +0.000 A 
ATOM      6  C   UNL     1       2.524   3.929  19.745  0.00  0.00    +0.000 A 
ATOM      7  N   UNL     1       1.844   4.923  19.069  0.00  0.00    +0.000 NA
ATOM      8  C   UNL     1       2.738   5.446  18.254  0.00  0.00    +0.000 A 
ATOM      9  N   UNL     1       3.965   4.850  18.381  0.00  0.00    +0.000 N 
ENDROOT
BRANCH   9  10
ATOM     10  C   UNL     1       5.168   5.092  17.601  0.00  0.00    +0.000 C 
ATOM     11  C   UNL     1       5.173   6.390  16.848  0.00  0.00    +0.000 C 
ATOM     12  C   UNL     1       5.088   6.212  15.524  0.00  0.00    +0.000 C 
ATOM     13  C   UNL     1       4.984   4.757  15.158  0.00  0.00    +0.000 C 
ATOM     14  C   UNL     1       5.362   4.057  16.479  0.00  0.00    +0.000 C 
BRANCH  13  15
ATOM     15  C   UNL     1       5.897   4.385  13.987  0.00  0.00    +0.000 C 
BRANCH  15  16
ATOM     16  C   UNL     1       7.315   4.895  14.159  0.00  0.00    +0.000 C 
ATOM     17  O   UNL     1       8.001   4.726  15.163  0.00  0.00    +0.000 OA
ATOM     18  N   UNL     1       7.774   5.612  13.079  0.00  0.00    +0.000 N 
ATOM     19  H   UNL     1       7.427   5.458  12.138  0.00  0.00    +0.000 HD
BRANCH  18  20
ATOM     20  O   UNL     1       9.118   6.049  13.177  0.00  0.00    +0.000 OA
ATOM     21  H   UNL     1       9.533   5.641  12.384  0.00  0.00    +0.000 HD
ENDBRANCH  18  20
ENDBRANCH  15  16
ENDBRANCH  13  15
ENDBRANCH   9  10
BRANCH   1  22
ATOM     22  N   UNL     1       0.822   2.895  21.185  0.00  0.00    +0.000 N 
ATOM     23  H   UNL     1       0.163   2.673  20.451  0.00  0.00    +0.000 HD
ATOM     24  H   UNL     1       0.746   2.395  22.064  0.00  0.00    +0.000 HD
ENDBRANCH   1  22
TORSDOF 5
ENDMDL
MODEL 5
REMARK VINA RESULT:      -6.9      4.502      6.299
REMARK  Name = 
REMARK  5 active torsions:
REMARK  status: ('A' for Active; 'I' for Inactive)
REMARK    1  A    between atoms: N_1  and  C_2
REMARK    2  A    between atoms: N_10  and  C_11
REMARK    3  A    between atoms: C_14  and  C_15
REMARK    4  A    between atoms: C_15  and  C_16
REMARK    5  A    between atoms: N_18  and  O_19
REMARK                            x       y       z     vdW  Elec       q    Type
REMARK                         _______ _______ _______ _____ _____    ______ ____
ROOT
ATOM      1  C   UNL     1       0.466  10.614  19.300  0.00  0.00    +0.000 A 
ATOM      2  N   UNL     1       0.090  10.537  20.598  0.00  0.00    +0.000 NA
ATOM      3  C   UNL     1       0.492   9.466  21.318  0.00  0.00    +0.000 A 
ATOM      4  N   UNL     1       1.252   8.425  20.920  0.00  0.00    +0.000 NA
ATOM      5  C   UNL     1       1.613   8.562  19.634  0.00  0.00    +0.000 A 
ATOM      6  C   UNL     1       1.283   9.599  18.776  0.00  0.00    +0.000 A 
ATOM      7  N   UNL     1       1.852   9.405  17.533  0.00  0.00    +0.000 NA
ATOM      8  C   UNL     1       2.482   8.252  17.628  0.00  0.00    +0.000 A 
ATOM      9  N   UNL     1       2.363   7.699  18.876  0.00  0.00    +0.000 N 
ENDROOT
BRANCH   9  10
ATOM     10  C   UNL     1       2.842   6.406  19.337  0.00  0.00    +0.000 C 
ATOM     11  C   UNL     1       3.787   5.719  18.395  0.00  0.00    +0.000 C 
ATOM     12  C   UNL     1       3.245   4.631  17.834  0.00  0.00    +0.000 C 
ATOM     13  C   UNL     1       1.827   4.413  18.284  0.00  0.00    +0.000 C 
ATOM     14  C   UNL     1       1.711   5.374  19.484  0.00  0.00    +0.000 C 
BRANCH  13  15
ATOM     15  C   UNL     1       1.549   2.952  18.643  0.00  0.00    +0.000 C 
BRANCH  15  16
ATOM     16  C   UNL     1       2.786   2.215  19.121  0.00  0.00    +0.000 C 
ATOM     17  O   UNL     1       3.305   2.365  20.223  0.00  0.00    +0.000 OA
ATOM     18  N   UNL     1       3.313   1.363  18.179  0.00  0.00    +0.000 N 
ATOM     19  H   UNL     1       2.746   0.935  17.455  0.00  0.00    +0.000 HD
BRANCH  18  20
ATOM     20  O   UNL     1       4.432   0.610  18.613  0.00  0.00    +0.000 OA
ATOM     21  H   UNL     1       4.029  -0.260  18.835  0.00  0.00    +0.000 HD
ENDBRANCH  18  20
ENDBRANCH  15  16
ENDBRANCH  13  15
ENDBRANCH   9  10
BRANCH   1  22
ATOM     22  N   UNL     1       0.026  11.699  18.553  0.00  0.00    +0.000 N 
ATOM     23  H   UNL     1      -0.086  11.474  17.574  0.00  0.00    +0.000 HD
ATOM     24  H   UNL     1      -0.705  12.234  19.008  0.00  0.00    +0.000 HD
ENDBRANCH   1  22
TORSDOF 5
ENDMDL
MODEL 6
REMARK VINA RESULT:      -6.8      4.118      5.166
REMARK  Name = 
REMARK  5 active torsions:
REMARK  status: ('A' for Active; 'I' for Inactive)
REMARK    1  A    between atoms: N_1  and  C_2
REMARK    2  A    between atoms: N_10  and  C_11
REMARK    3  A    between atoms: C_14  and  C_15
REMARK    4  A    between atoms: C_15  and  C_16
REMARK    5  A    between atoms: N_18  and  O_19
REMARK                            x       y       z     vdW  Elec       q    Type
REMARK                         _______ _______ _______ _____ _____    ______ ____
ROOT
ATOM      1  C   UNL     1       1.669   3.197  19.532  0.00  0.00    +0.000 A 
ATOM      2  N   UNL     1       1.986   1.955  19.098  0.00  0.00    +0.000 NA
ATOM      3  C   UNL     1       3.099   1.804  18.348  0.00  0.00    +0.000 A 
ATOM      4  N   UNL     1       3.985   2.745  17.960  0.00  0.00    +0.000 NA
ATOM      5  C   UNL     1       3.635   3.953  18.434  0.00  0.00    +0.000 A 
ATOM      6  C   UNL     1       2.531   4.259  19.213  0.00  0.00    +0.000 A 
ATOM      7  N   UNL     1       2.510   5.604  19.524  0.00  0.00    +0.000 NA
ATOM      8  C   UNL     1       3.563   6.107  18.911  0.00  0.00    +0.000 A 
ATOM      9  N   UNL     1       4.272   5.150  18.233  0.00  0.00    +0.000 N 
ENDROOT
BRANCH   9  10
ATOM     10  C   UNL     1       5.432   5.329  17.375  0.00  0.00    +0.000 C 
ATOM     11  C   UNL     1       6.715   4.798  17.943  0.00  0.00    +0.000 C 
ATOM     12  C   UNL     1       7.571   5.773  18.269  0.00  0.00    +0.000 C 
ATOM     13  C   UNL     1       6.998   7.137  17.999  0.00  0.00    +0.000 C 
ATOM     14  C   UNL     1       5.766   6.811  17.132  0.00  0.00    +0.000 C 
BRANCH  13  15
ATOM     15  C   UNL     1       8.001   8.064  17.308  0.00  0.00    +0.000 C 
BRANCH  15  16
ATOM     16  C   UNL     1       8.315   9.305  18.121  0.00  0.00    +0.000 C 
ATOM     17  O   UNL     1       7.974  10.445  17.815  0.00  0.00    +0.000 OA
ATOM     18  N   UNL     1       9.060   9.049  19.248  0.00  0.00    +0.000 N 
ATOM     19  H   UNL     1       9.034   8.154  19.725  0.00  0.00    +0.000 HD
BRANCH  18  20
ATOM     20  O   UNL     1       9.316  10.177  20.066  0.00  0.00    +0.000 OA
ATOM     21  H   UNL     1       9.283  10.919  19.421  0.00  0.00    +0.000 HD
ENDBRANCH  18  20
ENDBRANCH  15  16
ENDBRANCH  13  15
ENDBRANCH   9  10
BRANCH   1  22
ATOM     22  N   UNL     1       0.508   3.355  20.276  0.00  0.00    +0.000 N 
ATOM     23  H   UNL     1       0.638   3.967  21.070  0.00  0.00    +0.000 HD
ATOM     24  H   UNL     1      -0.323   3.478  19.709  0.00  0.00    +0.000 HD
ENDBRANCH   1  22
TORSDOF 5
ENDMDL
MODEL 7
REMARK VINA RESULT:      -6.8      1.344      1.451
REMARK  Name = 
REMARK  5 active torsions:
REMARK  status: ('A' for Active; 'I' for Inactive)
REMARK    1  A    between atoms: N_1  and  C_2
REMARK    2  A    between atoms: N_10  and  C_11
REMARK    3  A    between atoms: C_14  and  C_15
REMARK    4  A    between atoms: C_15  and  C_16
REMARK    5  A    between atoms: N_18  and  O_19
REMARK                            x       y       z     vdW  Elec       q    Type
REMARK                         _______ _______ _______ _____ _____    ______ ____
ROOT
ATOM      1  C   UNL     1       1.807   3.389  19.486  0.00  0.00    +0.000 A 
ATOM      2  N   UNL     1       1.731   2.149  18.949  0.00  0.00    +0.000 NA
ATOM      3  C   UNL     1       2.787   1.693  18.240  0.00  0.00    +0.000 A 
ATOM      4  N   UNL     1       3.958   2.313  17.986  0.00  0.00    +0.000 NA
ATOM      5  C   UNL     1       3.988   3.528  18.558  0.00  0.00    +0.000 A 
ATOM      6  C   UNL     1       2.991   4.125  19.312  0.00  0.00    +0.000 A 
ATOM      7  N   UNL     1       3.389   5.372  19.750  0.00  0.00    +0.000 NA
ATOM      8  C   UNL     1       4.591   5.540  19.237  0.00  0.00    +0.000 A 
ATOM      9  N   UNL     1       4.996   4.457  18.503  0.00  0.00    +0.000 N 
ENDROOT
BRANCH   9  10
ATOM     10  C   UNL     1       6.211   4.303  17.720  0.00  0.00    +0.000 C 
ATOM     11  C   UNL     1       6.979   5.575  17.504  0.00  0.00    +0.000 C 
ATOM     12  C   UNL     1       6.941   5.983  16.231  0.00  0.00    +0.000 C 
ATOM     13  C   UNL     1       6.115   5.067  15.371  0.00  0.00    +0.000 C 
ATOM     14  C   UNL     1       5.934   3.836  16.281  0.00  0.00    +0.000 C 
BRANCH  13  15
ATOM     15  C   UNL     1       6.799   4.745  14.039  0.00  0.00    +0.000 C 
BRANCH  15  16
ATOM     16  C   UNL     1       5.966   3.841  13.152  0.00  0.00    +0.000 C 
ATOM     17  O   UNL     1       4.751   3.937  13.000  0.00  0.00    +0.000 OA
ATOM     18  N   UNL     1       6.698   2.854  12.534  0.00  0.00    +0.000 N 
ATOM     19  H   UNL     1       7.686   2.960  12.325  0.00  0.00    +0.000 HD
BRANCH  18  20
ATOM     20  O   UNL     1       5.964   2.030  11.645  0.00  0.00    +0.000 OA
ATOM     21  H   UNL     1       5.049   2.377  11.742  0.00  0.00    +0.000 HD
ENDBRANCH  18  20
ENDBRANCH  15  16
ENDBRANCH  13  15
ENDBRANCH   9  10
BRANCH   1  22
ATOM     22  N   UNL     1       0.709   3.868  20.188  0.00  0.00    +0.000 N 
ATOM     23  H   UNL     1       0.415   3.237  20.922  0.00  0.00    +0.000 HD
ATOM     24  H   UNL     1       0.764   4.857  20.401  0.00  0.00    +0.000 HD
ENDBRANCH   1  22
TORSDOF 5
ENDMDL
MODEL 8
REMARK VINA RESULT:      -6.8      3.611      7.006
REMARK  Name = 
REMARK  5 active torsions:
REMARK  status: ('A' for Active; 'I' for Inactive)
REMARK    1  A    between atoms: N_1  and  C_2
REMARK    2  A    between atoms: N_10  and  C_11
REMARK    3  A    between atoms: C_14  and  C_15
REMARK    4  A    between atoms: C_15  and  C_16
REMARK    5  A    between atoms: N_18  and  O_19
REMARK                            x       y       z     vdW  Elec       q    Type
REMARK                         _______ _______ _______ _____ _____    ______ ____
ROOT
ATOM      1  C   UNL     1       7.373   5.100  14.047  0.00  0.00    +0.000 A 
ATOM      2  N   UNL     1       6.698   4.253  13.235  0.00  0.00    +0.000 NA
ATOM      3  C   UNL     1       5.636   3.590  13.743  0.00  0.00    +0.000 A 
ATOM      4  N   UNL     1       5.120   3.659  14.988  0.00  0.00    +0.000 NA
ATOM      5  C   UNL     1       5.813   4.527  15.744  0.00  0.00    +0.000 A 
ATOM      6  C   UNL     1       6.915   5.276  15.363  0.00  0.00    +0.000 A 
ATOM      7  N   UNL     1       7.349   6.072  16.404  0.00  0.00    +0.000 NA
ATOM      8  C   UNL     1       6.546   5.778  17.408  0.00  0.00    +0.000 A 
ATOM      9  N   UNL     1       5.605   4.846  17.062  0.00  0.00    +0.000 N 
ENDROOT
BRANCH   9  10
ATOM     10  C   UNL     1       4.610   4.213  17.911  0.00  0.00    +0.000 C 
ATOM     11  C   UNL     1       3.230   4.157  17.322  0.00  0.00    +0.000 C 
ATOM     12  C   UNL     1       2.372   4.961  17.959  0.00  0.00    +0.000 C 
ATOM     13  C   UNL     1       3.034   5.720  19.076  0.00  0.00    +0.000 C 
ATOM     14  C   UNL     1       4.378   4.980  19.224  0.00  0.00    +0.000 C 
BRANCH  13  15
ATOM     15  C   UNL     1       2.194   5.722  20.356  0.00  0.00    +0.000 C 
BRANCH  15  16
ATOM     16  C   UNL     1       1.637   4.354  20.698  0.00  0.00    +0.000 C 
ATOM     17  O   UNL     1       0.668   3.837  20.149  0.00  0.00    +0.000 OA
ATOM     18  N   UNL     1       2.305   3.732  21.727  0.00  0.00    +0.000 N 
ATOM     19  H   UNL     1       3.280   3.923  21.935  0.00  0.00    +0.000 HD
BRANCH  18  20
ATOM     20  O   UNL     1       1.853   2.424  22.031  0.00  0.00    +0.000 OA
ATOM     21  H   UNL     1       1.920   1.969  21.161  0.00  0.00    +0.000 HD
ENDBRANCH  18  20
ENDBRANCH  15  16
ENDBRANCH  13  15
ENDBRANCH   9  10
BRANCH   1  22
ATOM     22  N   UNL     1       8.483   5.756  13.533  0.00  0.00    +0.000 N 
ATOM     23  H   UNL     1       8.759   6.549  14.096  0.00  0.00    +0.000 HD
ATOM     24  H   UNL     1       9.208   5.128  13.203  0.00  0.00    +0.000 HD
ENDBRANCH   1  22
TORSDOF 5
ENDMDL
MODEL 9
REMARK VINA RESULT:      -6.7      3.281      4.676
REMARK  Name = 
REMARK  5 active torsions:
REMARK  status: ('A' for Active; 'I' for Inactive)
REMARK    1  A    between atoms: N_1  and  C_2
REMARK    2  A    between atoms: N_10  and  C_11
REMARK    3  A    between atoms: C_14  and  C_15
REMARK    4  A    between atoms: C_15  and  C_16
REMARK    5  A    between atoms: N_18  and  O_19
REMARK                            x       y       z     vdW  Elec       q    Type
REMARK                         _______ _______ _______ _____ _____    ______ ____
ROOT
ATOM      1  C   UNL     1       1.142   9.033  20.308  0.00  0.00    +0.000 A 
ATOM      2  N   UNL     1       1.141   9.987  19.348  0.00  0.00    +0.000 NA
ATOM      3  C   UNL     1       1.700   9.694  18.153  0.00  0.00    +0.000 A 
ATOM      4  N   UNL     1       2.272   8.539  17.755  0.00  0.00    +0.000 NA
ATOM      5  C   UNL     1       2.227   7.622  18.736  0.00  0.00    +0.000 A 
ATOM      6  C   UNL     1       1.688   7.775  20.003  0.00  0.00    +0.000 A 
ATOM      7  N   UNL     1       1.809   6.609  20.730  0.00  0.00    +0.000 NA
ATOM      8  C   UNL     1       2.444   5.777  19.929  0.00  0.00    +0.000 A 
ATOM      9  N   UNL     1       2.725   6.344  18.714  0.00  0.00    +0.000 N 
ENDROOT
BRANCH   9  10
ATOM     10  C   UNL     1       3.482   5.777  17.610  0.00  0.00    +0.000 C 
ATOM     11  C   UNL     1       3.516   4.277  17.582  0.00  0.00    +0.000 C 
ATOM     12  C   UNL     1       4.731   3.790  17.861  0.00  0.00    +0.000 C 
ATOM     13  C   UNL     1       5.722   4.882  18.152  0.00  0.00    +0.000 C 
ATOM     14  C   UNL     1       4.976   6.141  17.668  0.00  0.00    +0.000 C 
BRANCH  13  15
ATOM     15  C   UNL     1       7.061   4.657  17.445  0.00  0.00    +0.000 C 
BRANCH  15  16
ATOM     16  C   UNL     1       6.926   4.583  15.936  0.00  0.00    +0.000 C 
ATOM     17  O   UNL     1       6.306   3.712  15.332  0.00  0.00    +0.000 OA
ATOM     18  N   UNL     1       7.600   5.583  15.276  0.00  0.00    +0.000 N 
ATOM     19  H   UNL     1       7.785   6.486  15.701  0.00  0.00    +0.000 HD
BRANCH  18  20
ATOM     20  O   UNL     1       7.443   5.584  13.868  0.00  0.00    +0.000 OA
ATOM     21  H   UNL     1       7.732   4.677  13.622  0.00  0.00    +0.000 HD
ENDBRANCH  18  20
ENDBRANCH  15  16
ENDBRANCH  13  15
ENDBRANCH   9  10
BRANCH   1  22
ATOM     22  N   UNL     1       0.596   9.347  21.545  0.00  0.00    +0.000 N 
ATOM     23  H   UNL     1      -0.298   9.812  21.465  0.00  0.00    +0.000 HD
ATOM     24  H   UNL     1       0.690   8.605  22.229  0.00  0.00    +0.000 HD
ENDBRANCH   1  22
TORSDOF 5
ENDMDL
