MODEL 1
REMARK VINA RESULT:      -6.8      0.000      0.000
REMARK  Name = 
REMARK  10 active torsions:
REMARK  status: ('A' for Active; 'I' for Inactive)
REMARK    1  A    between atoms: C_1  and  C_2
REMARK    2  A    between atoms: N_4  and  C_5
REMARK    3  A    between atoms: C_8  and  S_9
REMARK    4  A    between atoms: S_9  and  N_12
REMARK    5  A    between atoms: C_16  and  C_18
REMARK    6  A    between atoms: C_18  and  C_19
REMARK    7  A    between atoms: C_19  and  N_20
REMARK    8  A    between atoms: N_20  and  C_21
REMARK    9  A    between atoms: C_21  and  C_22
REMARK   10  A    between atoms: C_28  and  C_29
REMARK                            x       y       z     vdW  Elec       q    Type
REMARK                         _______ _______ _______ _____ _____    ______ ____
ROOT
ATOM      1  N   UNL     1       0.419  10.500  19.345  0.00  0.00    +0.000 NA
ATOM      2  C   UNL     1      -0.941  10.587  18.741  0.00  0.00    +0.000 C 
ATOM      3  C   UNL     1      -1.874  11.510  19.526  0.00  0.00    +0.000 C 
ATOM      4  N   UNL     1      -1.302  12.818  19.874  0.00  0.00    +0.000 N 
ATOM      5  C   UNL     1      -2.212  13.715  20.442  0.00  0.00    +0.000 C 
ATOM      6  O   UNL     1      -3.423  13.485  20.460  0.00  0.00    +0.000 OA
ATOM      7  C   UNL     1       0.133  12.859  20.198  0.00  0.00    +0.000 C 
ATOM      8  C   UNL     1       1.012  11.871  19.411  0.00  0.00    +0.000 C 
ENDROOT
BRANCH   1   9
ATOM      9  S   UNL     1       0.619   9.562  20.759  0.00  0.00    +0.000 S 
ATOM     10  O   UNL     1      -0.695   9.165  21.217  0.00  0.00    +0.000 OA
ATOM     11  O   UNL     1       1.526  10.270  21.636  0.00  0.00    +0.000 OA
BRANCH   9  15
ATOM     12  C   UNL     1       2.629   5.734  19.134  0.00  0.00    +0.000 A 
ATOM     13  C   UNL     1       2.681   6.940  18.425  0.00  0.00    +0.000 A 
ATOM     14  C   UNL     1       2.105   8.116  18.936  0.00  0.00    +0.000 A 
ATOM     15  C   UNL     1       1.468   8.096  20.177  0.00  0.00    +0.000 A 
ATOM     16  C   UNL     1       1.477   6.923  20.938  0.00  0.00    +0.000 A 
ATOM     17  C   UNL     1       2.050   5.749  20.413  0.00  0.00    +0.000 A 
BRANCH  12  21
ATOM     18  C   UNL     1       3.132   2.297  17.631  0.00  0.00    +0.000 C 
ATOM     19  C   UNL     1       2.362   3.566  17.900  0.00  0.00    +0.000 C 
ATOM     20  O   UNL     1       1.204   3.681  17.517  0.00  0.00    +0.000 OA
ATOM     21  N   UNL     1       3.096   4.491  18.625  0.00  0.00    +0.000 N 
ATOM     22  H   UNL     1       4.045   4.236  18.866  0.00  0.00    +0.000 HD
ENDBRANCH  12  21
ENDBRANCH   9  15
ENDBRANCH   1   9
BRANCH   5  23
ATOM     23  C   UNL     1      -1.701  15.043  20.974  0.00  0.00    +0.000 C 
BRANCH  23  24
ATOM     24  C   UNL     1      -2.182  15.227  22.408  0.00  0.00    +0.000 C 
BRANCH  24  25
ATOM     25  N   UNL     1      -2.162  13.949  23.136  0.00  0.00    +0.000 NA
ATOM     26  H   UNL     1      -1.207  13.737  23.430  0.00  0.00    +0.000 HD
BRANCH  25  27
ATOM     27  C   UNL     1      -3.000  14.054  24.345  0.00  0.00    +0.000 C 
BRANCH  27  28
ATOM     28  C   UNL     1      -4.272  13.204  24.224  0.00  0.00    +0.000 C 
ATOM     29  O   UNL     1      -4.234  11.997  24.477  0.00  0.00    +0.000 OA
ATOM     30  N   UNL     1      -5.457  13.831  23.898  0.00  0.00    +0.000 N 
ATOM     31  C   UNL     1      -6.715  13.106  23.944  0.00  0.00    +0.000 C 
ATOM     32  C   UNL     1      -7.771  14.190  23.825  0.00  0.00    +0.000 C 
ATOM     33  C   UNL     1      -7.106  15.187  22.880  0.00  0.00    +0.000 C 
ATOM     34  C   UNL     1      -5.632  15.171  23.317  0.00  0.00    +0.000 C 
BRANCH  34  35
ATOM     35  C   UNL     1      -5.371  16.257  24.284  0.00  0.00    +0.000 C 
ATOM     36  N   UNL     1      -5.167  17.119  25.036  0.00  0.00    +0.000 NA
ENDBRANCH  34  35
ENDBRANCH  27  28
ENDBRANCH  25  27
ENDBRANCH  24  25
ENDBRANCH  23  24
ENDBRANCH   5  23
TORSDOF 9
ENDMDL
MODEL 2
REMARK VINA RESULT:      -6.7      2.811     11.734
REMARK  Name = 
REMARK  10 active torsions:
REMARK  status: ('A' for Active; 'I' for Inactive)
REMARK    1  A    between atoms: C_1  and  C_2
REMARK    2  A    between atoms: N_4  and  C_5
REMARK    3  A    between atoms: C_8  and  S_9
REMARK    4  A    between atoms: S_9  and  N_12
REMARK    5  A    between atoms: C_16  and  C_18
REMARK    6  A    between atoms: C_18  and  C_19
REMARK    7  A    between atoms: C_19  and  N_20
REMARK    8  A    between atoms: N_20  and  C_21
REMARK    9  A    between atoms: C_21  and  C_22
REMARK   10  A    between atoms: C_28  and  C_29
REMARK                            x       y       z     vdW  Elec       q    Type
REMARK                         _______ _______ _______ _____ _____    ______ ____
ROOT
ATOM      1  N   UNL     1      -0.631   9.966  20.923  0.00  0.00    +0.000 NA
ATOM      2  C   UNL     1      -0.393  10.113  19.459  0.00  0.00    +0.000 C 
ATOM      3  C   UNL     1       0.960   9.547  19.024  0.00  0.00    +0.000 C 
ATOM      4  N   UNL     1       1.262   8.203  19.536  0.00  0.00    +0.000 N 
ATOM      5  C   UNL     1       2.419   7.628  19.002  0.00  0.00    +0.000 C 
ATOM      6  O   UNL     1       3.011   8.132  18.045  0.00  0.00    +0.000 OA
ATOM      7  C   UNL     1       0.787   7.878  20.890  0.00  0.00    +0.000 C 
ATOM      8  C   UNL     1      -0.555   8.518  21.287  0.00  0.00    +0.000 C 
ENDROOT
BRANCH   1   9
ATOM      9  S   UNL     1       0.193  11.018  21.987  0.00  0.00    +0.000 S 
ATOM     10  O   UNL     1       1.223  11.697  21.229  0.00  0.00    +0.000 OA
ATOM     11  O   UNL     1       0.522  10.272  23.181  0.00  0.00    +0.000 OA
BRANCH   9  15
ATOM     12  C   UNL     1      -3.145  14.053  22.976  0.00  0.00    +0.000 A 
ATOM     13  C   UNL     1      -3.162  12.756  23.503  0.00  0.00    +0.000 A 
ATOM     14  C   UNL     1      -2.127  11.844  23.236  0.00  0.00    +0.000 A 
ATOM     15  C   UNL     1      -1.051  12.227  22.434  0.00  0.00    +0.000 A 
ATOM     16  C   UNL     1      -0.974  13.542  21.966  0.00  0.00    +0.000 A 
ATOM     17  C   UNL     1      -2.021  14.445  22.233  0.00  0.00    +0.000 A 
BRANCH  12  21
ATOM     18  C   UNL     1      -5.738  16.578  24.085  0.00  0.00    +0.000 C 
ATOM     19  C   UNL     1      -4.444  15.811  24.207  0.00  0.00    +0.000 C 
ATOM     20  O   UNL     1      -3.744  15.934  25.204  0.00  0.00    +0.000 OA
ATOM     21  N   UNL     1      -4.211  14.984  23.120  0.00  0.00    +0.000 N 
ATOM     22  H   UNL     1      -4.896  15.000  22.376  0.00  0.00    +0.000 HD
ENDBRANCH  12  21
ENDBRANCH   9  15
ENDBRANCH   1   9
BRANCH   5  23
ATOM     23  C   UNL     1       2.909   6.305  19.563  0.00  0.00    +0.000 C 
BRANCH  23  24
ATOM     24  C   UNL     1       2.373   5.167  18.703  0.00  0.00    +0.000 C 
BRANCH  24  25
ATOM     25  N   UNL     1       3.134   5.054  17.450  0.00  0.00    +0.000 NA
ATOM     26  H   UNL     1       3.622   5.931  17.265  0.00  0.00    +0.000 HD
BRANCH  25  27
ATOM     27  C   UNL     1       4.144   3.987  17.577  0.00  0.00    +0.000 C 
BRANCH  27  28
ATOM     28  C   UNL     1       5.207   4.339  18.628  0.00  0.00    +0.000 C 
ATOM     29  O   UNL     1       5.288   3.681  19.667  0.00  0.00    +0.000 OA
ATOM     30  N   UNL     1       6.101   5.352  18.348  0.00  0.00    +0.000 N 
ATOM     31  C   UNL     1       7.229   5.606  19.226  0.00  0.00    +0.000 C 
ATOM     32  C   UNL     1       8.108   6.557  18.433  0.00  0.00    +0.000 C 
ATOM     33  C   UNL     1       7.080   7.402  17.686  0.00  0.00    +0.000 C 
ATOM     34  C   UNL     1       5.985   6.389  17.310  0.00  0.00    +0.000 C 
BRANCH  34  35
ATOM     35  C   UNL     1       6.213   5.868  15.947  0.00  0.00    +0.000 C 
ATOM     36  N   UNL     1       6.395   5.448  14.879  0.00  0.00    +0.000 NA
ENDBRANCH  34  35
ENDBRANCH  27  28
ENDBRANCH  25  27
ENDBRANCH  24  25
ENDBRANCH  23  24
ENDBRANCH   5  23
TORSDOF 9
ENDMDL
MODEL 3
REMARK VINA RESULT:      -6.5      2.514     11.446
REMARK  Name = 
REMARK  10 active torsions:
REMARK  status: ('A' for Active; 'I' for Inactive)
REMARK    1  A    between atoms: C_1  and  C_2
REMARK    2  A    between atoms: N_4  and  C_5
REMARK    3  A    between atoms: C_8  and  S_9
REMARK    4  A    between atoms: S_9  and  N_12
REMARK    5  A    between atoms: C_16  and  C_18
REMARK    6  A    between atoms: C_18  and  C_19
REMARK    7  A    between atoms: C_19  and  N_20
REMARK    8  A    between atoms: N_20  and  C_21
REMARK    9  A    between atoms: C_21  and  C_22
REMARK   10  A    between atoms: C_28  and  C_29
REMARK                            x       y       z     vdW  Elec       q    Type
REMARK                         _______ _______ _______ _____ _____    ______ ____
ROOT
ATOM      1  N   UNL     1      -0.776   9.946  21.144  0.00  0.00    +0.000 NA
ATOM      2  C   UNL     1      -0.916  10.390  19.728  0.00  0.00    +0.000 C 
ATOM      3  C   UNL     1       0.385  10.246  18.936  0.00  0.00    +0.000 C 
ATOM      4  N   UNL     1       1.057   8.947  19.080  0.00  0.00    +0.000 N 
ATOM      5  C   UNL     1       2.150   8.764  18.228  0.00  0.00    +0.000 C 
ATOM      6  O   UNL     1       2.393   9.549  17.308  0.00  0.00    +0.000 OA
ATOM      7  C   UNL     1       0.981   8.294  20.397  0.00  0.00    +0.000 C 
ATOM      8  C   UNL     1      -0.332   8.519  21.166  0.00  0.00    +0.000 C 
ENDROOT
BRANCH   1   9
ATOM      9  S   UNL     1       0.047  10.970  22.236  0.00  0.00    +0.000 S 
ATOM     10  O   UNL     1       1.096  11.647  21.504  0.00  0.00    +0.000 OA
ATOM     11  O   UNL     1       0.349  10.202  23.423  0.00  0.00    +0.000 OA
BRANCH   9  15
ATOM     12  C   UNL     1      -3.029  14.141  23.586  0.00  0.00    +0.000 A 
ATOM     13  C   UNL     1      -1.828  14.510  22.967  0.00  0.00    +0.000 A 
ATOM     14  C   UNL     1      -0.909  13.546  22.519  0.00  0.00    +0.000 A 
ATOM     15  C   UNL     1      -1.188  12.188  22.684  0.00  0.00    +0.000 A 
ATOM     16  C   UNL     1      -2.417  11.798  23.225  0.00  0.00    +0.000 A 
ATOM     17  C   UNL     1      -3.327  12.772  23.677  0.00  0.00    +0.000 A 
BRANCH  12  21
ATOM     18  C   UNL     1      -4.933  17.121  24.934  0.00  0.00    +0.000 C 
ATOM     19  C   UNL     1      -3.860  16.448  24.115  0.00  0.00    +0.000 C 
ATOM     20  O   UNL     1      -3.015  17.117  23.531  0.00  0.00    +0.000 OA
ATOM     21  N   UNL     1      -3.947  15.066  24.156  0.00  0.00    +0.000 N 
ATOM     22  H   UNL     1      -4.709  14.670  24.691  0.00  0.00    +0.000 HD
ENDBRANCH  12  21
ENDBRANCH   9  15
ENDBRANCH   1   9
BRANCH   5  23
ATOM     23  C   UNL     1       3.008   7.521  18.389  0.00  0.00    +0.000 C 
BRANCH  23  24
ATOM     24  C   UNL     1       3.702   7.217  17.067  0.00  0.00    +0.000 C 
BRANCH  24  25
ATOM     25  N   UNL     1       5.057   6.693  17.295  0.00  0.00    +0.000 NA
ATOM     26  H   UNL     1       5.315   6.823  18.275  0.00  0.00    +0.000 HD
BRANCH  25  27
ATOM     27  C   UNL     1       5.086   5.248  17.003  0.00  0.00    +0.000 C 
BRANCH  27  28
ATOM     28  C   UNL     1       5.358   4.423  18.269  0.00  0.00    +0.000 C 
ATOM     29  O   UNL     1       6.331   4.686  18.979  0.00  0.00    +0.000 OA
ATOM     30  N   UNL     1       4.457   3.439  18.623  0.00  0.00    +0.000 N 
ATOM     31  C   UNL     1       4.574   2.753  19.897  0.00  0.00    +0.000 C 
ATOM     32  C   UNL     1       3.263   1.998  20.031  0.00  0.00    +0.000 C 
ATOM     33  C   UNL     1       2.969   1.601  18.588  0.00  0.00    +0.000 C 
ATOM     34  C   UNL     1       3.421   2.827  17.777  0.00  0.00    +0.000 C 
BRANCH  34  35
ATOM     35  C   UNL     1       2.277   3.726  17.524  0.00  0.00    +0.000 C 
ATOM     36  N   UNL     1       1.371   4.427  17.331  0.00  0.00    +0.000 NA
ENDBRANCH  34  35
ENDBRANCH  27  28
ENDBRANCH  25  27
ENDBRANCH  24  25
ENDBRANCH  23  24
ENDBRANCH   5  23
TORSDOF 9
ENDMDL
MODEL 4
REMARK VINA RESULT:      -6.5      2.167     11.052
REMARK  Name = 
REMARK  10 active torsions:
REMARK  status: ('A' for Active; 'I' for Inactive)
REMARK    1  A    between atoms: C_1  and  C_2
REMARK    2  A    between atoms: N_4  and  C_5
REMARK    3  A    between atoms: C_8  and  S_9
REMARK    4  A    between atoms: S_9  and  N_12
REMARK    5  A    between atoms: C_16  and  C_18
REMARK    6  A    between atoms: C_18  and  C_19
REMARK    7  A    between atoms: C_19  and  N_20
REMARK    8  A    between atoms: N_20  and  C_21
REMARK    9  A    between atoms: C_21  and  C_22
REMARK   10  A    between atoms: C_28  and  C_29
REMARK                            x       y       z     vdW  Elec       q    Type
REMARK                         _______ _______ _______ _____ _____    ______ ____
ROOT
ATOM      1  N   UNL     1       0.592  11.889  19.785  0.00  0.00    +0.000 NA
ATOM      2  C   UNL     1       0.969  11.026  20.940  0.00  0.00    +0.000 C 
ATOM      3  C   UNL     1       1.076   9.549  20.560  0.00  0.00    +0.000 C 
ATOM      4  N   UNL     1       1.859   9.278  19.346  0.00  0.00    +0.000 N 
ATOM      5  C   UNL     1       2.092   7.922  19.099  0.00  0.00    +0.000 C 
ATOM      6  O   UNL     1       1.829   7.056  19.936  0.00  0.00    +0.000 OA
ATOM      7  C   UNL     1       1.767  10.261  18.255  0.00  0.00    +0.000 C 
ATOM      8  C   UNL     1       1.609  11.725  18.702  0.00  0.00    +0.000 C 
ENDROOT
BRANCH   1   9
ATOM      9  S   UNL     1      -1.032  11.868  19.255  0.00  0.00    +0.000 S 
ATOM     10  O   UNL     1      -1.575  10.558  19.542  0.00  0.00    +0.000 OA
ATOM     11  O   UNL     1      -1.067  12.407  17.913  0.00  0.00    +0.000 OA
BRANCH   9  15
ATOM     12  C   UNL     1      -2.948  14.898  22.167  0.00  0.00    +0.000 A 
ATOM     13  C   UNL     1      -2.013  15.304  21.207  0.00  0.00    +0.000 A 
ATOM     14  C   UNL     1      -1.459  14.391  20.293  0.00  0.00    +0.000 A 
ATOM     15  C   UNL     1      -1.843  13.050  20.330  0.00  0.00    +0.000 A 
ATOM     16  C   UNL     1      -2.835  12.641  21.226  0.00  0.00    +0.000 A 
ATOM     17  C   UNL     1      -3.378  13.563  22.141  0.00  0.00    +0.000 A 
BRANCH  12  21
ATOM     18  C   UNL     1      -4.958  16.751  24.784  0.00  0.00    +0.000 C 
ATOM     19  C   UNL     1      -4.662  15.595  23.862  0.00  0.00    +0.000 C 
ATOM     20  O   UNL     1      -5.458  14.671  23.751  0.00  0.00    +0.000 OA
ATOM     21  N   UNL     1      -3.463  15.749  23.185  0.00  0.00    +0.000 N 
ATOM     22  H   UNL     1      -2.922  16.578  23.392  0.00  0.00    +0.000 HD
ENDBRANCH  12  21
ENDBRANCH   9  15
ENDBRANCH   1   9
BRANCH   5  23
ATOM     23  C   UNL     1       2.763   7.517  17.798  0.00  0.00    +0.000 C 
BRANCH  23  24
ATOM     24  C   UNL     1       3.844   6.484  18.092  0.00  0.00    +0.000 C 
BRANCH  24  25
ATOM     25  N   UNL     1       3.986   5.539  16.974  0.00  0.00    +0.000 NA
ATOM     26  H   UNL     1       4.941   5.574  16.615  0.00  0.00    +0.000 HD
BRANCH  25  27
ATOM     27  C   UNL     1       3.725   4.167  17.449  0.00  0.00    +0.000 C 
BRANCH  27  28
ATOM     28  C   UNL     1       2.301   4.025  18.005  0.00  0.00    +0.000 C 
ATOM     29  O   UNL     1       1.330   4.147  17.255  0.00  0.00    +0.000 OA
ATOM     30  N   UNL     1       2.142   3.692  19.335  0.00  0.00    +0.000 N 
ATOM     31  C   UNL     1       0.828   3.374  19.865  0.00  0.00    +0.000 C 
ATOM     32  C   UNL     1       1.116   2.782  21.234  0.00  0.00    +0.000 C 
ATOM     33  C   UNL     1       2.322   3.595  21.691  0.00  0.00    +0.000 C 
ATOM     34  C   UNL     1       3.147   3.772  20.405  0.00  0.00    +0.000 C 
BRANCH  34  35
ATOM     35  C   UNL     1       4.179   2.719  20.307  0.00  0.00    +0.000 C 
ATOM     36  N   UNL     1       4.996   1.896  20.238  0.00  0.00    +0.000 NA
ENDBRANCH  34  35
ENDBRANCH  27  28
ENDBRANCH  25  27
ENDBRANCH  24  25
ENDBRANCH  23  24
ENDBRANCH   5  23
TORSDOF 9
ENDMDL
MODEL 5
REMARK VINA RESULT:      -6.4      4.383      7.588
REMARK  Name = 
REMARK  10 active torsions:
REMARK  status: ('A' for Active; 'I' for Inactive)
REMARK    1  A    between atoms: C_1  and  C_2
REMARK    2  A    between atoms: N_4  and  C_5
REMARK    3  A    between atoms: C_8  and  S_9
REMARK    4  A    between atoms: S_9  and  N_12
REMARK    5  A    between atoms: C_16  and  C_18
REMARK    6  A    between atoms: C_18  and  C_19
REMARK    7  A    between atoms: C_19  and  N_20
REMARK    8  A    between atoms: N_20  and  C_21
REMARK    9  A    between atoms: C_21  and  C_22
REMARK   10  A    between atoms: C_28  and  C_29
REMARK                            x       y       z     vdW  Elec       q    Type
REMARK                         _______ _______ _______ _____ _____    ______ ____
ROOT
ATOM      1  N   UNL     1       2.026   2.725  19.170  0.00  0.00    +0.000 NA
ATOM      2  C   UNL     1       1.671   3.541  20.365  0.00  0.00    +0.000 C 
ATOM      3  C   UNL     1       2.221   4.966  20.290  0.00  0.00    +0.000 C 
ATOM      4  N   UNL     1       1.978   5.656  19.016  0.00  0.00    +0.000 N 
ATOM      5  C   UNL     1       2.335   7.008  19.014  0.00  0.00    +0.000 C 
ATOM      6  O   UNL     1       2.639   7.600  20.052  0.00  0.00    +0.000 OA
ATOM      7  C   UNL     1       2.018   4.841  17.792  0.00  0.00    +0.000 C 
ATOM      8  C   UNL     1       1.498   3.401  17.945  0.00  0.00    +0.000 C 
ENDROOT
BRANCH   1   9
ATOM      9  S   UNL     1       3.626   2.141  19.035  0.00  0.00    +0.000 S 
ATOM     10  O   UNL     1       3.669   1.221  17.919  0.00  0.00    +0.000 OA
ATOM     11  O   UNL     1       4.060   1.730  20.351  0.00  0.00    +0.000 OA
BRANCH   9  15
ATOM     12  C   UNL     1       5.879   6.017  17.924  0.00  0.00    +0.000 A 
ATOM     13  C   UNL     1       5.786   5.586  19.253  0.00  0.00    +0.000 A 
ATOM     14  C   UNL     1       5.135   4.386  19.589  0.00  0.00    +0.000 A 
ATOM     15  C   UNL     1       4.570   3.596  18.587  0.00  0.00    +0.000 A 
ATOM     16  C   UNL     1       4.724   3.967  17.247  0.00  0.00    +0.000 A 
ATOM     17  C   UNL     1       5.371   5.175  16.923  0.00  0.00    +0.000 A 
BRANCH  12  21
ATOM     18  C   UNL     1       7.848   9.213  17.436  0.00  0.00    +0.000 C 
ATOM     19  C   UNL     1       7.637   7.808  17.943  0.00  0.00    +0.000 C 
ATOM     20  O   UNL     1       8.472   7.277  18.665  0.00  0.00    +0.000 OA
ATOM     21  N   UNL     1       6.428   7.270  17.532  0.00  0.00    +0.000 N 
ATOM     22  H   UNL     1       5.848   7.846  16.936  0.00  0.00    +0.000 HD
ENDBRANCH  12  21
ENDBRANCH   9  15
ENDBRANCH   1   9
BRANCH   5  23
ATOM     23  C   UNL     1       2.264   7.785  17.711  0.00  0.00    +0.000 C 
BRANCH  23  24
ATOM     24  C   UNL     1       2.069   9.264  18.019  0.00  0.00    +0.000 C 
BRANCH  24  25
ATOM     25  N   UNL     1       0.871   9.474  18.847  0.00  0.00    +0.000 NA
ATOM     26  H   UNL     1       1.085  10.131  19.599  0.00  0.00    +0.000 HD
BRANCH  25  27
ATOM     27  C   UNL     1      -0.206  10.055  18.024  0.00  0.00    +0.000 C 
BRANCH  27  28
ATOM     28  C   UNL     1      -1.143  10.936  18.863  0.00  0.00    +0.000 C 
ATOM     29  O   UNL     1      -0.692  11.596  19.802  0.00  0.00    +0.000 OA
ATOM     30  N   UNL     1      -2.470  11.023  18.497  0.00  0.00    +0.000 N 
ATOM     31  C   UNL     1      -3.355  11.974  19.145  0.00  0.00    +0.000 C 
ATOM     32  C   UNL     1      -4.600  11.972  18.276  0.00  0.00    +0.000 C 
ATOM     33  C   UNL     1      -4.683  10.514  17.832  0.00  0.00    +0.000 C 
ATOM     34  C   UNL     1      -3.214  10.124  17.600  0.00  0.00    +0.000 C 
BRANCH  34  35
ATOM     35  C   UNL     1      -2.853  10.301  16.179  0.00  0.00    +0.000 C 
ATOM     36  N   UNL     1      -2.579  10.434  15.057  0.00  0.00    +0.000 NA
ENDBRANCH  34  35
ENDBRANCH  27  28
ENDBRANCH  25  27
ENDBRANCH  24  25
ENDBRANCH  23  24
ENDBRANCH   5  23
TORSDOF 9
ENDMDL
MODEL 6
REMARK VINA RESULT:      -6.3      6.023     11.432
REMARK  Name = 
REMARK  10 active torsions:
REMARK  status: ('A' for Active; 'I' for Inactive)
REMARK    1  A    between atoms: C_1  and  C_2
REMARK    2  A    between atoms: N_4  and  C_5
REMARK    3  A    between atoms: C_8  and  S_9
REMARK    4  A    between atoms: S_9  and  N_12
REMARK    5  A    between atoms: C_16  and  C_18
REMARK    6  A    between atoms: C_18  and  C_19
REMARK    7  A    between atoms: C_19  and  N_20
REMARK    8  A    between atoms: N_20  and  C_21
REMARK    9  A    between atoms: C_21  and  C_22
REMARK   10  A    between atoms: C_28  and  C_29
REMARK                            x       y       z     vdW  Elec       q    Type
REMARK                         _______ _______ _______ _____ _____    ______ ____
ROOT
ATOM      1  N   UNL     1       0.612  13.072  19.414  0.00  0.00    +0.000 NA
ATOM      2  C   UNL     1       0.202  14.433  18.966  0.00  0.00    +0.000 C 
ATOM      3  C   UNL     1       1.346  15.446  19.040  0.00  0.00    +0.000 C 
ATOM      4  N   UNL     1       2.614  14.992  18.452  0.00  0.00    +0.000 N 
ATOM      5  C   UNL     1       3.601  15.978  18.375  0.00  0.00    +0.000 C 
ATOM      6  O   UNL     1       3.352  17.164  18.600  0.00  0.00    +0.000 OA
ATOM      7  C   UNL     1       2.950  13.567  18.599  0.00  0.00    +0.000 C 
ATOM      8  C   UNL     1       1.751  12.603  18.567  0.00  0.00    +0.000 C 
ENDROOT
BRANCH   1   9
ATOM      9  S   UNL     1       0.800  12.794  21.089  0.00  0.00    +0.000 S 
ATOM     10  O   UNL     1       1.571  13.889  21.636  0.00  0.00    +0.000 OA
ATOM     11  O   UNL     1       1.229  11.424  21.265  0.00  0.00    +0.000 OA
BRANCH   9  15
ATOM     12  C   UNL     1      -3.534  13.298  22.604  0.00  0.00    +0.000 A 
ATOM     13  C   UNL     1      -3.254  12.599  21.423  0.00  0.00    +0.000 A 
ATOM     14  C   UNL     1      -1.933  12.410  20.981  0.00  0.00    +0.000 A 
ATOM     15  C   UNL     1      -0.869  12.920  21.727  0.00  0.00    +0.000 A 
ATOM     16  C   UNL     1      -1.124  13.548  22.951  0.00  0.00    +0.000 A 
ATOM     17  C   UNL     1      -2.451  13.738  23.380  0.00  0.00    +0.000 A 
BRANCH  12  21
ATOM     18  C   UNL     1      -7.005  13.447  24.108  0.00  0.00    +0.000 C 
ATOM     19  C   UNL     1      -5.604  12.906  23.968  0.00  0.00    +0.000 C 
ATOM     20  O   UNL     1      -5.253  11.922  24.608  0.00  0.00    +0.000 OA
ATOM     21  N   UNL     1      -4.849  13.615  23.047  0.00  0.00    +0.000 N 
ATOM     22  H   UNL     1      -5.293  14.406  22.601  0.00  0.00    +0.000 HD
ENDBRANCH  12  21
ENDBRANCH   9  15
ENDBRANCH   1   9
BRANCH   5  23
ATOM     23  C   UNL     1       4.997  15.587  17.919  0.00  0.00    +0.000 C 
BRANCH  23  24
ATOM     24  C   UNL     1       5.994  15.913  19.025  0.00  0.00    +0.000 C 
BRANCH  24  25
ATOM     25  N   UNL     1       6.669  14.695  19.497  0.00  0.00    +0.000 NA
ATOM     26  H   UNL     1       6.258  13.877  19.044  0.00  0.00    +0.000 HD
BRANCH  25  27
ATOM     27  C   UNL     1       8.098  14.748  19.134  0.00  0.00    +0.000 C 
BRANCH  27  28
ATOM     28  C   UNL     1       8.529  13.496  18.357  0.00  0.00    +0.000 C 
ATOM     29  O   UNL     1       7.835  13.078  17.427  0.00  0.00    +0.000 OA
ATOM     30  N   UNL     1       9.732  12.902  18.676  0.00  0.00    +0.000 N 
ATOM     31  C   UNL     1      10.266  11.827  17.859  0.00  0.00    +0.000 C 
ATOM     32  C   UNL     1      11.696  11.667  18.347  0.00  0.00    +0.000 C 
ATOM     33  C   UNL     1      11.563  11.956  19.839  0.00  0.00    +0.000 C 
ATOM     34  C   UNL     1      10.532  13.097  19.895  0.00  0.00    +0.000 C 
BRANCH  34  35
ATOM     35  C   UNL     1      11.216  14.405  19.933  0.00  0.00    +0.000 C 
ATOM     36  N   UNL     1      11.762  15.431  19.957  0.00  0.00    +0.000 NA
ENDBRANCH  34  35
ENDBRANCH  27  28
ENDBRANCH  25  27
ENDBRANCH  24  25
ENDBRANCH  23  24
ENDBRANCH   5  23
TORSDOF 9
ENDMDL
MODEL 7
REMARK VINA RESULT:      -6.3      4.443     11.643
REMARK  Name = 
REMARK  10 active torsions:
REMARK  status: ('A' for Active; 'I' for Inactive)
REMARK    1  A    between atoms: C_1  and  C_2
REMARK    2  A    between atoms: N_4  and  C_5
REMARK    3  A    between atoms: C_8  and  S_9
REMARK    4  A    between atoms: S_9  and  N_12
REMARK    5  A    between atoms: C_16  and  C_18
REMARK    6  A    between atoms: C_18  and  C_19
REMARK    7  A    between atoms: C_19  and  N_20
REMARK    8  A    between atoms: N_20  and  C_21
REMARK    9  A    between atoms: C_21  and  C_22
REMARK   10  A    between atoms: C_28  and  C_29
REMARK                            x       y       z     vdW  Elec       q    Type
REMARK                         _______ _______ _______ _____ _____    ______ ____
ROOT
ATOM      1  N   UNL     1       2.114   8.747  19.528  0.00  0.00    +0.000 NA
ATOM      2  C   UNL     1       2.073   7.838  20.708  0.00  0.00    +0.000 C 
ATOM      3  C   UNL     1       1.490   6.464  20.373  0.00  0.00    +0.000 C 
ATOM      4  N   UNL     1       2.045   5.834  19.167  0.00  0.00    +0.000 N 
ATOM      5  C   UNL     1       1.631   4.515  18.961  0.00  0.00    +0.000 C 
ATOM      6  O   UNL     1       1.015   3.886  19.825  0.00  0.00    +0.000 OA
ATOM      7  C   UNL     1       2.396   6.721  18.046  0.00  0.00    +0.000 C 
ATOM      8  C   UNL     1       2.928   8.108  18.449  0.00  0.00    +0.000 C 
ENDROOT
BRANCH   1   9
ATOM      9  S   UNL     1       0.651   9.454  19.000  0.00  0.00    +0.000 S 
ATOM     10  O   UNL     1      -0.417   8.932  19.825  0.00  0.00    +0.000 OA
ATOM     11  O   UNL     1       0.598   9.340  17.560  0.00  0.00    +0.000 OA
BRANCH   9  15
ATOM     12  C   UNL     1       1.344  13.872  20.156  0.00  0.00    +0.000 A 
ATOM     13  C   UNL     1       2.100  13.256  19.150  0.00  0.00    +0.000 A 
ATOM     14  C   UNL     1       1.863  11.924  18.769  0.00  0.00    +0.000 A 
ATOM     15  C   UNL     1       0.855  11.189  19.394  0.00  0.00    +0.000 A 
ATOM     16  C   UNL     1       0.036  11.811  20.342  0.00  0.00    +0.000 A 
ATOM     17  C   UNL     1       0.286  13.144  20.721  0.00  0.00    +0.000 A 
BRANCH  12  21
ATOM     18  C   UNL     1       2.335  16.968  22.093  0.00  0.00    +0.000 C 
ATOM     19  C   UNL     1       2.380  15.498  21.762  0.00  0.00    +0.000 C 
ATOM     20  O   UNL     1       3.028  14.725  22.457  0.00  0.00    +0.000 OA
ATOM     21  N   UNL     1       1.604  15.177  20.659  0.00  0.00    +0.000 N 
ATOM     22  H   UNL     1       1.127  15.939  20.196  0.00  0.00    +0.000 HD
ENDBRANCH  12  21
ENDBRANCH   9  15
ENDBRANCH   1   9
BRANCH   5  23
ATOM     23  C   UNL     1       2.024   3.814  17.672  0.00  0.00    +0.000 C 
BRANCH  23  24
ATOM     24  C   UNL     1       2.617   2.450  18.005  0.00  0.00    +0.000 C 
BRANCH  24  25
ATOM     25  N   UNL     1       3.989   2.335  17.488  0.00  0.00    +0.000 NA
ATOM     26  H   UNL     1       3.981   1.823  16.604  0.00  0.00    +0.000 HD
BRANCH  25  27
ATOM     27  C   UNL     1       4.537   3.680  17.233  0.00  0.00    +0.000 C 
BRANCH  27  28
ATOM     28  C   UNL     1       5.336   4.200  18.437  0.00  0.00    +0.000 C 
ATOM     29  O   UNL     1       5.240   3.638  19.530  0.00  0.00    +0.000 OA
ATOM     30  N   UNL     1       6.205   5.254  18.247  0.00  0.00    +0.000 N 
ATOM     31  C   UNL     1       7.110   5.668  19.305  0.00  0.00    +0.000 C 
ATOM     32  C   UNL     1       8.075   6.617  18.617  0.00  0.00    +0.000 C 
ATOM     33  C   UNL     1       7.175   7.314  17.601  0.00  0.00    +0.000 C 
ATOM     34  C   UNL     1       6.245   6.190  17.112  0.00  0.00    +0.000 C 
BRANCH  34  35
ATOM     35  C   UNL     1       6.782   5.579  15.880  0.00  0.00    +0.000 C 
ATOM     36  N   UNL     1       7.212   5.106  14.910  0.00  0.00    +0.000 NA
ENDBRANCH  34  35
ENDBRANCH  27  28
ENDBRANCH  25  27
ENDBRANCH  24  25
ENDBRANCH  23  24
ENDBRANCH   5  23
TORSDOF 9
ENDMDL
MODEL 8
REMARK VINA RESULT:      -6.3      2.573     11.656
REMARK  Name = 
REMARK  10 active torsions:
REMARK  status: ('A' for Active; 'I' for Inactive)
REMARK    1  A    between atoms: C_1  and  C_2
REMARK    2  A    between atoms: N_4  and  C_5
REMARK    3  A    between atoms: C_8  and  S_9
REMARK    4  A    between atoms: S_9  and  N_12
REMARK    5  A    between atoms: C_16  and  C_18
REMARK    6  A    between atoms: C_18  and  C_19
REMARK    7  A    between atoms: C_19  and  N_20
REMARK    8  A    between atoms: N_20  and  C_21
REMARK    9  A    between atoms: C_21  and  C_22
REMARK   10  A    between atoms: C_28  and  C_29
REMARK                            x       y       z     vdW  Elec       q    Type
REMARK                         _______ _______ _______ _____ _____    ______ ____
ROOT
ATOM      1  N   UNL     1      -1.038  11.889  20.522  0.00  0.00    +0.000 NA
ATOM      2  C   UNL     1      -1.268  11.513  19.098  0.00  0.00    +0.000 C 
ATOM      3  C   UNL     1      -0.032  10.887  18.449  0.00  0.00    +0.000 C 
ATOM      4  N   UNL     1       0.612   9.828  19.238  0.00  0.00    +0.000 N 
ATOM      5  C   UNL     1       1.634   9.149  18.569  0.00  0.00    +0.000 C 
ATOM      6  O   UNL     1       1.833   9.303  17.361  0.00  0.00    +0.000 OA
ATOM      7  C   UNL     1       0.614   9.988  20.701  0.00  0.00    +0.000 C 
ATOM      8  C   UNL     1      -0.634  10.671  21.288  0.00  0.00    +0.000 C 
ENDROOT
BRANCH   1   9
ATOM      9  S   UNL     1      -0.110  13.285  20.851  0.00  0.00    +0.000 S 
ATOM     10  O   UNL     1       0.068  14.002  19.606  0.00  0.00    +0.000 OA
ATOM     11  O   UNL     1       1.030  12.883  21.644  0.00  0.00    +0.000 OA
BRANCH   9  15
ATOM     12  C   UNL     1      -2.719  15.976  23.550  0.00  0.00    +0.000 A 
ATOM     13  C   UNL     1      -2.810  16.040  22.154  0.00  0.00    +0.000 A 
ATOM     14  C   UNL     1      -2.046  15.195  21.332  0.00  0.00    +0.000 A 
ATOM     15  C   UNL     1      -1.179  14.263  21.904  0.00  0.00    +0.000 A 
ATOM     16  C   UNL     1      -1.135  14.127  23.295  0.00  0.00    +0.000 A 
ATOM     17  C   UNL     1      -1.899  14.984  24.110  0.00  0.00    +0.000 A 
BRANCH  12  21
ATOM     18  C   UNL     1      -5.121  18.044  25.619  0.00  0.00    +0.000 C 
ATOM     19  C   UNL     1      -4.730  16.870  24.756  0.00  0.00    +0.000 C 
ATOM     20  O   UNL     1      -5.573  16.060  24.392  0.00  0.00    +0.000 OA
ATOM     21  N   UNL     1      -3.382  16.874  24.432  0.00  0.00    +0.000 N 
ATOM     22  H   UNL     1      -2.820  17.622  24.815  0.00  0.00    +0.000 HD
ENDBRANCH  12  21
ENDBRANCH   9  15
ENDBRANCH   1   9
BRANCH   5  23
ATOM     23  C   UNL     1       2.467   8.135  19.334  0.00  0.00    +0.000 C 
BRANCH  23  24
ATOM     24  C   UNL     1       2.706   6.915  18.453  0.00  0.00    +0.000 C 
BRANCH  24  25
ATOM     25  N   UNL     1       3.844   7.136  17.548  0.00  0.00    +0.000 NA
ATOM     26  H   UNL     1       4.577   7.651  18.039  0.00  0.00    +0.000 HD
BRANCH  25  27
ATOM     27  C   UNL     1       4.401   5.838  17.126  0.00  0.00    +0.000 C 
BRANCH  27  28
ATOM     28  C   UNL     1       4.930   5.036  18.324  0.00  0.00    +0.000 C 
ATOM     29  O   UNL     1       5.769   5.534  19.078  0.00  0.00    +0.000 OA
ATOM     30  N   UNL     1       4.395   3.788  18.571  0.00  0.00    +0.000 N 
ATOM     31  C   UNL     1       4.731   3.066  19.785  0.00  0.00    +0.000 C 
ATOM     32  C   UNL     1       3.734   1.921  19.822  0.00  0.00    +0.000 C 
ATOM     33  C   UNL     1       3.578   1.579  18.344  0.00  0.00    +0.000 C 
ATOM     34  C   UNL     1       3.608   2.952  17.651  0.00  0.00    +0.000 C 
BRANCH  34  35
ATOM     35  C   UNL     1       2.235   3.455  17.447  0.00  0.00    +0.000 C 
ATOM     36  N   UNL     1       1.157   3.860  17.291  0.00  0.00    +0.000 NA
ENDBRANCH  34  35
ENDBRANCH  27  28
ENDBRANCH  25  27
ENDBRANCH  24  25
ENDBRANCH  23  24
ENDBRANCH   5  23
TORSDOF 9
ENDMDL
MODEL 9
REMARK VINA RESULT:      -6.3      2.240     11.349
REMARK  Name = 
REMARK  10 active torsions:
REMARK  status: ('A' for Active; 'I' for Inactive)
REMARK    1  A    between atoms: C_1  and  C_2
REMARK    2  A    between atoms: N_4  and  C_5
REMARK    3  A    between atoms: C_8  and  S_9
REMARK    4  A    between atoms: S_9  and  N_12
REMARK    5  A    between atoms: C_16  and  C_18
REMARK    6  A    between atoms: C_18  and  C_19
REMARK    7  A    between atoms: C_19  and  N_20
REMARK    8  A    between atoms: N_20  and  C_21
REMARK    9  A    between atoms: C_21  and  C_22
REMARK   10  A    between atoms: C_28  and  C_29
REMARK                            x       y       z     vdW  Elec       q    Type
REMARK                         _______ _______ _______ _____ _____    ______ ____
ROOT
ATOM      1  N   UNL     1      -0.515   9.998  20.836  0.00  0.00    +0.000 NA
ATOM      2  C   UNL     1      -0.433  10.324  19.384  0.00  0.00    +0.000 C 
ATOM      3  C   UNL     1       0.903   9.909  18.763  0.00  0.00    +0.000 C 
ATOM      4  N   UNL     1       1.336   8.542  19.083  0.00  0.00    +0.000 N 
ATOM      5  C   UNL     1       2.467   8.116  18.381  0.00  0.00    +0.000 C 
ATOM      6  O   UNL     1       2.929   8.764  17.440  0.00  0.00    +0.000 OA
ATOM      7  C   UNL     1       1.019   8.035  20.427  0.00  0.00    +0.000 C 
ATOM      8  C   UNL     1      -0.313   8.528  21.018  0.00  0.00    +0.000 C 
ENDROOT
BRANCH   1   9
ATOM      9  S   UNL     1       0.346  10.983  21.936  0.00  0.00    +0.000 S 
ATOM     10  O   UNL     1       1.236  11.829  21.171  0.00  0.00    +0.000 OA
ATOM     11  O   UNL     1       0.854  10.131  22.988  0.00  0.00    +0.000 OA
BRANCH   9  15
ATOM     12  C   UNL     1      -3.041  13.652  23.592  0.00  0.00    +0.000 A 
ATOM     13  C   UNL     1      -3.128  12.255  23.636  0.00  0.00    +0.000 A 
ATOM     14  C   UNL     1      -2.082  11.441  23.170  0.00  0.00    +0.000 A 
ATOM     15  C   UNL     1      -0.924  12.023  22.653  0.00  0.00    +0.000 A 
ATOM     16  C   UNL     1      -0.783  13.415  22.676  0.00  0.00    +0.000 A 
ATOM     17  C   UNL     1      -1.841  14.220  23.138  0.00  0.00    +0.000 A 
BRANCH  12  21
ATOM     18  C   UNL     1      -6.129  15.827  23.831  0.00  0.00    +0.000 C 
ATOM     19  C   UNL     1      -5.277  14.733  23.238  0.00  0.00    +0.000 C 
ATOM     20  O   UNL     1      -5.633  14.155  22.217  0.00  0.00    +0.000 OA
ATOM     21  N   UNL     1      -4.105  14.527  23.947  0.00  0.00    +0.000 N 
ATOM     22  H   UNL     1      -3.962  15.095  24.772  0.00  0.00    +0.000 HD
ENDBRANCH  12  21
ENDBRANCH   9  15
ENDBRANCH   1   9
BRANCH   5  23
ATOM     23  C   UNL     1       3.091   6.777  18.736  0.00  0.00    +0.000 C 
BRANCH  23  24
ATOM     24  C   UNL     1       4.483   6.694  18.123  0.00  0.00    +0.000 C 
BRANCH  24  25
ATOM     25  N   UNL     1       4.410   6.302  16.707  0.00  0.00    +0.000 NA
ATOM     26  H   UNL     1       4.989   6.929  16.147  0.00  0.00    +0.000 HD
BRANCH  25  27
ATOM     27  C   UNL     1       4.930   4.932  16.544  0.00  0.00    +0.000 C 
BRANCH  27  28
ATOM     28  C   UNL     1       5.285   4.300  17.898  0.00  0.00    +0.000 C 
ATOM     29  O   UNL     1       6.312   4.641  18.487  0.00  0.00    +0.000 OA
ATOM     30  N   UNL     1       4.398   3.405  18.461  0.00  0.00    +0.000 N 
ATOM     31  C   UNL     1       4.600   2.916  19.814  0.00  0.00    +0.000 C 
ATOM     32  C   UNL     1       3.292   2.225  20.156  0.00  0.00    +0.000 C 
ATOM     33  C   UNL     1       2.883   1.623  18.815  0.00  0.00    +0.000 C 
ATOM     34  C   UNL     1       3.291   2.700  17.796  0.00  0.00    +0.000 C 
BRANCH  34  35
ATOM     35  C   UNL     1       2.146   3.581  17.493  0.00  0.00    +0.000 C 
ATOM     36  N   UNL     1       1.250   4.284  17.258  0.00  0.00    +0.000 NA
ENDBRANCH  34  35
ENDBRANCH  27  28
ENDBRANCH  25  27
ENDBRANCH  24  25
ENDBRANCH  23  24
ENDBRANCH   5  23
TORSDOF 9
ENDMDL
