MODEL 1
REMARK VINA RESULT:      -9.6      0.000      0.000
REMARK  Name = 
REMARK  7 active torsions:
REMARK  status: ('A' for Active; 'I' for Inactive)
REMARK    1  A    between atoms: C_1  and  C_2
REMARK    2  A    between atoms: C_5  and  S_6
REMARK    3  A    between atoms: S_6  and  N_9
REMARK    4  A    between atoms: N_9  and  C_10
REMARK    5  A    between atoms: C_13  and  C_14
REMARK    6  A    between atoms: C_16  and  C_17
REMARK    7  A    between atoms: C_22  and  C_23
REMARK                            x       y       z     vdW  Elec       q    Type
REMARK                         _______ _______ _______ _____ _____    ______ ____
ROOT
ATOM      1  C   UNL     1       3.686   5.200  19.095  0.00  0.00    +0.000 A 
ATOM      2  C   UNL     1       4.002   3.837  19.193  0.00  0.00    +0.000 A 
ATOM      3  C   UNL     1       3.302   3.000  20.070  0.00  0.00    +0.000 A 
ATOM      4  C   UNL     1       2.255   3.501  20.846  0.00  0.00    +0.000 A 
ATOM      5  C   UNL     1       1.492   2.626  21.800  0.00  0.00    +0.000 C 
ATOM      6  C   UNL     1       1.917   4.854  20.723  0.00  0.00    +0.000 A 
ATOM      7  C   UNL     1       2.623   5.716  19.859  0.00  0.00    +0.000 A 
ENDROOT
BRANCH   7   8
ATOM      8  C   UNL     1       2.209   7.153  19.889  0.00  0.00    +0.000 C 
ATOM      9  O   UNL     1       2.553   7.876  18.960  0.00  0.00    +0.000 OA
ATOM     10  N   UNL     1       1.441   7.524  20.964  0.00  0.00    +0.000 N 
ATOM     11  C   UNL     1       0.963   8.792  21.120  0.00  0.00    +0.000 A 
ATOM     12  N   UNL     1       0.942   9.788  20.274  0.00  0.00    +0.000 NA
ATOM     13  C   UNL     1       0.388  10.904  20.880  0.00  0.00    +0.000 A 
ATOM     14  C   UNL     1       0.082  10.738  22.219  0.00  0.00    +0.000 A 
ATOM     15  S   UNL     1       0.291   9.095  22.657  0.00  0.00    +0.000 S 
ATOM     16  H   UNL     1       1.289   6.875  21.722  0.00  0.00    +0.000 HD
BRANCH  13  17
ATOM     17  C   UNL     1       0.154  12.133  20.130  0.00  0.00    +0.000 A 
ATOM     18  C   UNL     1      -0.477  12.114  18.878  0.00  0.00    +0.000 A 
ATOM     19  C   UNL     1      -0.638  13.291  18.142  0.00  0.00    +0.000 A 
ATOM     20  C   UNL     1      -0.164  14.499  18.652  0.00  0.00    +0.000 A 
ATOM     21  C   UNL     1       0.461  14.532  19.898  0.00  0.00    +0.000 A 
ATOM     22  C   UNL     1       0.621  13.354  20.631  0.00  0.00    +0.000 A 
ENDBRANCH  13  17
ENDBRANCH   7   8
BRANCH   1  23
ATOM     23  N   UNL     1       4.472   6.030  18.188  0.00  0.00    +0.000 N 
ATOM     24  H   UNL     1       4.520   6.980  18.573  0.00  0.00    +0.000 HD
BRANCH  23  25
ATOM     25  S   UNL     1       6.128   5.564  18.045  0.00  0.00    +0.000 S 
ATOM     26  O   UNL     1       6.383   4.458  18.936  0.00  0.00    +0.000 OA
ATOM     27  O   UNL     1       6.888   6.792  18.081  0.00  0.00    +0.000 OA
BRANCH  25  32
ATOM     28  C   UNL     1       6.319   3.546  12.297  0.00  0.00    +0.000 C 
ATOM     29  C   UNL     1       6.279   4.029  13.718  0.00  0.00    +0.000 A 
ATOM     30  C   UNL     1       7.352   4.749  14.263  0.00  0.00    +0.000 A 
ATOM     31  C   UNL     1       7.306   5.204  15.583  0.00  0.00    +0.000 A 
ATOM     32  C   UNL     1       6.175   4.957  16.366  0.00  0.00    +0.000 A 
ATOM     33  C   UNL     1       5.100   4.231  15.841  0.00  0.00    +0.000 A 
ATOM     34  C   UNL     1       5.157   3.769  14.522  0.00  0.00    +0.000 A 
ENDBRANCH  25  32
ENDBRANCH  23  25
ENDBRANCH   1  23
TORSDOF 5
ENDMDL
MODEL 2
REMARK VINA RESULT:      -9.6      0.113      1.213
REMARK  Name = 
REMARK  7 active torsions:
REMARK  status: ('A' for Active; 'I' for Inactive)
REMARK    1  A    between atoms: C_1  and  C_2
REMARK    2  A    between atoms: C_5  and  S_6
REMARK    3  A    between atoms: S_6  and  N_9
REMARK    4  A    between atoms: N_9  and  C_10
REMARK    5  A    between atoms: C_13  and  C_14
REMARK    6  A    between atoms: C_16  and  C_17
REMARK    7  A    between atoms: C_22  and  C_23
REMARK                            x       y       z     vdW  Elec       q    Type
REMARK                         _______ _______ _______ _____ _____    ______ ____
ROOT
ATOM      1  C   UNL     1       3.575   5.124  19.015  0.00  0.00    +0.000 A 
ATOM      2  C   UNL     1       3.853   3.753  19.107  0.00  0.00    +0.000 A 
ATOM      3  C   UNL     1       3.171   2.942  20.023  0.00  0.00    +0.000 A 
ATOM      4  C   UNL     1       2.179   3.480  20.845  0.00  0.00    +0.000 A 
ATOM      5  C   UNL     1       1.438   2.634  21.841  0.00  0.00    +0.000 C 
ATOM      6  C   UNL     1       1.877   4.842  20.730  0.00  0.00    +0.000 A 
ATOM      7  C   UNL     1       2.566   5.677  19.827  0.00  0.00    +0.000 A 
ENDROOT
BRANCH   7   8
ATOM      8  C   UNL     1       2.199   7.126  19.868  0.00  0.00    +0.000 C 
ATOM      9  O   UNL     1       2.604   7.853  18.966  0.00  0.00    +0.000 OA
ATOM     10  N   UNL     1       1.400   7.504  20.918  0.00  0.00    +0.000 N 
ATOM     11  C   UNL     1       0.959   8.785  21.079  0.00  0.00    +0.000 A 
ATOM     12  N   UNL     1       1.004   9.796  20.251  0.00  0.00    +0.000 NA
ATOM     13  C   UNL     1       0.463  10.918  20.856  0.00  0.00    +0.000 A 
ATOM     14  C   UNL     1       0.099  10.739  22.178  0.00  0.00    +0.000 A 
ATOM     15  S   UNL     1       0.235   9.082  22.593  0.00  0.00    +0.000 S 
ATOM     16  H   UNL     1       1.198   6.847  21.657  0.00  0.00    +0.000 HD
BRANCH  13  17
ATOM     17  C   UNL     1       0.300  12.167  20.120  0.00  0.00    +0.000 A 
ATOM     18  C   UNL     1       0.760  13.385  20.640  0.00  0.00    +0.000 A 
ATOM     19  C   UNL     1       0.540  14.583  19.954  0.00  0.00    +0.000 A 
ATOM     20  C   UNL     1      -0.147  14.572  18.742  0.00  0.00    +0.000 A 
ATOM     21  C   UNL     1      -0.606  13.367  18.212  0.00  0.00    +0.000 A 
ATOM     22  C   UNL     1      -0.386  12.172  18.899  0.00  0.00    +0.000 A 
ENDBRANCH  13  17
ENDBRANCH   7   8
BRANCH   1  23
ATOM     23  N   UNL     1       4.340   5.925  18.065  0.00  0.00    +0.000 N 
ATOM     24  H   UNL     1       4.346   6.899  18.389  0.00  0.00    +0.000 HD
BRANCH  23  25
ATOM     25  S   UNL     1       6.015   5.516  17.972  0.00  0.00    +0.000 S 
ATOM     26  O   UNL     1       6.277   4.406  18.855  0.00  0.00    +0.000 OA
ATOM     27  O   UNL     1       6.732   6.769  18.051  0.00  0.00    +0.000 OA
BRANCH  25  32
ATOM     28  C   UNL     1       6.410   3.491  12.237  0.00  0.00    +0.000 C 
ATOM     29  C   UNL     1       6.306   4.003  13.645  0.00  0.00    +0.000 A 
ATOM     30  C   UNL     1       5.186   3.705  14.436  0.00  0.00    +0.000 A 
ATOM     31  C   UNL     1       5.098   4.177  15.748  0.00  0.00    +0.000 A 
ATOM     32  C   UNL     1       6.139   4.938  16.286  0.00  0.00    +0.000 A 
ATOM     33  C   UNL     1       7.257   5.254  15.507  0.00  0.00    +0.000 A 
ATOM     34  C   UNL     1       7.335   4.787  14.191  0.00  0.00    +0.000 A 
ENDBRANCH  25  32
ENDBRANCH  23  25
ENDBRANCH   1  23
TORSDOF 5
ENDMDL
MODEL 3
REMARK VINA RESULT:      -9.2      3.600     10.474
REMARK  Name = 
REMARK  7 active torsions:
REMARK  status: ('A' for Active; 'I' for Inactive)
REMARK    1  A    between atoms: C_1  and  C_2
REMARK    2  A    between atoms: C_5  and  S_6
REMARK    3  A    between atoms: S_6  and  N_9
REMARK    4  A    between atoms: N_9  and  C_10
REMARK    5  A    between atoms: C_13  and  C_14
REMARK    6  A    between atoms: C_16  and  C_17
REMARK    7  A    between atoms: C_22  and  C_23
REMARK                            x       y       z     vdW  Elec       q    Type
REMARK                         _______ _______ _______ _____ _____    ______ ____
ROOT
ATOM      1  C   UNL     1      -0.600  12.092  18.955  0.00  0.00    +0.000 A 
ATOM      2  C   UNL     1      -0.764  13.462  18.705  0.00  0.00    +0.000 A 
ATOM      3  C   UNL     1       0.344  14.286  18.471  0.00  0.00    +0.000 A 
ATOM      4  C   UNL     1       1.634  13.752  18.454  0.00  0.00    +0.000 A 
ATOM      5  C   UNL     1       2.841  14.615  18.212  0.00  0.00    +0.000 C 
ATOM      6  C   UNL     1       1.795  12.378  18.670  0.00  0.00    +0.000 A 
ATOM      7  C   UNL     1       0.694  11.537  18.926  0.00  0.00    +0.000 A 
ENDROOT
BRANCH   7   8
ATOM      8  C   UNL     1       1.018  10.107  19.220  0.00  0.00    +0.000 C 
ATOM      9  O   UNL     1       0.482   9.577  20.188  0.00  0.00    +0.000 OA
ATOM     10  N   UNL     1       1.880   9.504  18.339  0.00  0.00    +0.000 N 
ATOM     11  C   UNL     1       2.252   8.197  18.457  0.00  0.00    +0.000 A 
ATOM     12  N   UNL     1       1.765   7.254  19.219  0.00  0.00    +0.000 NA
ATOM     13  C   UNL     1       2.480   6.082  19.028  0.00  0.00    +0.000 A 
ATOM     14  C   UNL     1       3.562   6.203  18.175  0.00  0.00    +0.000 A 
ATOM     15  S   UNL     1       3.544   7.750  17.438  0.00  0.00    +0.000 S 
ATOM     16  H   UNL     1       2.338  10.054  17.627  0.00  0.00    +0.000 HD
BRANCH  13  17
ATOM     17  C   UNL     1       2.086   4.842  19.685  0.00  0.00    +0.000 A 
ATOM     18  C   UNL     1       2.411   4.591  21.026  0.00  0.00    +0.000 A 
ATOM     19  C   UNL     1       2.083   3.371  21.623  0.00  0.00    +0.000 A 
ATOM     20  C   UNL     1       1.428   2.389  20.882  0.00  0.00    +0.000 A 
ATOM     21  C   UNL     1       1.094   2.627  19.551  0.00  0.00    +0.000 A 
ATOM     22  C   UNL     1       1.424   3.846  18.954  0.00  0.00    +0.000 A 
ENDBRANCH  13  17
ENDBRANCH   7   8
BRANCH   1  23
ATOM     23  N   UNL     1      -1.789  11.289  19.225  0.00  0.00    +0.000 N 
ATOM     24  H   UNL     1      -2.453  11.859  19.760  0.00  0.00    +0.000 HD
BRANCH  23  25
ATOM     25  S   UNL     1      -2.680  10.836  17.817  0.00  0.00    +0.000 S 
ATOM     26  O   UNL     1      -2.948   9.420  17.867  0.00  0.00    +0.000 OA
ATOM     27  O   UNL     1      -2.009  11.470  16.705  0.00  0.00    +0.000 OA
BRANCH  25  32
ATOM     28  C   UNL     1      -7.913  13.844  18.660  0.00  0.00    +0.000 C 
ATOM     29  C   UNL     1      -6.631  13.090  18.457  0.00  0.00    +0.000 A 
ATOM     30  C   UNL     1      -6.320  12.526  17.211  0.00  0.00    +0.000 A 
ATOM     31  C   UNL     1      -5.121  11.832  17.025  0.00  0.00    +0.000 A 
ATOM     32  C   UNL     1      -4.215  11.711  18.081  0.00  0.00    +0.000 A 
ATOM     33  C   UNL     1      -4.516  12.258  19.334  0.00  0.00    +0.000 A 
ATOM     34  C   UNL     1      -5.722  12.942  19.516  0.00  0.00    +0.000 A 
ENDBRANCH  25  32
ENDBRANCH  23  25
ENDBRANCH   1  23
TORSDOF 5
ENDMDL
MODEL 4
REMARK VINA RESULT:      -9.1      2.097      2.903
REMARK  Name = 
REMARK  7 active torsions:
REMARK  status: ('A' for Active; 'I' for Inactive)
REMARK    1  A    between atoms: C_1  and  C_2
REMARK    2  A    between atoms: C_5  and  S_6
REMARK    3  A    between atoms: S_6  and  N_9
REMARK    4  A    between atoms: N_9  and  C_10
REMARK    5  A    between atoms: C_13  and  C_14
REMARK    6  A    between atoms: C_16  and  C_17
REMARK    7  A    between atoms: C_22  and  C_23
REMARK                            x       y       z     vdW  Elec       q    Type
REMARK                         _______ _______ _______ _____ _____    ______ ____
ROOT
ATOM      1  C   UNL     1       3.457   4.590  18.982  0.00  0.00    +0.000 A 
ATOM      2  C   UNL     1       3.640   3.208  19.131  0.00  0.00    +0.000 A 
ATOM      3  C   UNL     1       2.936   2.492  20.107  0.00  0.00    +0.000 A 
ATOM      4  C   UNL     1       2.014   3.138  20.934  0.00  0.00    +0.000 A 
ATOM      5  C   UNL     1       1.250   2.395  21.993  0.00  0.00    +0.000 C 
ATOM      6  C   UNL     1       1.806   4.512  20.762  0.00  0.00    +0.000 A 
ATOM      7  C   UNL     1       2.520   5.252  19.798  0.00  0.00    +0.000 A 
ENDROOT
BRANCH   7   8
ATOM      8  C   UNL     1       2.258   6.724  19.780  0.00  0.00    +0.000 C 
ATOM      9  O   UNL     1       2.694   7.380  18.839  0.00  0.00    +0.000 OA
ATOM     10  N   UNL     1       1.511   7.205  20.826  0.00  0.00    +0.000 N 
ATOM     11  C   UNL     1       1.166   8.520  20.938  0.00  0.00    +0.000 A 
ATOM     12  N   UNL     1       1.265   9.487  20.065  0.00  0.00    +0.000 NA
ATOM     13  C   UNL     1       0.819  10.672  20.627  0.00  0.00    +0.000 A 
ATOM     14  C   UNL     1       0.471  10.577  21.963  0.00  0.00    +0.000 A 
ATOM     15  S   UNL     1       0.498   8.935  22.450  0.00  0.00    +0.000 S 
ATOM     16  H   UNL     1       1.278   6.597  21.598  0.00  0.00    +0.000 HD
BRANCH  13  17
ATOM     17  C   UNL     1       0.729  11.895  19.840  0.00  0.00    +0.000 A 
ATOM     18  C   UNL     1       1.662  12.931  19.992  0.00  0.00    +0.000 A 
ATOM     19  C   UNL     1       1.527  14.124  19.278  0.00  0.00    +0.000 A 
ATOM     20  C   UNL     1       0.454  14.293  18.404  0.00  0.00    +0.000 A 
ATOM     21  C   UNL     1      -0.478  13.269  18.239  0.00  0.00    +0.000 A 
ATOM     22  C   UNL     1      -0.342  12.078  18.955  0.00  0.00    +0.000 A 
ENDBRANCH  13  17
ENDBRANCH   7   8
BRANCH   1  23
ATOM     23  N   UNL     1       4.243   5.289  17.970  0.00  0.00    +0.000 N 
ATOM     24  H   UNL     1       4.333   6.272  18.248  0.00  0.00    +0.000 HD
BRANCH  23  25
ATOM     25  S   UNL     1       5.878   4.751  17.838  0.00  0.00    +0.000 S 
ATOM     26  O   UNL     1       6.084   4.193  16.524  0.00  0.00    +0.000 OA
ATOM     27  O   UNL     1       6.151   4.018  19.054  0.00  0.00    +0.000 OA
BRANCH  25  32
ATOM     28  C   UNL     1       8.908  10.023  18.244  0.00  0.00    +0.000 C 
ATOM     29  C   UNL     1       8.171   8.720  18.132  0.00  0.00    +0.000 A 
ATOM     30  C   UNL     1       8.564   7.605  18.888  0.00  0.00    +0.000 A 
ATOM     31  C   UNL     1       7.870   6.397  18.787  0.00  0.00    +0.000 A 
ATOM     32  C   UNL     1       6.764   6.299  17.939  0.00  0.00    +0.000 A 
ATOM     33  C   UNL     1       6.365   7.398  17.170  0.00  0.00    +0.000 A 
ATOM     34  C   UNL     1       7.070   8.601  17.268  0.00  0.00    +0.000 A 
ENDBRANCH  25  32
ENDBRANCH  23  25
ENDBRANCH   1  23
TORSDOF 5
ENDMDL
MODEL 5
REMARK VINA RESULT:      -9.1      3.544     10.486
REMARK  Name = 
REMARK  7 active torsions:
REMARK  status: ('A' for Active; 'I' for Inactive)
REMARK    1  A    between atoms: C_1  and  C_2
REMARK    2  A    between atoms: C_5  and  S_6
REMARK    3  A    between atoms: S_6  and  N_9
REMARK    4  A    between atoms: N_9  and  C_10
REMARK    5  A    between atoms: C_13  and  C_14
REMARK    6  A    between atoms: C_16  and  C_17
REMARK    7  A    between atoms: C_22  and  C_23
REMARK                            x       y       z     vdW  Elec       q    Type
REMARK                         _______ _______ _______ _____ _____    ______ ____
ROOT
ATOM      1  C   UNL     1      -0.502  12.045  18.973  0.00  0.00    +0.000 A 
ATOM      2  C   UNL     1      -0.630  13.436  18.848  0.00  0.00    +0.000 A 
ATOM      3  C   UNL     1       0.490  14.240  18.602  0.00  0.00    +0.000 A 
ATOM      4  C   UNL     1       1.754  13.668  18.449  0.00  0.00    +0.000 A 
ATOM      5  C   UNL     1       2.973  14.508  18.191  0.00  0.00    +0.000 C 
ATOM      6  C   UNL     1       1.877  12.276  18.540  0.00  0.00    +0.000 A 
ATOM      7  C   UNL     1       0.764  11.453  18.806  0.00  0.00    +0.000 A 
ENDROOT
BRANCH   7   8
ATOM      8  C   UNL     1       1.053   9.993  18.959  0.00  0.00    +0.000 C 
ATOM      9  O   UNL     1       0.393   9.353  19.771  0.00  0.00    +0.000 OA
ATOM     10  N   UNL     1       2.030   9.495  18.134  0.00  0.00    +0.000 N 
ATOM     11  C   UNL     1       2.389   8.179  18.135  0.00  0.00    +0.000 A 
ATOM     12  N   UNL     1       1.807   7.154  18.700  0.00  0.00    +0.000 NA
ATOM     13  C   UNL     1       2.547   6.007  18.462  0.00  0.00    +0.000 A 
ATOM     14  C   UNL     1       3.734   6.221  17.785  0.00  0.00    +0.000 A 
ATOM     15  S   UNL     1       3.809   7.847  17.253  0.00  0.00    +0.000 S 
ATOM     16  H   UNL     1       2.577  10.124  17.565  0.00  0.00    +0.000 HD
BRANCH  13  17
ATOM     17  C   UNL     1       2.074   4.698  18.898  0.00  0.00    +0.000 A 
ATOM     18  C   UNL     1       1.554   4.503  20.185  0.00  0.00    +0.000 A 
ATOM     19  C   UNL     1       1.164   3.230  20.612  0.00  0.00    +0.000 A 
ATOM     20  C   UNL     1       1.293   2.141  19.753  0.00  0.00    +0.000 A 
ATOM     21  C   UNL     1       1.804   2.322  18.469  0.00  0.00    +0.000 A 
ATOM     22  C   UNL     1       2.195   3.594  18.045  0.00  0.00    +0.000 A 
ENDBRANCH  13  17
ENDBRANCH   7   8
BRANCH   1  23
ATOM     23  N   UNL     1      -1.699  11.262  19.262  0.00  0.00    +0.000 N 
ATOM     24  H   UNL     1      -2.340  11.838  19.819  0.00  0.00    +0.000 HD
BRANCH  23  25
ATOM     25  S   UNL     1      -2.632  10.842  17.871  0.00  0.00    +0.000 S 
ATOM     26  O   UNL     1      -2.901   9.425  17.897  0.00  0.00    +0.000 OA
ATOM     27  O   UNL     1      -1.992  11.500  16.754  0.00  0.00    +0.000 OA
BRANCH  25  32
ATOM     28  C   UNL     1      -7.834  13.791  19.047  0.00  0.00    +0.000 C 
ATOM     29  C   UNL     1      -6.546  13.078  18.752  0.00  0.00    +0.000 A 
ATOM     30  C   UNL     1      -5.532  12.999  19.717  0.00  0.00    +0.000 A 
ATOM     31  C   UNL     1      -4.338  12.327  19.440  0.00  0.00    +0.000 A 
ATOM     32  C   UNL     1      -4.157  11.712  18.199  0.00  0.00    +0.000 A 
ATOM     33  C   UNL     1      -5.155  11.791  17.221  0.00  0.00    +0.000 A 
ATOM     34  C   UNL     1      -6.342  12.474  17.500  0.00  0.00    +0.000 A 
ENDBRANCH  25  32
ENDBRANCH  23  25
ENDBRANCH   1  23
TORSDOF 5
ENDMDL
MODEL 6
REMARK VINA RESULT:      -9.1      2.582      3.413
REMARK  Name = 
REMARK  7 active torsions:
REMARK  status: ('A' for Active; 'I' for Inactive)
REMARK    1  A    between atoms: C_1  and  C_2
REMARK    2  A    between atoms: C_5  and  S_6
REMARK    3  A    between atoms: S_6  and  N_9
REMARK    4  A    between atoms: N_9  and  C_10
REMARK    5  A    between atoms: C_13  and  C_14
REMARK    6  A    between atoms: C_16  and  C_17
REMARK    7  A    between atoms: C_22  and  C_23
REMARK                            x       y       z     vdW  Elec       q    Type
REMARK                         _______ _______ _______ _____ _____    ______ ____
ROOT
ATOM      1  C   UNL     1       3.894   4.807  17.371  0.00  0.00    +0.000 A 
ATOM      2  C   UNL     1       3.970   3.423  17.158  0.00  0.00    +0.000 A 
ATOM      3  C   UNL     1       2.956   2.571  17.613  0.00  0.00    +0.000 A 
ATOM      4  C   UNL     1       1.834   3.087  18.265  0.00  0.00    +0.000 A 
ATOM      5  C   UNL     1       0.736   2.194  18.769  0.00  0.00    +0.000 C 
ATOM      6  C   UNL     1       1.742   4.472  18.447  0.00  0.00    +0.000 A 
ATOM      7  C   UNL     1       2.761   5.343  18.013  0.00  0.00    +0.000 A 
ENDROOT
BRANCH   7   8
ATOM      8  C   UNL     1       2.571   6.789  18.346  0.00  0.00    +0.000 C 
ATOM      9  O   UNL     1       3.069   7.627  17.601  0.00  0.00    +0.000 OA
ATOM     10  N   UNL     1       1.814   7.043  19.462  0.00  0.00    +0.000 N 
ATOM     11  C   UNL     1       1.528   8.309  19.881  0.00  0.00    +0.000 A 
ATOM     12  N   UNL     1       1.703   9.452  19.271  0.00  0.00    +0.000 NA
ATOM     13  C   UNL     1       1.295  10.488  20.094  0.00  0.00    +0.000 A 
ATOM     14  C   UNL     1       0.899  10.094  21.360  0.00  0.00    +0.000 A 
ATOM     15  S   UNL     1       0.831   8.384  21.435  0.00  0.00    +0.000 S 
ATOM     16  H   UNL     1       1.526   6.281  20.058  0.00  0.00    +0.000 HD
BRANCH  13  17
ATOM     17  C   UNL     1       1.290  11.869  19.624  0.00  0.00    +0.000 A 
ATOM     18  C   UNL     1       0.398  12.814  20.149  0.00  0.00    +0.000 A 
ATOM     19  C   UNL     1       0.360  14.117  19.645  0.00  0.00    +0.000 A 
ATOM     20  C   UNL     1       1.215  14.485  18.607  0.00  0.00    +0.000 A 
ATOM     21  C   UNL     1       2.111  13.556  18.080  0.00  0.00    +0.000 A 
ATOM     22  C   UNL     1       2.146  12.254  18.585  0.00  0.00    +0.000 A 
ENDBRANCH  13  17
ENDBRANCH   7   8
BRANCH   1  23
ATOM     23  N   UNL     1       4.995   5.642  16.903  0.00  0.00    +0.000 N 
ATOM     24  H   UNL     1       4.899   6.574  17.320  0.00  0.00    +0.000 HD
BRANCH  23  25
ATOM     25  S   UNL     1       6.557   5.122  17.423  0.00  0.00    +0.000 S 
ATOM     26  O   UNL     1       7.261   4.553  16.300  0.00  0.00    +0.000 OA
ATOM     27  O   UNL     1       6.342   4.406  18.661  0.00  0.00    +0.000 OA
BRANCH  25  32
ATOM     28  C   UNL     1       9.177  10.456  18.776  0.00  0.00    +0.000 C 
ATOM     29  C   UNL     1       8.519   9.145  18.453  0.00  0.00    +0.000 A 
ATOM     30  C   UNL     1       7.610   9.041  17.390  0.00  0.00    +0.000 A 
ATOM     31  C   UNL     1       7.008   7.817  17.088  0.00  0.00    +0.000 A 
ATOM     32  C   UNL     1       7.324   6.681  17.838  0.00  0.00    +0.000 A 
ATOM     33  C   UNL     1       8.220   6.771  18.909  0.00  0.00    +0.000 A 
ATOM     34  C   UNL     1       8.812   8.001  19.212  0.00  0.00    +0.000 A 
ENDBRANCH  25  32
ENDBRANCH  23  25
ENDBRANCH   1  23
TORSDOF 5
ENDMDL
MODEL 7
REMARK VINA RESULT:      -9.1      2.628      3.404
REMARK  Name = 
REMARK  7 active torsions:
REMARK  status: ('A' for Active; 'I' for Inactive)
REMARK    1  A    between atoms: C_1  and  C_2
REMARK    2  A    between atoms: C_5  and  S_6
REMARK    3  A    between atoms: S_6  and  N_9
REMARK    4  A    between atoms: N_9  and  C_10
REMARK    5  A    between atoms: C_13  and  C_14
REMARK    6  A    between atoms: C_16  and  C_17
REMARK    7  A    between atoms: C_22  and  C_23
REMARK                            x       y       z     vdW  Elec       q    Type
REMARK                         _______ _______ _______ _____ _____    ______ ____
ROOT
ATOM      1  C   UNL     1       3.949   4.901  17.379  0.00  0.00    +0.000 A 
ATOM      2  C   UNL     1       4.021   3.514  17.184  0.00  0.00    +0.000 A 
ATOM      3  C   UNL     1       3.000   2.672  17.641  0.00  0.00    +0.000 A 
ATOM      4  C   UNL     1       1.875   3.201  18.276  0.00  0.00    +0.000 A 
ATOM      5  C   UNL     1       0.768   2.319  18.783  0.00  0.00    +0.000 C 
ATOM      6  C   UNL     1       1.787   4.588  18.441  0.00  0.00    +0.000 A 
ATOM      7  C   UNL     1       2.814   5.449  18.005  0.00  0.00    +0.000 A 
ENDROOT
BRANCH   7   8
ATOM      8  C   UNL     1       2.627   6.900  18.319  0.00  0.00    +0.000 C 
ATOM      9  O   UNL     1       3.174   7.726  17.595  0.00  0.00    +0.000 OA
ATOM     10  N   UNL     1       1.819   7.172  19.394  0.00  0.00    +0.000 N 
ATOM     11  C   UNL     1       1.531   8.445  19.790  0.00  0.00    +0.000 A 
ATOM     12  N   UNL     1       1.752   9.581  19.182  0.00  0.00    +0.000 NA
ATOM     13  C   UNL     1       1.318  10.629  19.977  0.00  0.00    +0.000 A 
ATOM     14  C   UNL     1       0.853  10.249  21.223  0.00  0.00    +0.000 A 
ATOM     15  S   UNL     1       0.758   8.540  21.306  0.00  0.00    +0.000 S 
ATOM     16  H   UNL     1       1.491   6.419  19.980  0.00  0.00    +0.000 HD
BRANCH  13  17
ATOM     17  C   UNL     1       1.356  12.006  19.499  0.00  0.00    +0.000 A 
ATOM     18  C   UNL     1       2.104  12.365  18.369  0.00  0.00    +0.000 A 
ATOM     19  C   UNL     1       2.184  13.699  17.960  0.00  0.00    +0.000 A 
ATOM     20  C   UNL     1       1.515  14.687  18.681  0.00  0.00    +0.000 A 
ATOM     21  C   UNL     1       0.764  14.343  19.803  0.00  0.00    +0.000 A 
ATOM     22  C   UNL     1       0.687  13.009  20.212  0.00  0.00    +0.000 A 
ENDBRANCH  13  17
ENDBRANCH   7   8
BRANCH   1  23
ATOM     23  N   UNL     1       5.059   5.725  16.910  0.00  0.00    +0.000 N 
ATOM     24  H   UNL     1       4.938   6.675  17.277  0.00  0.00    +0.000 HD
BRANCH  23  25
ATOM     25  S   UNL     1       6.606   5.249  17.510  0.00  0.00    +0.000 S 
ATOM     26  O   UNL     1       7.351   4.626  16.444  0.00  0.00    +0.000 OA
ATOM     27  O   UNL     1       6.355   4.600  18.777  0.00  0.00    +0.000 OA
BRANCH  25  32
ATOM     28  C   UNL     1       9.132  10.649  18.775  0.00  0.00    +0.000 C 
ATOM     29  C   UNL     1       8.521   9.316  18.453  0.00  0.00    +0.000 A 
ATOM     30  C   UNL     1       8.895   8.165  19.162  0.00  0.00    +0.000 A 
ATOM     31  C   UNL     1       8.317   6.928  18.864  0.00  0.00    +0.000 A 
ATOM     32  C   UNL     1       7.346   6.836  17.863  0.00  0.00    +0.000 A 
ATOM     33  C   UNL     1       6.970   7.973  17.139  0.00  0.00    +0.000 A 
ATOM     34  C   UNL     1       7.560   9.206  17.435  0.00  0.00    +0.000 A 
ENDBRANCH  25  32
ENDBRANCH  23  25
ENDBRANCH   1  23
TORSDOF 5
ENDMDL
MODEL 8
REMARK VINA RESULT:      -9.0      3.485     10.884
REMARK  Name = 
REMARK  7 active torsions:
REMARK  status: ('A' for Active; 'I' for Inactive)
REMARK    1  A    between atoms: C_1  and  C_2
REMARK    2  A    between atoms: C_5  and  S_6
REMARK    3  A    between atoms: S_6  and  N_9
REMARK    4  A    between atoms: N_9  and  C_10
REMARK    5  A    between atoms: C_13  and  C_14
REMARK    6  A    between atoms: C_16  and  C_17
REMARK    7  A    between atoms: C_22  and  C_23
REMARK                            x       y       z     vdW  Elec       q    Type
REMARK                         _______ _______ _______ _____ _____    ______ ____
ROOT
ATOM      1  C   UNL     1      -0.236  12.267  20.243  0.00  0.00    +0.000 A 
ATOM      2  C   UNL     1      -0.389  13.651  20.074  0.00  0.00    +0.000 A 
ATOM      3  C   UNL     1       0.563  14.398  19.370  0.00  0.00    +0.000 A 
ATOM      4  C   UNL     1       1.672  13.773  18.797  0.00  0.00    +0.000 A 
ATOM      5  C   UNL     1       2.712  14.552  18.042  0.00  0.00    +0.000 C 
ATOM      6  C   UNL     1       1.808  12.387  18.935  0.00  0.00    +0.000 A 
ATOM      7  C   UNL     1       0.870  11.622  19.657  0.00  0.00    +0.000 A 
ENDROOT
BRANCH   7   8
ATOM      8  C   UNL     1       1.183  10.166  19.795  0.00  0.00    +0.000 C 
ATOM      9  O   UNL     1       0.811   9.586  20.811  0.00  0.00    +0.000 OA
ATOM     10  N   UNL     1       1.843   9.600  18.734  0.00  0.00    +0.000 N 
ATOM     11  C   UNL     1       2.175   8.277  18.698  0.00  0.00    +0.000 A 
ATOM     12  N   UNL     1       1.797   7.298  19.478  0.00  0.00    +0.000 NA
ATOM     13  C   UNL     1       2.415   6.123  19.084  0.00  0.00    +0.000 A 
ATOM     14  C   UNL     1       3.326   6.270  18.054  0.00  0.00    +0.000 A 
ATOM     15  S   UNL     1       3.238   7.864  17.432  0.00  0.00    +0.000 S 
ATOM     16  H   UNL     1       2.185  10.184  17.985  0.00  0.00    +0.000 HD
BRANCH  13  17
ATOM     17  C   UNL     1       2.096   4.851  19.724  0.00  0.00    +0.000 A 
ATOM     18  C   UNL     1       1.418   3.837  19.033  0.00  0.00    +0.000 A 
ATOM     19  C   UNL     1       1.063   2.649  19.677  0.00  0.00    +0.000 A 
ATOM     20  C   UNL     1       1.381   2.467  21.022  0.00  0.00    +0.000 A 
ATOM     21  C   UNL     1       2.059   3.465  21.719  0.00  0.00    +0.000 A 
ATOM     22  C   UNL     1       2.412   4.652  21.074  0.00  0.00    +0.000 A 
ENDBRANCH  13  17
ENDBRANCH   7   8
BRANCH   1  23
ATOM     23  N   UNL     1      -1.243  11.546  21.014  0.00  0.00    +0.000 N 
ATOM     24  H   UNL     1      -1.042  10.542  20.957  0.00  0.00    +0.000 HD
BRANCH  23  25
ATOM     25  S   UNL     1      -1.214  11.873  22.709  0.00  0.00    +0.000 S 
ATOM     26  O   UNL     1      -0.324  12.981  22.959  0.00  0.00    +0.000 OA
ATOM     27  O   UNL     1      -1.070  10.589  23.356  0.00  0.00    +0.000 OA
BRANCH  25  32
ATOM     28  C   UNL     1      -6.945  13.701  23.688  0.00  0.00    +0.000 C 
ATOM     29  C   UNL     1      -5.528  13.265  23.452  0.00  0.00    +0.000 A 
ATOM     30  C   UNL     1      -4.803  12.606  24.456  0.00  0.00    +0.000 A 
ATOM     31  C   UNL     1      -3.487  12.194  24.228  0.00  0.00    +0.000 A 
ATOM     32  C   UNL     1      -2.891  12.424  22.986  0.00  0.00    +0.000 A 
ATOM     33  C   UNL     1      -3.596  13.090  21.978  0.00  0.00    +0.000 A 
ATOM     34  C   UNL     1      -4.909  13.509  22.216  0.00  0.00    +0.000 A 
ENDBRANCH  25  32
ENDBRANCH  23  25
ENDBRANCH   1  23
TORSDOF 5
ENDMDL
MODEL 9
REMARK VINA RESULT:      -8.9      1.412      1.669
REMARK  Name = 
REMARK  7 active torsions:
REMARK  status: ('A' for Active; 'I' for Inactive)
REMARK    1  A    between atoms: C_1  and  C_2
REMARK    2  A    between atoms: C_5  and  S_6
REMARK    3  A    between atoms: S_6  and  N_9
REMARK    4  A    between atoms: N_9  and  C_10
REMARK    5  A    between atoms: C_13  and  C_14
REMARK    6  A    between atoms: C_16  and  C_17
REMARK    7  A    between atoms: C_22  and  C_23
REMARK                            x       y       z     vdW  Elec       q    Type
REMARK                         _______ _______ _______ _____ _____    ______ ____
ROOT
ATOM      1  C   UNL     1       4.774   5.087  19.060  0.00  0.00    +0.000 A 
ATOM      2  C   UNL     1       5.122   3.732  18.962  0.00  0.00    +0.000 A 
ATOM      3  C   UNL     1       4.148   2.757  18.710  0.00  0.00    +0.000 A 
ATOM      4  C   UNL     1       2.814   3.120  18.523  0.00  0.00    +0.000 A 
ATOM      5  C   UNL     1       1.748   2.094  18.258  0.00  0.00    +0.000 C 
ATOM      6  C   UNL     1       2.471   4.477  18.586  0.00  0.00    +0.000 A 
ATOM      7  C   UNL     1       3.434   5.469  18.858  0.00  0.00    +0.000 A 
ENDROOT
BRANCH   7   8
ATOM      8  C   UNL     1       2.916   6.867  18.978  0.00  0.00    +0.000 C 
ATOM      9  O   UNL     1       3.182   7.664  18.084  0.00  0.00    +0.000 OA
ATOM     10  N   UNL     1       2.149   7.119  20.088  0.00  0.00    +0.000 N 
ATOM     11  C   UNL     1       1.583   8.336  20.327  0.00  0.00    +0.000 A 
ATOM     12  N   UNL     1       1.466   9.373  19.539  0.00  0.00    +0.000 NA
ATOM     13  C   UNL     1       0.846  10.409  20.219  0.00  0.00    +0.000 A 
ATOM     14  C   UNL     1       0.587  10.146  21.553  0.00  0.00    +0.000 A 
ATOM     15  S   UNL     1       0.928   8.501  21.892  0.00  0.00    +0.000 S 
ATOM     16  H   UNL     1       2.066   6.419  20.810  0.00  0.00    +0.000 HD
BRANCH  13  17
ATOM     17  C   UNL     1       0.502  11.656  19.546  0.00  0.00    +0.000 A 
ATOM     18  C   UNL     1       1.338  12.779  19.620  0.00  0.00    +0.000 A 
ATOM     19  C   UNL     1       0.966  13.986  19.024  0.00  0.00    +0.000 A 
ATOM     20  C   UNL     1      -0.250  14.081  18.350  0.00  0.00    +0.000 A 
ATOM     21  C   UNL     1      -1.089  12.971  18.264  0.00  0.00    +0.000 A 
ATOM     22  C   UNL     1      -0.715  11.765  18.862  0.00  0.00    +0.000 A 
ENDBRANCH  13  17
ENDBRANCH   7   8
BRANCH   1  23
ATOM     23  N   UNL     1       5.826   6.054  19.357  0.00  0.00    +0.000 N 
ATOM     24  H   UNL     1       6.128   5.920  20.328  0.00  0.00    +0.000 HD
BRANCH  23  25
ATOM     25  S   UNL     1       7.275   5.836  18.444  0.00  0.00    +0.000 S 
ATOM     26  O   UNL     1       8.023   4.737  19.005  0.00  0.00    +0.000 OA
ATOM     27  O   UNL     1       7.833   7.158  18.269  0.00  0.00    +0.000 OA
BRANCH  25  32
ATOM     28  C   UNL     1       5.088   4.060  13.040  0.00  0.00    +0.000 C 
ATOM     29  C   UNL     1       5.615   4.490  14.378  0.00  0.00    +0.000 A 
ATOM     30  C   UNL     1       6.526   3.689  15.082  0.00  0.00    +0.000 A 
ATOM     31  C   UNL     1       7.020   4.098  16.324  0.00  0.00    +0.000 A 
ATOM     32  C   UNL     1       6.618   5.322  16.864  0.00  0.00    +0.000 A 
ATOM     33  C   UNL     1       5.701   6.128  16.179  0.00  0.00    +0.000 A 
ATOM     34  C   UNL     1       5.203   5.708  14.942  0.00  0.00    +0.000 A 
ENDBRANCH  25  32
ENDBRANCH  23  25
ENDBRANCH   1  23
TORSDOF 5
ENDMDL
