MODEL 1
REMARK VINA RESULT:      -8.5      0.000      0.000
REMARK  Name = 
REMARK  3 active torsions:
REMARK  status: ('A' for Active; 'I' for Inactive)
REMARK    1  A    between atoms: C_5  and  N_6
REMARK    2  A    between atoms: C_9  and  N_10
REMARK    3  A    between atoms: N_10  and  C_11
REMARK                            x       y       z     vdW  Elec       q    Type
REMARK                         _______ _______ _______ _____ _____    ______ ____
ROOT
ATOM      1  N   UNL     1       8.728   8.233  19.051  0.00  0.00    +0.000 N 
ATOM      2  C   UNL     1       7.874   7.430  18.261  0.00  0.00    +0.000 A 
ATOM      3  C   UNL     1       7.508   6.185  18.745  0.00  0.00    +0.000 A 
ATOM      4  C   UNL     1       6.689   5.403  17.955  0.00  0.00    +0.000 A 
ATOM      5  N   UNL     1       6.252   5.826  16.759  0.00  0.00    +0.000 NA
ATOM      6  C   UNL     1       6.649   7.038  16.372  0.00  0.00    +0.000 A 
ATOM      7  N   UNL     1       7.439   7.857  17.067  0.00  0.00    +0.000 NA
ATOM      8  H   UNL     1       8.905   7.836  19.964  0.00  0.00    +0.000 HD
ENDROOT
BRANCH   1  13
ATOM      9 CL   UNL     1       9.565  14.131  18.948  0.00  0.00    +0.000 Cl
ATOM     10  C   UNL     1       9.392  12.414  19.003  0.00  0.00    +0.000 A 
ATOM     11  C   UNL     1       9.148  11.746  17.806  0.00  0.00    +0.000 A 
ATOM     12  C   UNL     1       8.960  10.361  17.799  0.00  0.00    +0.000 A 
ATOM     13  C   UNL     1       8.988   9.616  18.984  0.00  0.00    +0.000 A 
ATOM     14  C   UNL     1       9.293  10.297  20.174  0.00  0.00    +0.000 A 
ATOM     15  C   UNL     1       9.482  11.685  20.189  0.00  0.00    +0.000 A 
ATOM     16 CL   UNL     1       9.799  12.432  21.714  0.00  0.00    +0.000 Cl
ENDBRANCH   1  13
BRANCH   4  17
ATOM     17  N   UNL     1       6.328   4.112  18.414  0.00  0.00    +0.000 N 
ATOM     18  H   UNL     1       6.933   3.827  19.179  0.00  0.00    +0.000 HD
BRANCH  17  19
ATOM     19  C   UNL     1       4.998   3.662  18.537  0.00  0.00    +0.000 A 
ATOM     20  C   UNL     1       4.215   3.440  17.393  0.00  0.00    +0.000 A 
ATOM     21  C   UNL     1       2.892   3.013  17.496  0.00  0.00    +0.000 A 
ATOM     22  C   UNL     1       2.331   2.788  18.752  0.00  0.00    +0.000 A 
ATOM     23 CL   UNL     1       0.682   2.281  18.813  0.00  0.00    +0.000 Cl
ATOM     24  C   UNL     1       3.105   2.978  19.901  0.00  0.00    +0.000 A 
ATOM     25 CL   UNL     1       2.477   2.721  21.491  0.00  0.00    +0.000 Cl
ATOM     26  C   UNL     1       4.437   3.403  19.792  0.00  0.00    +0.000 A 
ENDBRANCH  17  19
ENDBRANCH   4  17
TORSDOF 3
ENDMDL
MODEL 2
REMARK VINA RESULT:      -8.5      7.173      9.548
REMARK  Name = 
REMARK  3 active torsions:
REMARK  status: ('A' for Active; 'I' for Inactive)
REMARK    1  A    between atoms: C_5  and  N_6
REMARK    2  A    between atoms: C_9  and  N_10
REMARK    3  A    between atoms: N_10  and  C_11
REMARK                            x       y       z     vdW  Elec       q    Type
REMARK                         _______ _______ _______ _____ _____    ______ ____
ROOT
ATOM      1  N   UNL     1       2.765   7.104  18.068  0.00  0.00    +0.000 N 
ATOM      2  C   UNL     1       1.984   8.014  18.816  0.00  0.00    +0.000 A 
ATOM      3  C   UNL     1       1.328   9.030  18.140  0.00  0.00    +0.000 A 
ATOM      4  C   UNL     1       0.584   9.923  18.885  0.00  0.00    +0.000 A 
ATOM      5  N   UNL     1       0.488   9.818  20.220  0.00  0.00    +0.000 NA
ATOM      6  C   UNL     1       1.148   8.810  20.789  0.00  0.00    +0.000 A 
ATOM      7  N   UNL     1       1.891   7.906  20.149  0.00  0.00    +0.000 NA
ATOM      8  H   UNL     1       2.674   7.239  17.069  0.00  0.00    +0.000 HD
ENDROOT
BRANCH   1  13
ATOM      9 CL   UNL     1       4.621   1.711  19.792  0.00  0.00    +0.000 Cl
ATOM     10  C   UNL     1       4.068   3.246  19.225  0.00  0.00    +0.000 A 
ATOM     11  C   UNL     1       4.980   4.299  19.204  0.00  0.00    +0.000 A 
ATOM     12  C   UNL     1       4.574   5.571  18.792  0.00  0.00    +0.000 A 
ATOM     13  C   UNL     1       3.250   5.828  18.416  0.00  0.00    +0.000 A 
ATOM     14  C   UNL     1       2.360   4.743  18.388  0.00  0.00    +0.000 A 
ATOM     15  C   UNL     1       2.758   3.465  18.800  0.00  0.00    +0.000 A 
ATOM     16 CL   UNL     1       1.569   2.211  18.779  0.00  0.00    +0.000 Cl
ENDBRANCH   1  13
BRANCH   4  17
ATOM     17  N   UNL     1      -0.070  10.989  18.219  0.00  0.00    +0.000 N 
ATOM     18  H   UNL     1       0.435  11.239  17.374  0.00  0.00    +0.000 HD
BRANCH  17  19
ATOM     19  C   UNL     1      -1.470  11.111  18.110  0.00  0.00    +0.000 A 
ATOM     20  C   UNL     1      -2.159  10.472  17.067  0.00  0.00    +0.000 A 
ATOM     21  C   UNL     1      -3.541  10.596  16.933  0.00  0.00    +0.000 A 
ATOM     22  C   UNL     1      -4.262  11.358  17.851  0.00  0.00    +0.000 A 
ATOM     23 CL   UNL     1      -5.967  11.492  17.617  0.00  0.00    +0.000 Cl
ATOM     24  C   UNL     1      -3.594  11.980  18.911  0.00  0.00    +0.000 A 
ATOM     25 CL   UNL     1      -4.421  12.942  20.086  0.00  0.00    +0.000 Cl
ATOM     26  C   UNL     1      -2.204  11.847  19.045  0.00  0.00    +0.000 A 
ENDBRANCH  17  19
ENDBRANCH   4  17
TORSDOF 3
ENDMDL
MODEL 3
REMARK VINA RESULT:      -8.4      7.161      9.652
REMARK  Name = 
REMARK  3 active torsions:
REMARK  status: ('A' for Active; 'I' for Inactive)
REMARK    1  A    between atoms: C_5  and  N_6
REMARK    2  A    between atoms: C_9  and  N_10
REMARK    3  A    between atoms: N_10  and  C_11
REMARK                            x       y       z     vdW  Elec       q    Type
REMARK                         _______ _______ _______ _____ _____    ______ ____
ROOT
ATOM      1  N   UNL     1       2.638   7.298  18.010  0.00  0.00    +0.000 N 
ATOM      2  C   UNL     1       1.900   8.200  18.811  0.00  0.00    +0.000 A 
ATOM      3  C   UNL     1       1.267   9.264  18.190  0.00  0.00    +0.000 A 
ATOM      4  C   UNL     1       0.566  10.148  18.987  0.00  0.00    +0.000 A 
ATOM      5  N   UNL     1       0.489   9.988  20.317  0.00  0.00    +0.000 NA
ATOM      6  C   UNL     1       1.125   8.936  20.830  0.00  0.00    +0.000 A 
ATOM      7  N   UNL     1       1.826   8.036  20.139  0.00  0.00    +0.000 NA
ATOM      8  H   UNL     1       2.535   7.480  17.020  0.00  0.00    +0.000 HD
ENDROOT
BRANCH   1  13
ATOM      9 CL   UNL     1       4.340   1.777  19.466  0.00  0.00    +0.000 Cl
ATOM     10  C   UNL     1       3.831   3.352  18.976  0.00  0.00    +0.000 A 
ATOM     11  C   UNL     1       4.775   4.376  18.990  0.00  0.00    +0.000 A 
ATOM     12  C   UNL     1       4.405   5.678  18.641  0.00  0.00    +0.000 A 
ATOM     13  C   UNL     1       3.086   5.993  18.294  0.00  0.00    +0.000 A 
ATOM     14  C   UNL     1       2.161   4.939  18.229  0.00  0.00    +0.000 A 
ATOM     15  C   UNL     1       2.523   3.631  18.578  0.00  0.00    +0.000 A 
ATOM     16 CL   UNL     1       1.294   2.418  18.516  0.00  0.00    +0.000 Cl
ENDBRANCH   1  13
BRANCH   4  17
ATOM     17  N   UNL     1      -0.063  11.263  18.379  0.00  0.00    +0.000 N 
ATOM     18  H   UNL     1       0.517  11.631  17.631  0.00  0.00    +0.000 HD
BRANCH  17  19
ATOM     19  C   UNL     1      -1.447  11.348  18.127  0.00  0.00    +0.000 A 
ATOM     20  C   UNL     1      -2.312  11.892  19.089  0.00  0.00    +0.000 A 
ATOM     21  C   UNL     1      -3.686  11.966  18.864  0.00  0.00    +0.000 A 
ATOM     22  C   UNL     1      -4.219  11.505  17.663  0.00  0.00    +0.000 A 
ATOM     23 CL   UNL     1      -5.929  11.605  17.454  0.00  0.00    +0.000 Cl
ATOM     24  C   UNL     1      -3.368  10.984  16.682  0.00  0.00    +0.000 A 
ATOM     25 CL   UNL     1      -3.957  10.391  15.168  0.00  0.00    +0.000 Cl
ATOM     26  C   UNL     1      -1.986  10.916  16.911  0.00  0.00    +0.000 A 
ENDBRANCH  17  19
ENDBRANCH   4  17
TORSDOF 3
ENDMDL
MODEL 4
REMARK VINA RESULT:      -8.3      1.027      1.173
REMARK  Name = 
REMARK  3 active torsions:
REMARK  status: ('A' for Active; 'I' for Inactive)
REMARK    1  A    between atoms: C_5  and  N_6
REMARK    2  A    between atoms: C_9  and  N_10
REMARK    3  A    between atoms: N_10  and  C_11
REMARK                            x       y       z     vdW  Elec       q    Type
REMARK                         _______ _______ _______ _____ _____    ______ ____
ROOT
ATOM      1  N   UNL     1       8.840   8.415  19.194  0.00  0.00    +0.000 N 
ATOM      2  C   UNL     1       8.019   7.585  18.397  0.00  0.00    +0.000 A 
ATOM      3  C   UNL     1       7.603   6.373  18.921  0.00  0.00    +0.000 A 
ATOM      4  C   UNL     1       6.818   5.564  18.124  0.00  0.00    +0.000 A 
ATOM      5  N   UNL     1       6.459   5.931  16.884  0.00  0.00    +0.000 NA
ATOM      6  C   UNL     1       6.901   7.114  16.460  0.00  0.00    +0.000 A 
ATOM      7  N   UNL     1       7.664   7.957  17.159  0.00  0.00    +0.000 NA
ATOM      8  H   UNL     1       8.956   8.064  20.136  0.00  0.00    +0.000 HD
ENDROOT
BRANCH   1  13
ATOM      9 CL   UNL     1       9.788  14.287  18.837  0.00  0.00    +0.000 Cl
ATOM     10  C   UNL     1       9.581  12.578  18.971  0.00  0.00    +0.000 A 
ATOM     11  C   UNL     1       9.414  11.848  17.796  0.00  0.00    +0.000 A 
ATOM     12  C   UNL     1       9.203  10.467  17.851  0.00  0.00    +0.000 A 
ATOM     13  C   UNL     1       9.129   9.789  19.073  0.00  0.00    +0.000 A 
ATOM     14  C   UNL     1       9.357  10.530  20.243  0.00  0.00    +0.000 A 
ATOM     15  C   UNL     1       9.569  11.915  20.198  0.00  0.00    +0.000 A 
ATOM     16 CL   UNL     1       9.784  12.740  21.700  0.00  0.00    +0.000 Cl
ENDBRANCH   1  13
BRANCH   4  17
ATOM     17  N   UNL     1       6.406   4.304  18.626  0.00  0.00    +0.000 N 
ATOM     18  H   UNL     1       7.136   3.899  19.204  0.00  0.00    +0.000 HD
BRANCH  17  19
ATOM     19  C   UNL     1       5.099   4.021  19.071  0.00  0.00    +0.000 A 
ATOM     20  C   UNL     1       4.620   2.702  19.076  0.00  0.00    +0.000 A 
ATOM     21  C   UNL     1       3.324   2.406  19.495  0.00  0.00    +0.000 A 
ATOM     22  C   UNL     1       2.483   3.429  19.927  0.00  0.00    +0.000 A 
ATOM     23 CL   UNL     1       0.883   3.000  20.412  0.00  0.00    +0.000 Cl
ATOM     24  C   UNL     1       2.953   4.746  19.953  0.00  0.00    +0.000 A 
ATOM     25 CL   UNL     1       1.967   6.068  20.476  0.00  0.00    +0.000 Cl
ATOM     26  C   UNL     1       4.259   5.039  19.536  0.00  0.00    +0.000 A 
ENDBRANCH  17  19
ENDBRANCH   4  17
TORSDOF 3
ENDMDL
MODEL 5
REMARK VINA RESULT:      -8.3      1.347      9.139
REMARK  Name = 
REMARK  3 active torsions:
REMARK  status: ('A' for Active; 'I' for Inactive)
REMARK    1  A    between atoms: C_5  and  N_6
REMARK    2  A    between atoms: C_9  and  N_10
REMARK    3  A    between atoms: N_10  and  C_11
REMARK                            x       y       z     vdW  Elec       q    Type
REMARK                         _______ _______ _______ _____ _____    ______ ____
ROOT
ATOM      1  N   UNL     1       4.775   6.137  17.075  0.00  0.00    +0.000 N 
ATOM      2  C   UNL     1       6.013   6.478  17.666  0.00  0.00    +0.000 A 
ATOM      3  C   UNL     1       6.624   7.660  17.279  0.00  0.00    +0.000 A 
ATOM      4  C   UNL     1       7.842   7.971  17.851  0.00  0.00    +0.000 A 
ATOM      5  N   UNL     1       8.421   7.166  18.755  0.00  0.00    +0.000 NA
ATOM      6  C   UNL     1       7.764   6.052  19.072  0.00  0.00    +0.000 A 
ATOM      7  N   UNL     1       6.588   5.672  18.568  0.00  0.00    +0.000 NA
ATOM      8  H   UNL     1       4.407   6.872  16.484  0.00  0.00    +0.000 HD
ENDROOT
BRANCH   1  13
ATOM      9 CL   UNL     1       0.792   2.204  19.117  0.00  0.00    +0.000 Cl
ATOM     10  C   UNL     1       1.891   3.391  18.512  0.00  0.00    +0.000 A 
ATOM     11  C   UNL     1       2.628   3.077  17.373  0.00  0.00    +0.000 A 
ATOM     12  C   UNL     1       3.560   3.987  16.866  0.00  0.00    +0.000 A 
ATOM     13  C   UNL     1       3.795   5.215  17.492  0.00  0.00    +0.000 A 
ATOM     14  C   UNL     1       3.002   5.540  18.605  0.00  0.00    +0.000 A 
ATOM     15  C   UNL     1       2.067   4.634  19.121  0.00  0.00    +0.000 A 
ATOM     16 CL   UNL     1       1.182   5.112  20.526  0.00  0.00    +0.000 Cl
ENDBRANCH   1  13
BRANCH   4  17
ATOM     17  N   UNL     1       8.501   9.159  17.448  0.00  0.00    +0.000 N 
ATOM     18  H   UNL     1       8.163   9.458  16.537  0.00  0.00    +0.000 HD
BRANCH  17  19
ATOM     19  C   UNL     1       8.820  10.219  18.319  0.00  0.00    +0.000 A 
ATOM     20  C   UNL     1       9.191   9.960  19.648  0.00  0.00    +0.000 A 
ATOM     21  C   UNL     1       9.491  10.998  20.529  0.00  0.00    +0.000 A 
ATOM     22  C   UNL     1       9.435  12.319  20.090  0.00  0.00    +0.000 A 
ATOM     23 CL   UNL     1       9.798  13.559  21.235  0.00  0.00    +0.000 Cl
ATOM     24  C   UNL     1       9.093  12.594  18.762  0.00  0.00    +0.000 A 
ATOM     25 CL   UNL     1       9.002  14.208  18.147  0.00  0.00    +0.000 Cl
ATOM     26  C   UNL     1       8.797  11.546  17.878  0.00  0.00    +0.000 A 
ENDBRANCH  17  19
ENDBRANCH   4  17
TORSDOF 3
ENDMDL
MODEL 6
REMARK VINA RESULT:      -8.2      5.700      7.229
REMARK  Name = 
REMARK  3 active torsions:
REMARK  status: ('A' for Active; 'I' for Inactive)
REMARK    1  A    between atoms: C_5  and  N_6
REMARK    2  A    between atoms: C_9  and  N_10
REMARK    3  A    between atoms: N_10  and  C_11
REMARK                            x       y       z     vdW  Elec       q    Type
REMARK                         _______ _______ _______ _____ _____    ______ ____
ROOT
ATOM      1  N   UNL     1       2.657   7.476  18.761  0.00  0.00    +0.000 N 
ATOM      2  C   UNL     1       2.796   6.069  18.735  0.00  0.00    +0.000 A 
ATOM      3  C   UNL     1       3.975   5.533  18.244  0.00  0.00    +0.000 A 
ATOM      4  C   UNL     1       4.089   4.158  18.206  0.00  0.00    +0.000 A 
ATOM      5  N   UNL     1       3.100   3.357  18.633  0.00  0.00    +0.000 NA
ATOM      6  C   UNL     1       2.003   3.956  19.092  0.00  0.00    +0.000 A 
ATOM      7  N   UNL     1       1.806   5.274  19.162  0.00  0.00    +0.000 NA
ATOM      8  H   UNL     1       3.508   7.958  18.501  0.00  0.00    +0.000 HD
ENDROOT
BRANCH   1  13
ATOM      9 CL   UNL     1      -0.957  11.140  21.765  0.00  0.00    +0.000 Cl
ATOM     10  C   UNL     1       0.033  10.059  20.852  0.00  0.00    +0.000 A 
ATOM     11  C   UNL     1       0.620   8.989  21.523  0.00  0.00    +0.000 A 
ATOM     12  C   UNL     1       1.462   8.107  20.840  0.00  0.00    +0.000 A 
ATOM     13  C   UNL     1       1.756   8.284  19.483  0.00  0.00    +0.000 A 
ATOM     14  C   UNL     1       1.110   9.332  18.809  0.00  0.00    +0.000 A 
ATOM     15  C   UNL     1       0.266  10.221  19.486  0.00  0.00    +0.000 A 
ATOM     16 CL   UNL     1      -0.435  11.510  18.573  0.00  0.00    +0.000 Cl
ENDBRANCH   1  13
BRANCH   4  17
ATOM     17  N   UNL     1       5.273   3.586  17.678  0.00  0.00    +0.000 N 
ATOM     18  H   UNL     1       5.277   2.581  17.827  0.00  0.00    +0.000 HD
BRANCH  17  19
ATOM     19  C   UNL     1       5.872   3.988  16.468  0.00  0.00    +0.000 A 
ATOM     20  C   UNL     1       7.045   4.760  16.477  0.00  0.00    +0.000 A 
ATOM     21  C   UNL     1       7.640   5.183  15.290  0.00  0.00    +0.000 A 
ATOM     22  C   UNL     1       7.076   4.830  14.066  0.00  0.00    +0.000 A 
ATOM     23 CL   UNL     1       7.849   5.402  12.633  0.00  0.00    +0.000 Cl
ATOM     24  C   UNL     1       5.923   4.039  14.038  0.00  0.00    +0.000 A 
ATOM     25 CL   UNL     1       5.166   3.562  12.557  0.00  0.00    +0.000 Cl
ATOM     26  C   UNL     1       5.331   3.611  15.235  0.00  0.00    +0.000 A 
ENDBRANCH  17  19
ENDBRANCH   4  17
TORSDOF 3
ENDMDL
MODEL 7
REMARK VINA RESULT:      -8.2      5.525      7.039
REMARK  Name = 
REMARK  3 active torsions:
REMARK  status: ('A' for Active; 'I' for Inactive)
REMARK    1  A    between atoms: C_5  and  N_6
REMARK    2  A    between atoms: C_9  and  N_10
REMARK    3  A    between atoms: N_10  and  C_11
REMARK                            x       y       z     vdW  Elec       q    Type
REMARK                         _______ _______ _______ _____ _____    ______ ____
ROOT
ATOM      1  N   UNL     1       2.557   7.535  18.090  0.00  0.00    +0.000 N 
ATOM      2  C   UNL     1       2.853   6.208  18.477  0.00  0.00    +0.000 A 
ATOM      3  C   UNL     1       3.944   5.581  17.898  0.00  0.00    +0.000 A 
ATOM      4  C   UNL     1       4.210   4.279  18.271  0.00  0.00    +0.000 A 
ATOM      5  N   UNL     1       3.447   3.633  19.167  0.00  0.00    +0.000 NA
ATOM      6  C   UNL     1       2.420   4.311  19.676  0.00  0.00    +0.000 A 
ATOM      7  N   UNL     1       2.088   5.567  19.372  0.00  0.00    +0.000 NA
ATOM      8  H   UNL     1       3.262   7.932  17.483  0.00  0.00    +0.000 HD
ENDROOT
BRANCH   1  13
ATOM      9 CL   UNL     1      -1.035  11.403  20.853  0.00  0.00    +0.000 Cl
ATOM     10  C   UNL     1       0.062  10.309  20.092  0.00  0.00    +0.000 A 
ATOM     11  C   UNL     1       0.241  10.418  18.715  0.00  0.00    +0.000 A 
ATOM     12  C   UNL     1       1.088   9.531  18.043  0.00  0.00    +0.000 A 
ATOM     13  C   UNL     1       1.754   8.505  18.722  0.00  0.00    +0.000 A 
ATOM     14  C   UNL     1       1.609   8.446  20.118  0.00  0.00    +0.000 A 
ATOM     15  C   UNL     1       0.762   9.330  20.798  0.00  0.00    +0.000 A 
ATOM     16 CL   UNL     1       0.612   9.137  22.509  0.00  0.00    +0.000 Cl
ENDBRANCH   1  13
BRANCH   4  17
ATOM     17  N   UNL     1       5.302   3.606  17.669  0.00  0.00    +0.000 N 
ATOM     18  H   UNL     1       5.197   2.601  17.770  0.00  0.00    +0.000 HD
BRANCH  17  19
ATOM     19  C   UNL     1       5.902   4.002  16.457  0.00  0.00    +0.000 A 
ATOM     20  C   UNL     1       7.064   4.790  16.462  0.00  0.00    +0.000 A 
ATOM     21  C   UNL     1       7.659   5.206  15.273  0.00  0.00    +0.000 A 
ATOM     22  C   UNL     1       7.105   4.830  14.051  0.00  0.00    +0.000 A 
ATOM     23 CL   UNL     1       7.877   5.395  12.614  0.00  0.00    +0.000 Cl
ATOM     24  C   UNL     1       5.963   4.023  14.027  0.00  0.00    +0.000 A 
ATOM     25 CL   UNL     1       5.219   3.519  12.549  0.00  0.00    +0.000 Cl
ATOM     26  C   UNL     1       5.371   3.603  15.226  0.00  0.00    +0.000 A 
ENDBRANCH  17  19
ENDBRANCH   4  17
TORSDOF 3
ENDMDL
MODEL 8
REMARK VINA RESULT:      -8.2      1.354      9.306
REMARK  Name = 
REMARK  3 active torsions:
REMARK  status: ('A' for Active; 'I' for Inactive)
REMARK    1  A    between atoms: C_5  and  N_6
REMARK    2  A    between atoms: C_9  and  N_10
REMARK    3  A    between atoms: N_10  and  C_11
REMARK                            x       y       z     vdW  Elec       q    Type
REMARK                         _______ _______ _______ _____ _____    ______ ____
ROOT
ATOM      1  N   UNL     1       4.715   6.125  17.134  0.00  0.00    +0.000 N 
ATOM      2  C   UNL     1       5.963   6.476  17.699  0.00  0.00    +0.000 A 
ATOM      3  C   UNL     1       6.563   7.655  17.288  0.00  0.00    +0.000 A 
ATOM      4  C   UNL     1       7.791   7.975  17.833  0.00  0.00    +0.000 A 
ATOM      5  N   UNL     1       8.388   7.183  18.737  0.00  0.00    +0.000 NA
ATOM      6  C   UNL     1       7.739   6.071  19.079  0.00  0.00    +0.000 A 
ATOM      7  N   UNL     1       6.555   5.682  18.601  0.00  0.00    +0.000 NA
ATOM      8  H   UNL     1       4.335   6.852  16.542  0.00  0.00    +0.000 HD
ENDROOT
BRANCH   1  13
ATOM      9 CL   UNL     1       0.625   2.098  18.735  0.00  0.00    +0.000 Cl
ATOM     10  C   UNL     1       1.850   3.246  18.331  0.00  0.00    +0.000 A 
ATOM     11  C   UNL     1       1.497   4.593  18.302  0.00  0.00    +0.000 A 
ATOM     12  C   UNL     1       2.441   5.560  17.942  0.00  0.00    +0.000 A 
ATOM     13  C   UNL     1       3.745   5.206  17.581  0.00  0.00    +0.000 A 
ATOM     14  C   UNL     1       4.101   3.851  17.671  0.00  0.00    +0.000 A 
ATOM     15  C   UNL     1       3.161   2.875  18.030  0.00  0.00    +0.000 A 
ATOM     16 CL   UNL     1       3.688   1.230  18.058  0.00  0.00    +0.000 Cl
ENDBRANCH   1  13
BRANCH   4  17
ATOM     17  N   UNL     1       8.440   9.159  17.404  0.00  0.00    +0.000 N 
ATOM     18  H   UNL     1       8.066   9.462  16.509  0.00  0.00    +0.000 HD
BRANCH  17  19
ATOM     19  C   UNL     1       8.801  10.217  18.263  0.00  0.00    +0.000 A 
ATOM     20  C   UNL     1       9.186   9.957  19.587  0.00  0.00    +0.000 A 
ATOM     21  C   UNL     1       9.529  10.992  20.455  0.00  0.00    +0.000 A 
ATOM     22  C   UNL     1       9.502  12.311  20.008  0.00  0.00    +0.000 A 
ATOM     23 CL   UNL     1       9.917  13.549  21.137  0.00  0.00    +0.000 Cl
ATOM     24  C   UNL     1       9.147  12.586  18.683  0.00  0.00    +0.000 A 
ATOM     25 CL   UNL     1       9.090  14.197  18.057  0.00  0.00    +0.000 Cl
ATOM     26  C   UNL     1       8.808  11.541  17.812  0.00  0.00    +0.000 A 
ENDBRANCH  17  19
ENDBRANCH   4  17
TORSDOF 3
ENDMDL
MODEL 9
REMARK VINA RESULT:      -8.2      1.041      1.515
REMARK  Name = 
REMARK  3 active torsions:
REMARK  status: ('A' for Active; 'I' for Inactive)
REMARK    1  A    between atoms: C_5  and  N_6
REMARK    2  A    between atoms: C_9  and  N_10
REMARK    3  A    between atoms: N_10  and  C_11
REMARK                            x       y       z     vdW  Elec       q    Type
REMARK                         _______ _______ _______ _____ _____    ______ ____
ROOT
ATOM      1  N   UNL     1       8.546   8.174  19.018  0.00  0.00    +0.000 N 
ATOM      2  C   UNL     1       7.901   7.203  18.219  0.00  0.00    +0.000 A 
ATOM      3  C   UNL     1       7.407   6.066  18.836  0.00  0.00    +0.000 A 
ATOM      4  C   UNL     1       6.796   5.117  18.041  0.00  0.00    +0.000 A 
ATOM      5  N   UNL     1       6.675   5.282  16.715  0.00  0.00    +0.000 NA
ATOM      6  C   UNL     1       7.174   6.407  16.204  0.00  0.00    +0.000 A 
ATOM      7  N   UNL     1       7.782   7.373  16.895  0.00  0.00    +0.000 NA
ATOM      8  H   UNL     1       8.485   7.971  20.008  0.00  0.00    +0.000 HD
ENDROOT
BRANCH   1  13
ATOM      9 CL   UNL     1       9.669  13.962  18.151  0.00  0.00    +0.000 Cl
ATOM     10  C   UNL     1       9.414  12.270  18.384  0.00  0.00    +0.000 A 
ATOM     11  C   UNL     1       8.473  11.636  17.576  0.00  0.00    +0.000 A 
ATOM     12  C   UNL     1       8.199  10.276  17.750  0.00  0.00    +0.000 A 
ATOM     13  C   UNL     1       8.836   9.526  18.744  0.00  0.00    +0.000 A 
ATOM     14  C   UNL     1       9.824  10.166  19.510  0.00  0.00    +0.000 A 
ATOM     15  C   UNL     1      10.104  11.529  19.343  0.00  0.00    +0.000 A 
ATOM     16 CL   UNL     1      11.298  12.232  20.375  0.00  0.00    +0.000 Cl
ENDBRANCH   1  13
BRANCH   4  17
ATOM     17  N   UNL     1       6.311   3.930  18.645  0.00  0.00    +0.000 N 
ATOM     18  H   UNL     1       6.947   3.619  19.373  0.00  0.00    +0.000 HD
BRANCH  17  19
ATOM     19  C   UNL     1       4.952   3.687  18.927  0.00  0.00    +0.000 A 
ATOM     20  C   UNL     1       4.586   2.750  19.906  0.00  0.00    +0.000 A 
ATOM     21  C   UNL     1       3.247   2.483  20.185  0.00  0.00    +0.000 A 
ATOM     22  C   UNL     1       2.245   3.161  19.493  0.00  0.00    +0.000 A 
ATOM     23 CL   UNL     1       0.607   2.770  19.870  0.00  0.00    +0.000 Cl
ATOM     24  C   UNL     1       2.592   4.117  18.533  0.00  0.00    +0.000 A 
ATOM     25 CL   UNL     1       1.404   4.996  17.634  0.00  0.00    +0.000 Cl
ATOM     26  C   UNL     1       3.941   4.386  18.260  0.00  0.00    +0.000 A 
ENDBRANCH  17  19
ENDBRANCH   4  17
TORSDOF 3
ENDMDL
