MODEL 1
REMARK VINA RESULT:      -6.9      0.000      0.000
REMARK  Name = 
REMARK  10 active torsions:
REMARK  status: ('A' for Active; 'I' for Inactive)
REMARK    1  A    between atoms: C_1  and  O_2
REMARK    2  A    between atoms: O_2  and  C_3
REMARK    3  A    between atoms: C_5  and  O_6
REMARK    4  A    between atoms: O_6  and  C_7
REMARK    5  A    between atoms: C_8  and  O_9
REMARK    6  A    between atoms: O_9  and  C_10
REMARK    7  A    between atoms: C_12  and  C_13
REMARK    8  A    between atoms: C_13  and  N_14
REMARK    9  A    between atoms: N_17  and  C_18
REMARK   10  A    between atoms: C_18  and  C_19
REMARK                            x       y       z     vdW  Elec       q    Type
REMARK                         _______ _______ _______ _____ _____    ______ ____
ROOT
ATOM      1  C   UNL     1       3.881   5.303  19.439  0.00  0.00    +0.000 C 
ENDROOT
BRANCH   1   7
ATOM      2  C   UNL     1       4.660   4.138  17.366  0.00  0.00    +0.000 A 
ATOM      3  C   UNL     1       5.503   3.995  16.267  0.00  0.00    +0.000 A 
ATOM      4  C   UNL     1       6.535   4.953  16.040  0.00  0.00    +0.000 A 
ATOM      5  C   UNL     1       6.703   6.050  16.916  0.00  0.00    +0.000 A 
ATOM      6  C   UNL     1       5.854   6.170  18.031  0.00  0.00    +0.000 A 
ATOM      7  C   UNL     1       4.818   5.244  18.233  0.00  0.00    +0.000 A 
BRANCH   2   9
ATOM      8  C   UNL     1       3.542   1.977  18.012  0.00  0.00    +0.000 C 
ATOM      9  O   UNL     1       3.658   3.355  17.799  0.00  0.00    +0.000 OA
ENDBRANCH   2   9
BRANCH   4  10
ATOM     10  O   UNL     1       7.297   4.677  14.908  0.00  0.00    +0.000 OA
ATOM     11  C   UNL     1       6.616   4.175  13.762  0.00  0.00    +0.000 C 
ENDBRANCH   4  10
BRANCH   5  12
ATOM     12  O   UNL     1       7.701   6.973  16.660  0.00  0.00    +0.000 OA
ATOM     13  C   UNL     1       7.830   8.055  17.577  0.00  0.00    +0.000 C 
ENDBRANCH   5  12
ENDBRANCH   1   7
BRANCH   1  14
ATOM     14  N   UNL     1       2.468   5.615  19.220  0.00  0.00    +0.000 NA
ATOM     15  C   UNL     1       1.714   5.882  20.457  0.00  0.00    +0.000 C 
ATOM     16  C   UNL     1       1.517   7.326  20.977  0.00  0.00    +0.000 C 
ATOM     17  N   UNL     1       1.581   8.441  20.038  0.00  0.00    +0.000 NA
ATOM     18  C   UNL     1       2.366   8.180  18.838  0.00  0.00    +0.000 C 
ATOM     19  C   UNL     1       2.370   6.740  18.270  0.00  0.00    +0.000 C 
BRANCH  17  20
ATOM     20  C   UNL     1       0.333   9.177  19.833  0.00  0.00    +0.000 C 
BRANCH  20  21
ATOM     21  C   UNL     1      -0.135   9.960  21.006  0.00  0.00    +0.000 A 
ATOM     22  C   UNL     1      -0.275  11.313  21.241  0.00  0.00    +0.000 A 
ATOM     23  C   UNL     1      -0.679  11.440  22.590  0.00  0.00    +0.000 A 
ATOM     24  C   UNL     1      -0.804  10.161  23.076  0.00  0.00    +0.000 A 
ATOM     25  O   UNL     1      -0.509   9.255  22.111  0.00  0.00    +0.000 OA
ENDBRANCH  20  21
ENDBRANCH  17  20
ENDBRANCH   1  14
TORSDOF 7
ENDMDL
MODEL 2
REMARK VINA RESULT:      -6.7      1.395      1.625
REMARK  Name = 
REMARK  10 active torsions:
REMARK  status: ('A' for Active; 'I' for Inactive)
REMARK    1  A    between atoms: C_1  and  O_2
REMARK    2  A    between atoms: O_2  and  C_3
REMARK    3  A    between atoms: C_5  and  O_6
REMARK    4  A    between atoms: O_6  and  C_7
REMARK    5  A    between atoms: C_8  and  O_9
REMARK    6  A    between atoms: O_9  and  C_10
REMARK    7  A    between atoms: C_12  and  C_13
REMARK    8  A    between atoms: C_13  and  N_14
REMARK    9  A    between atoms: N_17  and  C_18
REMARK   10  A    between atoms: C_18  and  C_19
REMARK                            x       y       z     vdW  Elec       q    Type
REMARK                         _______ _______ _______ _____ _____    ______ ____
ROOT
ATOM      1  C   UNL     1       3.798   5.489  19.543  0.00  0.00    +0.000 C 
ENDROOT
BRANCH   1   7
ATOM      2  C   UNL     1       4.676   4.153  17.619  0.00  0.00    +0.000 A 
ATOM      3  C   UNL     1       5.550   3.936  16.555  0.00  0.00    +0.000 A 
ATOM      4  C   UNL     1       6.540   4.914  16.246  0.00  0.00    +0.000 A 
ATOM      5  C   UNL     1       6.638   6.104  17.004  0.00  0.00    +0.000 A 
ATOM      6  C   UNL     1       5.760   6.298  18.086  0.00  0.00    +0.000 A 
ATOM      7  C   UNL     1       4.764   5.350  18.366  0.00  0.00    +0.000 A 
BRANCH   2   9
ATOM      8  C   UNL     1       3.471   1.992  18.084  0.00  0.00    +0.000 C 
ATOM      9  O   UNL     1       3.702   3.371  18.115  0.00  0.00    +0.000 OA
ENDBRANCH   2   9
BRANCH   4  10
ATOM     10  O   UNL     1       7.340   4.559  15.163  0.00  0.00    +0.000 OA
ATOM     11  C   UNL     1       6.733   4.546  13.874  0.00  0.00    +0.000 C 
ENDBRANCH   4  10
BRANCH   5  12
ATOM     12  O   UNL     1       7.598   7.042  16.670  0.00  0.00    +0.000 OA
ATOM     13  C   UNL     1       7.849   8.075  17.618  0.00  0.00    +0.000 C 
ENDBRANCH   5  12
ENDBRANCH   1   7
BRANCH   1  14
ATOM     14  N   UNL     1       2.400   5.827  19.273  0.00  0.00    +0.000 NA
ATOM     15  C   UNL     1       1.656   6.294  20.455  0.00  0.00    +0.000 C 
ATOM     16  C   UNL     1       1.521   7.803  20.770  0.00  0.00    +0.000 C 
ATOM     17  N   UNL     1       1.634   8.774  19.687  0.00  0.00    +0.000 NA
ATOM     18  C   UNL     1       2.410   8.318  18.540  0.00  0.00    +0.000 C 
ATOM     19  C   UNL     1       2.352   6.814  18.176  0.00  0.00    +0.000 C 
BRANCH  17  20
ATOM     20  C   UNL     1       0.420   9.527  19.373  0.00  0.00    +0.000 C 
BRANCH  20  21
ATOM     21  C   UNL     1       0.542  11.002  19.506  0.00  0.00    +0.000 A 
ATOM     22  C   UNL     1       1.134  11.817  20.449  0.00  0.00    +0.000 A 
ATOM     23  C   UNL     1       0.829  13.146  20.071  0.00  0.00    +0.000 A 
ATOM     24  C   UNL     1       0.113  13.057  18.901  0.00  0.00    +0.000 A 
ATOM     25  O   UNL     1      -0.037  11.760  18.533  0.00  0.00    +0.000 OA
ENDBRANCH  20  21
ENDBRANCH  17  20
ENDBRANCH   1  14
TORSDOF 7
ENDMDL
MODEL 3
REMARK VINA RESULT:      -6.6      1.951      2.786
REMARK  Name = 
REMARK  10 active torsions:
REMARK  status: ('A' for Active; 'I' for Inactive)
REMARK    1  A    between atoms: C_1  and  O_2
REMARK    2  A    between atoms: O_2  and  C_3
REMARK    3  A    between atoms: C_5  and  O_6
REMARK    4  A    between atoms: O_6  and  C_7
REMARK    5  A    between atoms: C_8  and  O_9
REMARK    6  A    between atoms: O_9  and  C_10
REMARK    7  A    between atoms: C_12  and  C_13
REMARK    8  A    between atoms: C_13  and  N_14
REMARK    9  A    between atoms: N_17  and  C_18
REMARK   10  A    between atoms: C_18  and  C_19
REMARK                            x       y       z     vdW  Elec       q    Type
REMARK                         _______ _______ _______ _____ _____    ______ ____
ROOT
ATOM      1  C   UNL     1       1.888   7.158  18.601  0.00  0.00    +0.000 C 
ENDROOT
BRANCH   1   7
ATOM      2  C   UNL     1       2.966   5.052  17.788  0.00  0.00    +0.000 A 
ATOM      3  C   UNL     1       4.016   4.336  17.217  0.00  0.00    +0.000 A 
ATOM      4  C   UNL     1       5.194   5.024  16.801  0.00  0.00    +0.000 A 
ATOM      5  C   UNL     1       5.300   6.426  16.954  0.00  0.00    +0.000 A 
ATOM      6  C   UNL     1       4.237   7.130  17.548  0.00  0.00    +0.000 A 
ATOM      7  C   UNL     1       3.066   6.455  17.925  0.00  0.00    +0.000 A 
BRANCH   2   9
ATOM      8  C   UNL     1       1.332   3.375  18.712  0.00  0.00    +0.000 C 
ATOM      9  O   UNL     1       1.792   4.624  18.282  0.00  0.00    +0.000 OA
ENDBRANCH   2   9
BRANCH   4  10
ATOM     10  O   UNL     1       6.156   4.179  16.255  0.00  0.00    +0.000 OA
ATOM     11  C   UNL     1       6.109   3.951  14.849  0.00  0.00    +0.000 C 
ENDBRANCH   4  10
BRANCH   5  12
ATOM     12  O   UNL     1       6.448   7.068  16.525  0.00  0.00    +0.000 OA
ATOM     13  C   UNL     1       7.445   7.333  17.506  0.00  0.00    +0.000 C 
ENDBRANCH   5  12
ENDBRANCH   1   7
BRANCH   1  14
ATOM     14  N   UNL     1       2.084   8.507  19.134  0.00  0.00    +0.000 NA
ATOM     15  C   UNL     1       1.471   9.570  18.318  0.00  0.00    +0.000 C 
ATOM     16  C   UNL     1       0.055  10.105  18.636  0.00  0.00    +0.000 C 
ATOM     17  N   UNL     1      -0.468   9.988  19.993  0.00  0.00    +0.000 NA
ATOM     18  C   UNL     1       0.113   8.905  20.777  0.00  0.00    +0.000 C 
ATOM     19  C   UNL     1       1.597   8.544  20.527  0.00  0.00    +0.000 C 
BRANCH  17  20
ATOM     20  C   UNL     1      -0.681  11.247  20.708  0.00  0.00    +0.000 C 
BRANCH  20  21
ATOM     21  C   UNL     1       0.311  12.313  20.414  0.00  0.00    +0.000 A 
ATOM     22  C   UNL     1       0.280  13.432  19.607  0.00  0.00    +0.000 A 
ATOM     23  C   UNL     1       1.572  14.004  19.674  0.00  0.00    +0.000 A 
ATOM     24  C   UNL     1       2.291  13.226  20.549  0.00  0.00    +0.000 A 
ATOM     25  O   UNL     1       1.523  12.217  21.029  0.00  0.00    +0.000 OA
ENDBRANCH  20  21
ENDBRANCH  17  20
ENDBRANCH   1  14
TORSDOF 7
ENDMDL
MODEL 4
REMARK VINA RESULT:      -6.6      2.124      8.544
REMARK  Name = 
REMARK  10 active torsions:
REMARK  status: ('A' for Active; 'I' for Inactive)
REMARK    1  A    between atoms: C_1  and  O_2
REMARK    2  A    between atoms: O_2  and  C_3
REMARK    3  A    between atoms: C_5  and  O_6
REMARK    4  A    between atoms: O_6  and  C_7
REMARK    5  A    between atoms: C_8  and  O_9
REMARK    6  A    between atoms: O_9  and  C_10
REMARK    7  A    between atoms: C_12  and  C_13
REMARK    8  A    between atoms: C_13  and  N_14
REMARK    9  A    between atoms: N_17  and  C_18
REMARK   10  A    between atoms: C_18  and  C_19
REMARK                            x       y       z     vdW  Elec       q    Type
REMARK                         _______ _______ _______ _____ _____    ______ ____
ROOT
ATOM      1  C   UNL     1       2.721   6.132  18.445  0.00  0.00    +0.000 C 
ENDROOT
BRANCH   1   7
ATOM      2  C   UNL     1       1.681   6.942  20.572  0.00  0.00    +0.000 A 
ATOM      3  C   UNL     1       1.077   7.915  21.365  0.00  0.00    +0.000 A 
ATOM      4  C   UNL     1       0.871   9.224  20.840  0.00  0.00    +0.000 A 
ATOM      5  C   UNL     1       1.284   9.546  19.526  0.00  0.00    +0.000 A 
ATOM      6  C   UNL     1       1.876   8.546  18.733  0.00  0.00    +0.000 A 
ATOM      7  C   UNL     1       2.108   7.268  19.264  0.00  0.00    +0.000 A 
BRANCH   2   9
ATOM      8  C   UNL     1       1.176   4.482  20.742  0.00  0.00    +0.000 C 
ATOM      9  O   UNL     1       1.941   5.649  20.832  0.00  0.00    +0.000 OA
ENDBRANCH   2   9
BRANCH   4  10
ATOM     10  O   UNL     1       0.255  10.086  21.744  0.00  0.00    +0.000 OA
ATOM     11  C   UNL     1      -0.161   9.540  22.993  0.00  0.00    +0.000 C 
ENDBRANCH   4  10
BRANCH   5  12
ATOM     12  O   UNL     1       1.087  10.830  19.050  0.00  0.00    +0.000 OA
ATOM     13  C   UNL     1      -0.224  11.160  18.604  0.00  0.00    +0.000 C 
ENDBRANCH   5  12
ENDBRANCH   1   7
BRANCH   1  14
ATOM     14  N   UNL     1       4.176   5.980  18.429  0.00  0.00    +0.000 NA
ATOM     15  C   UNL     1       4.633   4.600  18.191  0.00  0.00    +0.000 C 
ATOM     16  C   UNL     1       4.989   4.110  16.767  0.00  0.00    +0.000 C 
ATOM     17  N   UNL     1       5.396   5.080  15.756  0.00  0.00    +0.000 NA
ATOM     18  C   UNL     1       4.902   6.433  15.978  0.00  0.00    +0.000 C 
ATOM     19  C   UNL     1       4.742   6.918  17.439  0.00  0.00    +0.000 C 
BRANCH  17  20
ATOM     20  C   UNL     1       6.780   4.977  15.292  0.00  0.00    +0.000 C 
BRANCH  20  21
ATOM     21  C   UNL     1       6.939   4.581  13.869  0.00  0.00    +0.000 A 
ATOM     22  C   UNL     1       7.688   5.089  12.827  0.00  0.00    +0.000 A 
ATOM     23  C   UNL     1       7.339   4.333  11.684  0.00  0.00    +0.000 A 
ATOM     24  C   UNL     1       6.438   3.387  12.109  0.00  0.00    +0.000 A 
ATOM     25  O   UNL     1       6.215   3.508  13.442  0.00  0.00    +0.000 OA
ENDBRANCH  20  21
ENDBRANCH  17  20
ENDBRANCH   1  14
TORSDOF 7
ENDMDL
MODEL 5
REMARK VINA RESULT:      -6.5      3.429      8.322
REMARK  Name = 
REMARK  10 active torsions:
REMARK  status: ('A' for Active; 'I' for Inactive)
REMARK    1  A    between atoms: C_1  and  O_2
REMARK    2  A    between atoms: O_2  and  C_3
REMARK    3  A    between atoms: C_5  and  O_6
REMARK    4  A    between atoms: O_6  and  C_7
REMARK    5  A    between atoms: C_8  and  O_9
REMARK    6  A    between atoms: O_9  and  C_10
REMARK    7  A    between atoms: C_12  and  C_13
REMARK    8  A    between atoms: C_13  and  N_14
REMARK    9  A    between atoms: N_17  and  C_18
REMARK   10  A    between atoms: C_18  and  C_19
REMARK                            x       y       z     vdW  Elec       q    Type
REMARK                         _______ _______ _______ _____ _____    ______ ____
ROOT
ATOM      1  C   UNL     1       5.486   6.418  18.167  0.00  0.00    +0.000 C 
ENDROOT
BRANCH   1   7
ATOM      2  C   UNL     1       3.019   6.006  18.137  0.00  0.00    +0.000 A 
ATOM      3  C   UNL     1       1.900   5.177  18.087  0.00  0.00    +0.000 A 
ATOM      4  C   UNL     1       2.073   3.765  17.986  0.00  0.00    +0.000 A 
ATOM      5  C   UNL     1       3.368   3.201  17.928  0.00  0.00    +0.000 A 
ATOM      6  C   UNL     1       4.487   4.052  17.997  0.00  0.00    +0.000 A 
ATOM      7  C   UNL     1       4.314   5.443  18.062  0.00  0.00    +0.000 A 
BRANCH   2   9
ATOM      8  C   UNL     1       2.274   8.396  17.876  0.00  0.00    +0.000 C 
ATOM      9  O   UNL     1       3.105   7.341  18.267  0.00  0.00    +0.000 OA
ENDBRANCH   2   9
BRANCH   4  10
ATOM     10  O   UNL     1       0.868   3.068  17.951  0.00  0.00    +0.000 OA
ATOM     11  C   UNL     1       0.453   2.411  19.145  0.00  0.00    +0.000 C 
ENDBRANCH   4  10
BRANCH   5  12
ATOM     12  O   UNL     1       3.505   1.829  17.813  0.00  0.00    +0.000 OA
ATOM     13  C   UNL     1       3.988   1.130  18.955  0.00  0.00    +0.000 C 
ENDBRANCH   5  12
ENDBRANCH   1   7
BRANCH   1  14
ATOM     14  N   UNL     1       6.257   6.726  16.963  0.00  0.00    +0.000 NA
ATOM     15  C   UNL     1       7.424   5.850  16.756  0.00  0.00    +0.000 C 
ATOM     16  C   UNL     1       7.329   4.591  15.862  0.00  0.00    +0.000 C 
ATOM     17  N   UNL     1       6.316   4.530  14.815  0.00  0.00    +0.000 NA
ATOM     18  C   UNL     1       5.147   5.366  15.050  0.00  0.00    +0.000 C 
ATOM     19  C   UNL     1       5.351   6.706  15.798  0.00  0.00    +0.000 C 
BRANCH  17  20
ATOM     20  C   UNL     1       6.818   4.512  13.440  0.00  0.00    +0.000 C 
BRANCH  20  21
ATOM     21  C   UNL     1       6.181   3.507  12.550  0.00  0.00    +0.000 A 
ATOM     22  C   UNL     1       6.648   2.365  11.932  0.00  0.00    +0.000 A 
ATOM     23  C   UNL     1       5.584   1.884  11.133  0.00  0.00    +0.000 A 
ATOM     24  C   UNL     1       4.526   2.735  11.351  0.00  0.00    +0.000 A 
ATOM     25  O   UNL     1       4.869   3.703  12.237  0.00  0.00    +0.000 OA
ENDBRANCH  20  21
ENDBRANCH  17  20
ENDBRANCH   1  14
TORSDOF 7
ENDMDL
MODEL 6
REMARK VINA RESULT:      -6.5      2.631      4.800
REMARK  Name = 
REMARK  10 active torsions:
REMARK  status: ('A' for Active; 'I' for Inactive)
REMARK    1  A    between atoms: C_1  and  O_2
REMARK    2  A    between atoms: O_2  and  C_3
REMARK    3  A    between atoms: C_5  and  O_6
REMARK    4  A    between atoms: O_6  and  C_7
REMARK    5  A    between atoms: C_8  and  O_9
REMARK    6  A    between atoms: O_9  and  C_10
REMARK    7  A    between atoms: C_12  and  C_13
REMARK    8  A    between atoms: C_13  and  N_14
REMARK    9  A    between atoms: N_17  and  C_18
REMARK   10  A    between atoms: C_18  and  C_19
REMARK                            x       y       z     vdW  Elec       q    Type
REMARK                         _______ _______ _______ _____ _____    ______ ____
ROOT
ATOM      1  C   UNL     1       2.280   7.812  19.642  0.00  0.00    +0.000 C 
ENDROOT
BRANCH   1   7
ATOM      2  C   UNL     1       2.926   5.780  18.334  0.00  0.00    +0.000 A 
ATOM      3  C   UNL     1       2.923   4.408  18.092  0.00  0.00    +0.000 A 
ATOM      4  C   UNL     1       2.232   3.536  18.982  0.00  0.00    +0.000 A 
ATOM      5  C   UNL     1       1.557   4.051  20.114  0.00  0.00    +0.000 A 
ATOM      6  C   UNL     1       1.556   5.441  20.333  0.00  0.00    +0.000 A 
ATOM      7  C   UNL     1       2.266   6.293  19.473  0.00  0.00    +0.000 A 
BRANCH   2   9
ATOM      8  C   UNL     1       4.685   6.933  16.951  0.00  0.00    +0.000 C 
ATOM      9  O   UNL     1       3.469   6.785  17.625  0.00  0.00    +0.000 OA
ENDBRANCH   2   9
BRANCH   4  10
ATOM     10  O   UNL     1       2.313   2.196  18.611  0.00  0.00    +0.000 OA
ATOM     11  C   UNL     1       3.559   1.730  18.100  0.00  0.00    +0.000 C 
ENDBRANCH   4  10
BRANCH   5  12
ATOM     12  O   UNL     1       0.909   3.179  20.971  0.00  0.00    +0.000 OA
ATOM     13  C   UNL     1       1.710   2.517  21.945  0.00  0.00    +0.000 C 
ENDBRANCH   5  12
ENDBRANCH   1   7
BRANCH   1  14
ATOM     14  N   UNL     1       1.061   8.566  19.344  0.00  0.00    +0.000 NA
ATOM     15  C   UNL     1       0.573   9.384  20.468  0.00  0.00    +0.000 C 
ATOM     16  C   UNL     1       0.960  10.876  20.597  0.00  0.00    +0.000 C 
ATOM     17  N   UNL     1       1.335  11.626  19.403  0.00  0.00    +0.000 NA
ATOM     18  C   UNL     1       1.858  10.811  18.314  0.00  0.00    +0.000 C 
ATOM     19  C   UNL     1       1.289   9.383  18.136  0.00  0.00    +0.000 C 
BRANCH  17  20
ATOM     20  C   UNL     1       0.424  12.702  19.011  0.00  0.00    +0.000 C 
BRANCH  20  21
ATOM     21  C   UNL     1      -1.010  12.320  18.945  0.00  0.00    +0.000 A 
ATOM     22  C   UNL     1      -1.750  11.593  18.035  0.00  0.00    +0.000 A 
ATOM     23  C   UNL     1      -3.093  11.657  18.476  0.00  0.00    +0.000 A 
ATOM     24  C   UNL     1      -3.078  12.377  19.646  0.00  0.00    +0.000 A 
ATOM     25  O   UNL     1      -1.813  12.755  19.956  0.00  0.00    +0.000 OA
ENDBRANCH  20  21
ENDBRANCH  17  20
ENDBRANCH   1  14
TORSDOF 7
ENDMDL
MODEL 7
REMARK VINA RESULT:      -6.5      1.989      2.662
REMARK  Name = 
REMARK  10 active torsions:
REMARK  status: ('A' for Active; 'I' for Inactive)
REMARK    1  A    between atoms: C_1  and  O_2
REMARK    2  A    between atoms: O_2  and  C_3
REMARK    3  A    between atoms: C_5  and  O_6
REMARK    4  A    between atoms: O_6  and  C_7
REMARK    5  A    between atoms: C_8  and  O_9
REMARK    6  A    between atoms: O_9  and  C_10
REMARK    7  A    between atoms: C_12  and  C_13
REMARK    8  A    between atoms: C_13  and  N_14
REMARK    9  A    between atoms: N_17  and  C_18
REMARK   10  A    between atoms: C_18  and  C_19
REMARK                            x       y       z     vdW  Elec       q    Type
REMARK                         _______ _______ _______ _____ _____    ______ ____
ROOT
ATOM      1  C   UNL     1       1.976   6.973  18.585  0.00  0.00    +0.000 C 
ENDROOT
BRANCH   1   7
ATOM      2  C   UNL     1       2.923   4.839  17.686  0.00  0.00    +0.000 A 
ATOM      3  C   UNL     1       3.922   4.088  17.070  0.00  0.00    +0.000 A 
ATOM      4  C   UNL     1       5.125   4.725  16.648  0.00  0.00    +0.000 A 
ATOM      5  C   UNL     1       5.308   6.114  16.840  0.00  0.00    +0.000 A 
ATOM      6  C   UNL     1       4.297   6.855  17.479  0.00  0.00    +0.000 A 
ATOM      7  C   UNL     1       3.100   6.231  17.863  0.00  0.00    +0.000 A 
BRANCH   2   9
ATOM      8  C   UNL     1       1.299   3.291  18.827  0.00  0.00    +0.000 C 
ATOM      9  O   UNL     1       1.738   4.458  18.194  0.00  0.00    +0.000 OA
ENDBRANCH   2   9
BRANCH   4  10
ATOM     10  O   UNL     1       6.030   3.848  16.055  0.00  0.00    +0.000 OA
ATOM     11  C   UNL     1       6.133   3.872  14.634  0.00  0.00    +0.000 C 
ENDBRANCH   4  10
BRANCH   5  12
ATOM     12  O   UNL     1       6.479   6.709  16.404  0.00  0.00    +0.000 OA
ATOM     13  C   UNL     1       7.327   7.272  17.400  0.00  0.00    +0.000 C 
ENDBRANCH   5  12
ENDBRANCH   1   7
BRANCH   1  14
ATOM     14  N   UNL     1       2.235   8.320  19.095  0.00  0.00    +0.000 NA
ATOM     15  C   UNL     1       1.735   9.398  18.224  0.00  0.00    +0.000 C 
ATOM     16  C   UNL     1       0.343  10.033  18.457  0.00  0.00    +0.000 C 
ATOM     17  N   UNL     1      -0.252   9.987  19.788  0.00  0.00    +0.000 NA
ATOM     18  C   UNL     1       0.217   8.891  20.626  0.00  0.00    +0.000 C 
ATOM     19  C   UNL     1       1.685   8.427  20.461  0.00  0.00    +0.000 C 
BRANCH  17  20
ATOM     20  C   UNL     1      -0.415  11.276  20.461  0.00  0.00    +0.000 C 
BRANCH  20  21
ATOM     21  C   UNL     1      -1.790  11.838  20.420  0.00  0.00    +0.000 A 
ATOM     22  C   UNL     1      -2.685  12.065  19.394  0.00  0.00    +0.000 A 
ATOM     23  C   UNL     1      -3.799  12.713  19.977  0.00  0.00    +0.000 A 
ATOM     24  C   UNL     1      -3.533  12.798  21.323  0.00  0.00    +0.000 A 
ATOM     25  O   UNL     1      -2.330  12.238  21.605  0.00  0.00    +0.000 OA
ENDBRANCH  20  21
ENDBRANCH  17  20
ENDBRANCH   1  14
TORSDOF 7
ENDMDL
MODEL 8
REMARK VINA RESULT:      -6.4      2.461      6.776
REMARK  Name = 
REMARK  10 active torsions:
REMARK  status: ('A' for Active; 'I' for Inactive)
REMARK    1  A    between atoms: C_1  and  O_2
REMARK    2  A    between atoms: O_2  and  C_3
REMARK    3  A    between atoms: C_5  and  O_6
REMARK    4  A    between atoms: O_6  and  C_7
REMARK    5  A    between atoms: C_8  and  O_9
REMARK    6  A    between atoms: O_9  and  C_10
REMARK    7  A    between atoms: C_12  and  C_13
REMARK    8  A    between atoms: C_13  and  N_14
REMARK    9  A    between atoms: N_17  and  C_18
REMARK   10  A    between atoms: C_18  and  C_19
REMARK                            x       y       z     vdW  Elec       q    Type
REMARK                         _______ _______ _______ _____ _____    ______ ____
ROOT
ATOM      1  C   UNL     1       3.037   4.224  17.583  0.00  0.00    +0.000 C 
ENDROOT
BRANCH   1   7
ATOM      2  C   UNL     1       2.241   4.921  19.850  0.00  0.00    +0.000 A 
ATOM      3  C   UNL     1       1.817   5.869  20.778  0.00  0.00    +0.000 A 
ATOM      4  C   UNL     1       1.750   7.243  20.403  0.00  0.00    +0.000 A 
ATOM      5  C   UNL     1       2.120   7.651  19.100  0.00  0.00    +0.000 A 
ATOM      6  C   UNL     1       2.530   6.678  18.170  0.00  0.00    +0.000 A 
ATOM      7  C   UNL     1       2.626   5.332  18.553  0.00  0.00    +0.000 A 
BRANCH   2   9
ATOM      8  C   UNL     1       2.562   2.728  21.044  0.00  0.00    +0.000 C 
ATOM      9  O   UNL     1       2.348   3.586  19.960  0.00  0.00    +0.000 OA
ENDBRANCH   2   9
BRANCH   4  10
ATOM     10  O   UNL     1       1.306   8.070  21.431  0.00  0.00    +0.000 OA
ATOM     11  C   UNL     1      -0.052   8.501  21.389  0.00  0.00    +0.000 C 
ENDBRANCH   4  10
BRANCH   5  12
ATOM     12  O   UNL     1       2.063   8.994  18.770  0.00  0.00    +0.000 OA
ATOM     13  C   UNL     1       1.103   9.377  17.790  0.00  0.00    +0.000 C 
ENDBRANCH   5  12
ENDBRANCH   1   7
BRANCH   1  14
ATOM     14  N   UNL     1       4.443   4.117  17.190  0.00  0.00    +0.000 NA
ATOM     15  C   UNL     1       4.834   5.032  16.105  0.00  0.00    +0.000 C 
ATOM     16  C   UNL     1       5.463   6.413  16.411  0.00  0.00    +0.000 C 
ATOM     17  N   UNL     1       6.161   6.618  17.675  0.00  0.00    +0.000 NA
ATOM     18  C   UNL     1       5.735   5.736  18.755  0.00  0.00    +0.000 C 
ATOM     19  C   UNL     1       5.288   4.301  18.387  0.00  0.00    +0.000 C 
BRANCH  17  20
ATOM     20  C   UNL     1       7.602   6.854  17.579  0.00  0.00    +0.000 C 
BRANCH  20  21
ATOM     21  C   UNL     1       8.042   8.221  17.961  0.00  0.00    +0.000 A 
ATOM     22  C   UNL     1       7.787   9.473  17.440  0.00  0.00    +0.000 A 
ATOM     23  C   UNL     1       8.574  10.380  18.186  0.00  0.00    +0.000 A 
ATOM     24  C   UNL     1       9.222   9.632  19.140  0.00  0.00    +0.000 A 
ATOM     25  O   UNL     1       8.878   8.324  19.032  0.00  0.00    +0.000 OA
ENDBRANCH  20  21
ENDBRANCH  17  20
ENDBRANCH   1  14
TORSDOF 7
ENDMDL
MODEL 9
REMARK VINA RESULT:      -6.4      2.970      5.226
REMARK  Name = 
REMARK  10 active torsions:
REMARK  status: ('A' for Active; 'I' for Inactive)
REMARK    1  A    between atoms: C_1  and  O_2
REMARK    2  A    between atoms: O_2  and  C_3
REMARK    3  A    between atoms: C_5  and  O_6
REMARK    4  A    between atoms: O_6  and  C_7
REMARK    5  A    between atoms: C_8  and  O_9
REMARK    6  A    between atoms: O_9  and  C_10
REMARK    7  A    between atoms: C_12  and  C_13
REMARK    8  A    between atoms: C_13  and  N_14
REMARK    9  A    between atoms: N_17  and  C_18
REMARK   10  A    between atoms: C_18  and  C_19
REMARK                            x       y       z     vdW  Elec       q    Type
REMARK                         _______ _______ _______ _____ _____    ______ ____
ROOT
ATOM      1  C   UNL     1       1.483   8.392  20.898  0.00  0.00    +0.000 C 
ENDROOT
BRANCH   1   7
ATOM      2  C   UNL     1       2.383   7.096  18.957  0.00  0.00    +0.000 A 
ATOM      3  C   UNL     1       2.663   5.911  18.279  0.00  0.00    +0.000 A 
ATOM      4  C   UNL     1       2.333   4.661  18.878  0.00  0.00    +0.000 A 
ATOM      5  C   UNL     1       1.732   4.613  20.158  0.00  0.00    +0.000 A 
ATOM      6  C   UNL     1       1.440   5.819  20.821  0.00  0.00    +0.000 A 
ATOM      7  C   UNL     1       1.798   7.047  20.243  0.00  0.00    +0.000 A 
BRANCH   2   9
ATOM      8  C   UNL     1       2.021   9.161  17.563  0.00  0.00    +0.000 C 
ATOM      9  O   UNL     1       2.566   8.374  18.583  0.00  0.00    +0.000 OA
ENDBRANCH   2   9
BRANCH   4  10
ATOM     10  O   UNL     1       2.667   3.568  18.083  0.00  0.00    +0.000 OA
ATOM     11  C   UNL     1       3.951   3.572  17.465  0.00  0.00    +0.000 C 
ENDBRANCH   4  10
BRANCH   5  12
ATOM     12  O   UNL     1       1.439   3.384  20.722  0.00  0.00    +0.000 OA
ATOM     13  C   UNL     1       2.420   2.820  21.586  0.00  0.00    +0.000 C 
ENDBRANCH   5  12
ENDBRANCH   1   7
BRANCH   1  14
ATOM     14  N   UNL     1       0.083   8.778  21.079  0.00  0.00    +0.000 NA
ATOM     15  C   UNL     1      -0.358   8.793  22.485  0.00  0.00    +0.000 C 
ATOM     16  C   UNL     1      -0.330  10.096  23.318  0.00  0.00    +0.000 C 
ATOM     17  N   UNL     1      -0.394  11.384  22.635  0.00  0.00    +0.000 NA
ATOM     18  C   UNL     1       0.087  11.367  21.259  0.00  0.00    +0.000 C 
ATOM     19  C   UNL     1      -0.140  10.083  20.427  0.00  0.00    +0.000 C 
BRANCH  17  20
ATOM     20  C   UNL     1      -1.599  12.178  22.878  0.00  0.00    +0.000 C 
BRANCH  20  21
ATOM     21  C   UNL     1      -1.354  13.583  23.292  0.00  0.00    +0.000 A 
ATOM     22  C   UNL     1      -0.455  14.544  22.878  0.00  0.00    +0.000 A 
ATOM     23  C   UNL     1      -0.653  15.662  23.722  0.00  0.00    +0.000 A 
ATOM     24  C   UNL     1      -1.687  15.329  24.563  0.00  0.00    +0.000 A 
ATOM     25  O   UNL     1      -2.142  14.081  24.286  0.00  0.00    +0.000 OA
ENDBRANCH  20  21
ENDBRANCH  17  20
ENDBRANCH   1  14
TORSDOF 7
ENDMDL
