MODEL 1
REMARK VINA RESULT:      -8.5      0.000      0.000
REMARK  Name = 
REMARK  10 active torsions:
REMARK  status: ('A' for Active; 'I' for Inactive)
REMARK    1  A    between atoms: C_1  and  C_2
REMARK    2  A    between atoms: C_4  and  C_5
REMARK    3  A    between atoms: C_6  and  O_7
REMARK    4  A    between atoms: C_8  and  C_9
REMARK    5  A    between atoms: C_11  and  C_12
REMARK    6  A    between atoms: N_14  and  C_15
REMARK    7  A    between atoms: C_15  and  C_16
REMARK    8  A    between atoms: C_16  and  C_17
REMARK    9  A    between atoms: C_20  and  S_21
REMARK   10  A    between atoms: S_21  and  N_22
REMARK                            x       y       z     vdW  Elec       q    Type
REMARK                         _______ _______ _______ _____ _____    ______ ____
ROOT
ATOM      1  C   UNL     1       7.784   7.278  17.949  0.00  0.00    +0.000 C 
ATOM      2  O   UNL     1       7.626   6.432  18.827  0.00  0.00    +0.000 OA
ATOM      3  N   UNL     1       7.411   7.072  16.642  0.00  0.00    +0.000 N 
ATOM      4  H   UNL     1       7.646   7.768  15.951  0.00  0.00    +0.000 HD
ENDROOT
BRANCH   1   7
ATOM      5  C   UNL     1       9.122  10.666  18.344  0.00  0.00    +0.000 A 
ATOM      6  C   UNL     1       8.419   9.742  17.526  0.00  0.00    +0.000 A 
ATOM      7  C   UNL     1       8.368   8.560  18.229  0.00  0.00    +0.000 A 
ATOM      8  N   UNL     1       9.027   8.825  19.396  0.00  0.00    +0.000 N 
ATOM      9  N   UNL     1       9.469  10.087  19.506  0.00  0.00    +0.000 NA
ATOM     10  H   UNL     1       9.191   8.178  20.159  0.00  0.00    +0.000 HD
BRANCH   5  17
ATOM     11  C   UNL     1       7.466  15.327  17.793  0.00  0.00    +0.000 C 
ATOM     12  C   UNL     1       8.607  14.351  17.773  0.00  0.00    +0.000 A 
ATOM     13  C   UNL     1       9.897  14.764  17.435  0.00  0.00    +0.000 A 
ATOM     14  C   UNL     1      10.967  13.852  17.385  0.00  0.00    +0.000 A 
ATOM     15  C   UNL     1      12.333  14.353  17.022  0.00  0.00    +0.000 C 
ATOM     16  C   UNL     1      10.711  12.501  17.676  0.00  0.00    +0.000 A 
ATOM     17  C   UNL     1       9.419  12.068  18.043  0.00  0.00    +0.000 A 
ATOM     18  C   UNL     1       8.381  13.010  18.094  0.00  0.00    +0.000 A 
BRANCH  16  19
ATOM     19  O   UNL     1      11.722  11.571  17.597  0.00  0.00    +0.000 OA
ATOM     20  H   UNL     1      11.729  11.016  18.388  0.00  0.00    +0.000 HD
ENDBRANCH  16  19
ENDBRANCH   5  17
ENDBRANCH   1   7
BRANCH   3  21
ATOM     21  C   UNL     1       6.803   5.825  16.225  0.00  0.00    +0.000 C 
BRANCH  21  22
ATOM     22  C   UNL     1       5.342   5.996  15.806  0.00  0.00    +0.000 C 
BRANCH  22  23
ATOM     23  C   UNL     1       4.402   5.373  16.808  0.00  0.00    +0.000 A 
ATOM     24  C   UNL     1       3.755   6.168  17.767  0.00  0.00    +0.000 A 
ATOM     25  C   UNL     1       2.935   5.578  18.725  0.00  0.00    +0.000 A 
ATOM     26  C   UNL     1       2.762   4.194  18.727  0.00  0.00    +0.000 A 
ATOM     27  C   UNL     1       3.392   3.385  17.778  0.00  0.00    +0.000 A 
ATOM     28  C   UNL     1       4.210   3.982  16.820  0.00  0.00    +0.000 A 
BRANCH  26  29
ATOM     29  S   UNL     1       1.742   3.470  19.971  0.00  0.00    +0.000 S 
ATOM     30  O   UNL     1       1.171   4.523  20.781  0.00  0.00    +0.000 OA
ATOM     31  O   UNL     1       0.946   2.420  19.387  0.00  0.00    +0.000 OA
BRANCH  29  32
ATOM     32  N   UNL     1       2.916   2.727  20.910  0.00  0.00    +0.000 NA
ATOM     33  H   UNL     1       3.480   3.407  21.418  0.00  0.00    +0.000 HD
ATOM     34  H   UNL     1       2.524   1.969  21.465  0.00  0.00    +0.000 HD
ENDBRANCH  29  32
ENDBRANCH  26  29
ENDBRANCH  22  23
ENDBRANCH  21  22
ENDBRANCH   3  21
TORSDOF 8
ENDMDL
MODEL 2
REMARK VINA RESULT:      -8.4      0.927      1.126
REMARK  Name = 
REMARK  10 active torsions:
REMARK  status: ('A' for Active; 'I' for Inactive)
REMARK    1  A    between atoms: C_1  and  C_2
REMARK    2  A    between atoms: C_4  and  C_5
REMARK    3  A    between atoms: C_6  and  O_7
REMARK    4  A    between atoms: C_8  and  C_9
REMARK    5  A    between atoms: C_11  and  C_12
REMARK    6  A    between atoms: N_14  and  C_15
REMARK    7  A    between atoms: C_15  and  C_16
REMARK    8  A    between atoms: C_16  and  C_17
REMARK    9  A    between atoms: C_20  and  S_21
REMARK   10  A    between atoms: S_21  and  N_22
REMARK                            x       y       z     vdW  Elec       q    Type
REMARK                         _______ _______ _______ _____ _____    ______ ____
ROOT
ATOM      1  C   UNL     1       7.939   7.744  18.120  0.00  0.00    +0.000 C 
ATOM      2  O   UNL     1       8.213   6.751  18.793  0.00  0.00    +0.000 OA
ATOM      3  N   UNL     1       7.051   7.708  17.071  0.00  0.00    +0.000 N 
ATOM      4  H   UNL     1       6.934   8.533  16.502  0.00  0.00    +0.000 HD
ENDROOT
BRANCH   1   7
ATOM      5  C   UNL     1       9.264  11.138  18.499  0.00  0.00    +0.000 A 
ATOM      6  C   UNL     1       8.521  10.222  17.707  0.00  0.00    +0.000 A 
ATOM      7  C   UNL     1       8.526   9.026  18.389  0.00  0.00    +0.000 A 
ATOM      8  N   UNL     1       9.252   9.277  19.518  0.00  0.00    +0.000 N 
ATOM      9  N   UNL     1       9.688  10.542  19.626  0.00  0.00    +0.000 NA
ATOM     10  H   UNL     1       9.469   8.618  20.257  0.00  0.00    +0.000 HD
BRANCH   5  17
ATOM     11  C   UNL     1       7.562  15.810  18.265  0.00  0.00    +0.000 C 
ATOM     12  C   UNL     1       8.693  14.837  18.094  0.00  0.00    +0.000 A 
ATOM     13  C   UNL     1       9.938  15.262  17.628  0.00  0.00    +0.000 A 
ATOM     14  C   UNL     1      10.995  14.355  17.436  0.00  0.00    +0.000 A 
ATOM     15  C   UNL     1      12.314  14.869  16.940  0.00  0.00    +0.000 C 
ATOM     16  C   UNL     1      10.771  12.995  17.714  0.00  0.00    +0.000 A 
ATOM     17  C   UNL     1       9.527  12.549  18.208  0.00  0.00    +0.000 A 
ATOM     18  C   UNL     1       8.502  13.487  18.398  0.00  0.00    +0.000 A 
BRANCH  16  19
ATOM     19  O   UNL     1      11.767  12.071  17.499  0.00  0.00    +0.000 OA
ATOM     20  H   UNL     1      12.583  12.347  17.939  0.00  0.00    +0.000 HD
ENDBRANCH  16  19
ENDBRANCH   5  17
ENDBRANCH   1   7
BRANCH   3  21
ATOM     21  C   UNL     1       6.383   6.479  16.697  0.00  0.00    +0.000 C 
BRANCH  21  22
ATOM     22  C   UNL     1       4.871   6.657  16.545  0.00  0.00    +0.000 C 
BRANCH  22  23
ATOM     23  C   UNL     1       4.109   5.667  17.391  0.00  0.00    +0.000 A 
ATOM     24  C   UNL     1       3.037   6.091  18.190  0.00  0.00    +0.000 A 
ATOM     25  C   UNL     1       2.376   5.182  19.013  0.00  0.00    +0.000 A 
ATOM     26  C   UNL     1       2.787   3.850  19.038  0.00  0.00    +0.000 A 
ATOM     27  C   UNL     1       3.849   3.406  18.247  0.00  0.00    +0.000 A 
ATOM     28  C   UNL     1       4.505   4.320  17.423  0.00  0.00    +0.000 A 
BRANCH  26  29
ATOM     29  S   UNL     1       1.953   2.727  20.112  0.00  0.00    +0.000 S 
ATOM     30  O   UNL     1       1.789   1.462  19.433  0.00  0.00    +0.000 OA
ATOM     31  O   UNL     1       2.508   2.830  21.438  0.00  0.00    +0.000 OA
BRANCH  29  32
ATOM     32  N   UNL     1       0.438   3.444  20.160  0.00  0.00    +0.000 NA
ATOM     33  H   UNL     1      -0.021   3.299  21.059  0.00  0.00    +0.000 HD
ATOM     34  H   UNL     1       0.471   4.406  19.826  0.00  0.00    +0.000 HD
ENDBRANCH  29  32
ENDBRANCH  26  29
ENDBRANCH  22  23
ENDBRANCH  21  22
ENDBRANCH   3  21
TORSDOF 8
ENDMDL
MODEL 3
REMARK VINA RESULT:      -8.2      0.904      1.222
REMARK  Name = 
REMARK  10 active torsions:
REMARK  status: ('A' for Active; 'I' for Inactive)
REMARK    1  A    between atoms: C_1  and  C_2
REMARK    2  A    between atoms: C_4  and  C_5
REMARK    3  A    between atoms: C_6  and  O_7
REMARK    4  A    between atoms: C_8  and  C_9
REMARK    5  A    between atoms: C_11  and  C_12
REMARK    6  A    between atoms: N_14  and  C_15
REMARK    7  A    between atoms: C_15  and  C_16
REMARK    8  A    between atoms: C_16  and  C_17
REMARK    9  A    between atoms: C_20  and  S_21
REMARK   10  A    between atoms: S_21  and  N_22
REMARK                            x       y       z     vdW  Elec       q    Type
REMARK                         _______ _______ _______ _____ _____    ______ ____
ROOT
ATOM      1  C   UNL     1       7.871   7.454  18.043  0.00  0.00    +0.000 C 
ATOM      2  O   UNL     1       7.678   6.622  18.928  0.00  0.00    +0.000 OA
ATOM      3  N   UNL     1       7.563   7.220  16.724  0.00  0.00    +0.000 N 
ATOM      4  H   UNL     1       7.826   7.905  16.032  0.00  0.00    +0.000 HD
ENDROOT
BRANCH   1   7
ATOM      5  C   UNL     1       9.158  10.861  18.440  0.00  0.00    +0.000 A 
ATOM      6  C   UNL     1       8.491   9.920  17.611  0.00  0.00    +0.000 A 
ATOM      7  C   UNL     1       8.432   8.745  18.326  0.00  0.00    +0.000 A 
ATOM      8  N   UNL     1       9.051   9.031  19.509  0.00  0.00    +0.000 N 
ATOM      9  N   UNL     1       9.476  10.299  19.618  0.00  0.00    +0.000 NA
ATOM     10  H   UNL     1       9.199   8.395  20.285  0.00  0.00    +0.000 HD
BRANCH   5  17
ATOM     11  C   UNL     1       7.494  15.526  17.946  0.00  0.00    +0.000 C 
ATOM     12  C   UNL     1       8.632  14.548  17.891  0.00  0.00    +0.000 A 
ATOM     13  C   UNL     1       9.912  14.959  17.513  0.00  0.00    +0.000 A 
ATOM     14  C   UNL     1      10.978  14.045  17.429  0.00  0.00    +0.000 A 
ATOM     15  C   UNL     1      12.333  14.544  17.025  0.00  0.00    +0.000 C 
ATOM     16  C   UNL     1      10.728  12.694  17.726  0.00  0.00    +0.000 A 
ATOM     17  C   UNL     1       9.448  12.263  18.132  0.00  0.00    +0.000 A 
ATOM     18  C   UNL     1       8.414  13.206  18.216  0.00  0.00    +0.000 A 
BRANCH  16  19
ATOM     19  O   UNL     1      11.735  11.763  17.615  0.00  0.00    +0.000 OA
ATOM     20  H   UNL     1      12.392  12.054  16.967  0.00  0.00    +0.000 HD
ENDBRANCH  16  19
ENDBRANCH   5  17
ENDBRANCH   1   7
BRANCH   3  21
ATOM     21  C   UNL     1       6.985   5.960  16.302  0.00  0.00    +0.000 C 
BRANCH  21  22
ATOM     22  C   UNL     1       5.467   6.040  16.128  0.00  0.00    +0.000 C 
BRANCH  22  23
ATOM     23  C   UNL     1       4.744   5.368  17.268  0.00  0.00    +0.000 A 
ATOM     24  C   UNL     1       5.366   4.347  18.002  0.00  0.00    +0.000 A 
ATOM     25  C   UNL     1       4.671   3.691  19.015  0.00  0.00    +0.000 A 
ATOM     26  C   UNL     1       3.354   4.054  19.294  0.00  0.00    +0.000 A 
ATOM     27  C   UNL     1       2.718   5.072  18.579  0.00  0.00    +0.000 A 
ATOM     28  C   UNL     1       3.420   5.726  17.568  0.00  0.00    +0.000 A 
BRANCH  26  29
ATOM     29  S   UNL     1       2.487   3.186  20.561  0.00  0.00    +0.000 S 
ATOM     30  O   UNL     1       3.439   2.448  21.360  0.00  0.00    +0.000 OA
ATOM     31  O   UNL     1       1.493   4.053  21.142  0.00  0.00    +0.000 OA
BRANCH  29  32
ATOM     32  N   UNL     1       1.667   2.059  19.630  0.00  0.00    +0.000 NA
ATOM     33  H   UNL     1       1.775   1.114  19.998  0.00  0.00    +0.000 HD
ATOM     34  H   UNL     1       0.712   2.358  19.439  0.00  0.00    +0.000 HD
ENDBRANCH  29  32
ENDBRANCH  26  29
ENDBRANCH  22  23
ENDBRANCH  21  22
ENDBRANCH   3  21
TORSDOF 8
ENDMDL
MODEL 4
REMARK VINA RESULT:      -8.2      1.735      2.197
REMARK  Name = 
REMARK  10 active torsions:
REMARK  status: ('A' for Active; 'I' for Inactive)
REMARK    1  A    between atoms: C_1  and  C_2
REMARK    2  A    between atoms: C_4  and  C_5
REMARK    3  A    between atoms: C_6  and  O_7
REMARK    4  A    between atoms: C_8  and  C_9
REMARK    5  A    between atoms: C_11  and  C_12
REMARK    6  A    between atoms: N_14  and  C_15
REMARK    7  A    between atoms: C_15  and  C_16
REMARK    8  A    between atoms: C_16  and  C_17
REMARK    9  A    between atoms: C_20  and  S_21
REMARK   10  A    between atoms: S_21  and  N_22
REMARK                            x       y       z     vdW  Elec       q    Type
REMARK                         _______ _______ _______ _____ _____    ______ ____
ROOT
ATOM      1  C   UNL     1       6.684   7.294  17.103  0.00  0.00    +0.000 C 
ATOM      2  O   UNL     1       5.470   7.403  17.268  0.00  0.00    +0.000 OA
ATOM      3  N   UNL     1       7.240   6.324  16.304  0.00  0.00    +0.000 N 
ATOM      4  H   UNL     1       8.245   6.229  16.278  0.00  0.00    +0.000 HD
ENDROOT
BRANCH   1   7
ATOM      5  C   UNL     1       8.935   9.834  18.482  0.00  0.00    +0.000 A 
ATOM      6  C   UNL     1       7.960   9.499  17.505  0.00  0.00    +0.000 A 
ATOM      7  C   UNL     1       7.617   8.185  17.733  0.00  0.00    +0.000 A 
ATOM      8  N   UNL     1       8.382   7.810  18.800  0.00  0.00    +0.000 N 
ATOM      9  N   UNL     1       9.166   8.784  19.288  0.00  0.00    +0.000 NA
ATOM     10  H   UNL     1       8.398   6.899  19.243  0.00  0.00    +0.000 HD
BRANCH   5  17
ATOM     11  C   UNL     1      11.783  13.447  16.582  0.00  0.00    +0.000 C 
ATOM     12  C   UNL     1      10.992  12.897  17.734  0.00  0.00    +0.000 A 
ATOM     13  C   UNL     1      10.932  13.577  18.951  0.00  0.00    +0.000 A 
ATOM     14  C   UNL     1      10.218  13.056  20.045  0.00  0.00    +0.000 A 
ATOM     15  C   UNL     1      10.182  13.834  21.327  0.00  0.00    +0.000 C 
ATOM     16  C   UNL     1       9.567  11.819  19.894  0.00  0.00    +0.000 A 
ATOM     17  C   UNL     1       9.597  11.128  18.665  0.00  0.00    +0.000 A 
ATOM     18  C   UNL     1      10.308  11.686  17.594  0.00  0.00    +0.000 A 
BRANCH  16  19
ATOM     19  O   UNL     1       8.895  11.257  20.954  0.00  0.00    +0.000 OA
ATOM     20  H   UNL     1       8.055  10.881  20.657  0.00  0.00    +0.000 HD
ENDBRANCH  16  19
ENDBRANCH   5  17
ENDBRANCH   1   7
BRANCH   3  21
ATOM     21  C   UNL     1       6.412   5.363  15.605  0.00  0.00    +0.000 C 
BRANCH  21  22
ATOM     22  C   UNL     1       6.314   4.026  16.342  0.00  0.00    +0.000 C 
BRANCH  22  23
ATOM     23  C   UNL     1       5.125   3.991  17.269  0.00  0.00    +0.000 A 
ATOM     24  C   UNL     1       5.301   4.108  18.656  0.00  0.00    +0.000 A 
ATOM     25  C   UNL     1       4.204   4.016  19.509  0.00  0.00    +0.000 A 
ATOM     26  C   UNL     1       2.932   3.807  18.978  0.00  0.00    +0.000 A 
ATOM     27  C   UNL     1       2.735   3.693  17.599  0.00  0.00    +0.000 A 
ATOM     28  C   UNL     1       3.837   3.788  16.750  0.00  0.00    +0.000 A 
BRANCH  26  29
ATOM     29  S   UNL     1       1.565   3.663  20.083  0.00  0.00    +0.000 S 
ATOM     30  O   UNL     1       1.266   4.967  20.631  0.00  0.00    +0.000 OA
ATOM     31  O   UNL     1       0.558   2.818  19.492  0.00  0.00    +0.000 OA
BRANCH  29  32
ATOM     32  N   UNL     1       2.282   2.780  21.315  0.00  0.00    +0.000 NA
ATOM     33  H   UNL     1       2.859   2.023  20.951  0.00  0.00    +0.000 HD
ATOM     34  H   UNL     1       2.725   3.389  22.001  0.00  0.00    +0.000 HD
ENDBRANCH  29  32
ENDBRANCH  26  29
ENDBRANCH  22  23
ENDBRANCH  21  22
ENDBRANCH   3  21
TORSDOF 8
ENDMDL
MODEL 5
REMARK VINA RESULT:      -8.0      7.592      9.915
REMARK  Name = 
REMARK  10 active torsions:
REMARK  status: ('A' for Active; 'I' for Inactive)
REMARK    1  A    between atoms: C_1  and  C_2
REMARK    2  A    between atoms: C_4  and  C_5
REMARK    3  A    between atoms: C_6  and  O_7
REMARK    4  A    between atoms: C_8  and  C_9
REMARK    5  A    between atoms: C_11  and  C_12
REMARK    6  A    between atoms: N_14  and  C_15
REMARK    7  A    between atoms: C_15  and  C_16
REMARK    8  A    between atoms: C_16  and  C_17
REMARK    9  A    between atoms: C_20  and  S_21
REMARK   10  A    between atoms: S_21  and  N_22
REMARK                            x       y       z     vdW  Elec       q    Type
REMARK                         _______ _______ _______ _____ _____    ______ ____
ROOT
ATOM      1  C   UNL     1       0.943  10.063  20.041  0.00  0.00    +0.000 C 
ATOM      2  O   UNL     1       1.275  10.732  19.064  0.00  0.00    +0.000 OA
ATOM      3  N   UNL     1       1.244   8.728  20.164  0.00  0.00    +0.000 N 
ATOM      4  H   UNL     1       0.869   8.212  20.946  0.00  0.00    +0.000 HD
ENDROOT
BRANCH   1   7
ATOM      5  C   UNL     1      -1.059  11.763  22.594  0.00  0.00    +0.000 A 
ATOM      6  C   UNL     1      -0.626  11.720  21.243  0.00  0.00    +0.000 A 
ATOM      7  C   UNL     1       0.215  10.635  21.138  0.00  0.00    +0.000 A 
ATOM      8  N   UNL     1       0.246  10.102  22.395  0.00  0.00    +0.000 N 
ATOM      9  N   UNL     1      -0.528  10.741  23.286  0.00  0.00    +0.000 NA
ATOM     10  H   UNL     1       0.773   9.290  22.696  0.00  0.00    +0.000 HD
BRANCH   5  17
ATOM     11  C   UNL     1      -5.679  12.835  24.106  0.00  0.00    +0.000 C 
ATOM     12  C   UNL     1      -4.246  13.251  23.938  0.00  0.00    +0.000 A 
ATOM     13  C   UNL     1      -3.824  14.530  24.305  0.00  0.00    +0.000 A 
ATOM     14  C   UNL     1      -2.490  14.939  24.124  0.00  0.00    +0.000 A 
ATOM     15  C   UNL     1      -2.091  16.323  24.543  0.00  0.00    +0.000 C 
ATOM     16  C   UNL     1      -1.581  14.032  23.554  0.00  0.00    +0.000 A 
ATOM     17  C   UNL     1      -1.983  12.727  23.198  0.00  0.00    +0.000 A 
ATOM     18  C   UNL     1      -3.318  12.352  23.405  0.00  0.00    +0.000 A 
BRANCH  16  19
ATOM     19  O   UNL     1      -0.279  14.409  23.322  0.00  0.00    +0.000 OA
ATOM     20  H   UNL     1       0.329  13.822  23.792  0.00  0.00    +0.000 HD
ENDBRANCH  16  19
ENDBRANCH   5  17
ENDBRANCH   1   7
BRANCH   3  21
ATOM     21  C   UNL     1       1.980   8.027  19.132  0.00  0.00    +0.000 C 
BRANCH  21  22
ATOM     22  C   UNL     1       2.463   6.649  19.589  0.00  0.00    +0.000 C 
BRANCH  22  23
ATOM     23  C   UNL     1       3.569   6.129  18.705  0.00  0.00    +0.000 A 
ATOM     24  C   UNL     1       4.321   5.009  19.092  0.00  0.00    +0.000 A 
ATOM     25  C   UNL     1       5.378   4.570  18.299  0.00  0.00    +0.000 A 
ATOM     26  C   UNL     1       5.685   5.250  17.120  0.00  0.00    +0.000 A 
ATOM     27  C   UNL     1       4.945   6.363  16.715  0.00  0.00    +0.000 A 
ATOM     28  C   UNL     1       3.886   6.796  17.511  0.00  0.00    +0.000 A 
BRANCH  26  29
ATOM     29  S   UNL     1       7.049   4.691  16.152  0.00  0.00    +0.000 S 
ATOM     30  O   UNL     1       7.307   5.654  15.105  0.00  0.00    +0.000 OA
ATOM     31  O   UNL     1       8.084   4.194  17.023  0.00  0.00    +0.000 OA
BRANCH  29  32
ATOM     32  N   UNL     1       6.351   3.357  15.413  0.00  0.00    +0.000 NA
ATOM     33  H   UNL     1       7.029   2.834  14.860  0.00  0.00    +0.000 HD
ATOM     34  H   UNL     1       5.798   2.813  16.073  0.00  0.00    +0.000 HD
ENDBRANCH  29  32
ENDBRANCH  26  29
ENDBRANCH  22  23
ENDBRANCH  21  22
ENDBRANCH   3  21
TORSDOF 8
ENDMDL
MODEL 6
REMARK VINA RESULT:      -7.9      1.785      2.087
REMARK  Name = 
REMARK  10 active torsions:
REMARK  status: ('A' for Active; 'I' for Inactive)
REMARK    1  A    between atoms: C_1  and  C_2
REMARK    2  A    between atoms: C_4  and  C_5
REMARK    3  A    between atoms: C_6  and  O_7
REMARK    4  A    between atoms: C_8  and  C_9
REMARK    5  A    between atoms: C_11  and  C_12
REMARK    6  A    between atoms: N_14  and  C_15
REMARK    7  A    between atoms: C_15  and  C_16
REMARK    8  A    between atoms: C_16  and  C_17
REMARK    9  A    between atoms: C_20  and  S_21
REMARK   10  A    between atoms: S_21  and  N_22
REMARK                            x       y       z     vdW  Elec       q    Type
REMARK                         _______ _______ _______ _____ _____    ______ ____
ROOT
ATOM      1  C   UNL     1       7.967   7.535  18.048  0.00  0.00    +0.000 C 
ATOM      2  O   UNL     1       8.238   6.683  18.893  0.00  0.00    +0.000 OA
ATOM      3  N   UNL     1       7.335   7.234  16.866  0.00  0.00    +0.000 N 
ATOM      4  H   UNL     1       7.219   7.961  16.175  0.00  0.00    +0.000 HD
ENDROOT
BRANCH   1   7
ATOM      5  C   UNL     1       8.970  10.967  18.847  0.00  0.00    +0.000 A 
ATOM      6  C   UNL     1       8.952   9.602  19.237  0.00  0.00    +0.000 A 
ATOM      7  C   UNL     1       8.287   8.922  18.242  0.00  0.00    +0.000 A 
ATOM      8  N   UNL     1       7.946   9.886  17.336  0.00  0.00    +0.000 N 
ATOM      9  N   UNL     1       8.363  11.120  17.658  0.00  0.00    +0.000 NA
ATOM     10  H   UNL     1       7.437   9.750  16.470  0.00  0.00    +0.000 HD
BRANCH   5  17
ATOM     11  C   UNL     1       9.036  13.882  22.881  0.00  0.00    +0.000 C 
ATOM     12  C   UNL     1       9.612  13.514  21.545  0.00  0.00    +0.000 A 
ATOM     13  C   UNL     1      10.664  14.246  20.992  0.00  0.00    +0.000 A 
ATOM     14  C   UNL     1      11.191  13.928  19.728  0.00  0.00    +0.000 A 
ATOM     15  C   UNL     1      12.326  14.745  19.186  0.00  0.00    +0.000 C 
ATOM     16  C   UNL     1      10.628  12.854  19.017  0.00  0.00    +0.000 A 
ATOM     17  C   UNL     1       9.581  12.087  19.568  0.00  0.00    +0.000 A 
ATOM     18  C   UNL     1       9.090  12.427  20.837  0.00  0.00    +0.000 A 
BRANCH  16  19
ATOM     19  O   UNL     1      11.088  12.538  17.759  0.00  0.00    +0.000 OA
ATOM     20  H   UNL     1      11.849  11.945  17.819  0.00  0.00    +0.000 HD
ENDBRANCH  16  19
ENDBRANCH   5  17
ENDBRANCH   1   7
BRANCH   3  21
ATOM     21  C   UNL     1       6.950   5.875  16.547  0.00  0.00    +0.000 C 
BRANCH  21  22
ATOM     22  C   UNL     1       5.555   5.791  15.924  0.00  0.00    +0.000 C 
BRANCH  22  23
ATOM     23  C   UNL     1       4.558   5.183  16.879  0.00  0.00    +0.000 A 
ATOM     24  C   UNL     1       4.325   3.800  16.879  0.00  0.00    +0.000 A 
ATOM     25  C   UNL     1       3.361   3.254  17.722  0.00  0.00    +0.000 A 
ATOM     26  C   UNL     1       2.630   4.089  18.566  0.00  0.00    +0.000 A 
ATOM     27  C   UNL     1       2.851   5.468  18.586  0.00  0.00    +0.000 A 
ATOM     28  C   UNL     1       3.819   6.009  17.741  0.00  0.00    +0.000 A 
BRANCH  26  29
ATOM     29  S   UNL     1       1.394   3.374  19.602  0.00  0.00    +0.000 S 
ATOM     30  O   UNL     1       0.791   4.417  20.401  0.00  0.00    +0.000 OA
ATOM     31  O   UNL     1       0.616   2.432  18.838  0.00  0.00    +0.000 OA
BRANCH  29  32
ATOM     32  N   UNL     1       2.365   2.481  20.636  0.00  0.00    +0.000 NA
ATOM     33  H   UNL     1       3.071   1.949  20.127  0.00  0.00    +0.000 HD
ATOM     34  H   UNL     1       2.706   3.048  21.410  0.00  0.00    +0.000 HD
ENDBRANCH  29  32
ENDBRANCH  26  29
ENDBRANCH  22  23
ENDBRANCH  21  22
ENDBRANCH   3  21
TORSDOF 8
ENDMDL
MODEL 7
REMARK VINA RESULT:      -7.9      7.445     10.585
REMARK  Name = 
REMARK  10 active torsions:
REMARK  status: ('A' for Active; 'I' for Inactive)
REMARK    1  A    between atoms: C_1  and  C_2
REMARK    2  A    between atoms: C_4  and  C_5
REMARK    3  A    between atoms: C_6  and  O_7
REMARK    4  A    between atoms: C_8  and  C_9
REMARK    5  A    between atoms: C_11  and  C_12
REMARK    6  A    between atoms: N_14  and  C_15
REMARK    7  A    between atoms: C_15  and  C_16
REMARK    8  A    between atoms: C_16  and  C_17
REMARK    9  A    between atoms: C_20  and  S_21
REMARK   10  A    between atoms: S_21  and  N_22
REMARK                            x       y       z     vdW  Elec       q    Type
REMARK                         _______ _______ _______ _____ _____    ______ ____
ROOT
ATOM      1  C   UNL     1       0.842  10.421  18.768  0.00  0.00    +0.000 C 
ATOM      2  O   UNL     1       1.403  11.424  19.207  0.00  0.00    +0.000 OA
ATOM      3  N   UNL     1      -0.405  10.459  18.192  0.00  0.00    +0.000 N 
ATOM      4  H   UNL     1      -0.849   9.592  17.931  0.00  0.00    +0.000 HD
ENDROOT
BRANCH   1   7
ATOM      5  C   UNL     1       2.490   7.158  18.534  0.00  0.00    +0.000 A 
ATOM      6  C   UNL     1       2.019   8.314  17.857  0.00  0.00    +0.000 A 
ATOM      7  C   UNL     1       1.460   9.126  18.819  0.00  0.00    +0.000 A 
ATOM      8  N   UNL     1       1.616   8.434  19.986  0.00  0.00    +0.000 N 
ATOM      9  N   UNL     1       2.253   7.260  19.852  0.00  0.00    +0.000 NA
ATOM     10  H   UNL     1       1.315   8.727  20.908  0.00  0.00    +0.000 HD
BRANCH   5  17
ATOM     11  C   UNL     1       6.142   5.438  15.621  0.00  0.00    +0.000 C 
ATOM     12  C   UNL     1       4.969   5.166  16.518  0.00  0.00    +0.000 A 
ATOM     13  C   UNL     1       4.528   3.861  16.745  0.00  0.00    +0.000 A 
ATOM     14  C   UNL     1       3.413   3.597  17.560  0.00  0.00    +0.000 A 
ATOM     15  C   UNL     1       2.988   2.174  17.774  0.00  0.00    +0.000 C 
ATOM     16  C   UNL     1       2.736   4.683  18.143  0.00  0.00    +0.000 A 
ATOM     17  C   UNL     1       3.180   6.007  17.946  0.00  0.00    +0.000 A 
ATOM     18  C   UNL     1       4.304   6.228  17.136  0.00  0.00    +0.000 A 
BRANCH  16  19
ATOM     19  O   UNL     1       1.616   4.468  18.912  0.00  0.00    +0.000 OA
ATOM     20  H   UNL     1       1.545   3.534  19.149  0.00  0.00    +0.000 HD
ENDBRANCH  16  19
ENDBRANCH   5  17
ENDBRANCH   1   7
BRANCH   3  21
ATOM     21  C   UNL     1      -1.136  11.703  18.071  0.00  0.00    +0.000 C 
BRANCH  21  22
ATOM     22  C   UNL     1      -2.519  11.512  17.443  0.00  0.00    +0.000 C 
BRANCH  22  23
ATOM     23  C   UNL     1      -3.619  11.709  18.457  0.00  0.00    +0.000 A 
ATOM     24  C   UNL     1      -4.922  11.265  18.187  0.00  0.00    +0.000 A 
ATOM     25  C   UNL     1      -5.944  11.503  19.102  0.00  0.00    +0.000 A 
ATOM     26  C   UNL     1      -5.665  12.183  20.287  0.00  0.00    +0.000 A 
ATOM     27  C   UNL     1      -4.373  12.627  20.577  0.00  0.00    +0.000 A 
ATOM     28  C   UNL     1      -3.354  12.385  19.658  0.00  0.00    +0.000 A 
BRANCH  26  29
ATOM     29  S   UNL     1      -6.985  12.497  21.414  0.00  0.00    +0.000 S 
ATOM     30  O   UNL     1      -7.917  13.416  20.801  0.00  0.00    +0.000 OA
ATOM     31  O   UNL     1      -7.401  11.258  22.021  0.00  0.00    +0.000 OA
BRANCH  29  32
ATOM     32  N   UNL     1      -6.160  13.364  22.589  0.00  0.00    +0.000 NA
ATOM     33  H   UNL     1      -6.749  14.080  23.013  0.00  0.00    +0.000 HD
ATOM     34  H   UNL     1      -5.675  12.745  23.236  0.00  0.00    +0.000 HD
ENDBRANCH  29  32
ENDBRANCH  26  29
ENDBRANCH  22  23
ENDBRANCH  21  22
ENDBRANCH   3  21
TORSDOF 8
ENDMDL
MODEL 8
REMARK VINA RESULT:      -7.9      7.301     10.504
REMARK  Name = 
REMARK  10 active torsions:
REMARK  status: ('A' for Active; 'I' for Inactive)
REMARK    1  A    between atoms: C_1  and  C_2
REMARK    2  A    between atoms: C_4  and  C_5
REMARK    3  A    between atoms: C_6  and  O_7
REMARK    4  A    between atoms: C_8  and  C_9
REMARK    5  A    between atoms: C_11  and  C_12
REMARK    6  A    between atoms: N_14  and  C_15
REMARK    7  A    between atoms: C_15  and  C_16
REMARK    8  A    between atoms: C_16  and  C_17
REMARK    9  A    between atoms: C_20  and  S_21
REMARK   10  A    between atoms: S_21  and  N_22
REMARK                            x       y       z     vdW  Elec       q    Type
REMARK                         _______ _______ _______ _____ _____    ______ ____
ROOT
ATOM      1  C   UNL     1       0.869  10.598  18.718  0.00  0.00    +0.000 C 
ATOM      2  O   UNL     1       1.512  11.603  19.016  0.00  0.00    +0.000 OA
ATOM      3  N   UNL     1      -0.441  10.649  18.306  0.00  0.00    +0.000 N 
ATOM      4  H   UNL     1      -0.942   9.785  18.160  0.00  0.00    +0.000 HD
ENDROOT
BRANCH   1   7
ATOM      5  C   UNL     1       2.439   7.296  18.498  0.00  0.00    +0.000 A 
ATOM      6  C   UNL     1       2.034   8.478  17.824  0.00  0.00    +0.000 A 
ATOM      7  C   UNL     1       1.448   9.285  18.773  0.00  0.00    +0.000 A 
ATOM      8  N   UNL     1       1.525   8.566  19.931  0.00  0.00    +0.000 N 
ATOM      9  N   UNL     1       2.136   7.378  19.805  0.00  0.00    +0.000 NA
ATOM     10  H   UNL     1       1.184   8.849  20.843  0.00  0.00    +0.000 HD
BRANCH   5  17
ATOM     11  C   UNL     1       6.058   5.544  15.564  0.00  0.00    +0.000 C 
ATOM     12  C   UNL     1       4.901   5.282  16.484  0.00  0.00    +0.000 A 
ATOM     13  C   UNL     1       4.472   3.979  16.741  0.00  0.00    +0.000 A 
ATOM     14  C   UNL     1       3.371   3.724  17.578  0.00  0.00    +0.000 A 
ATOM     15  C   UNL     1       2.958   2.302  17.824  0.00  0.00    +0.000 C 
ATOM     16  C   UNL     1       2.696   4.815  18.150  0.00  0.00    +0.000 A 
ATOM     17  C   UNL     1       3.128   6.138  17.922  0.00  0.00    +0.000 A 
ATOM     18  C   UNL     1       4.237   6.351  17.091  0.00  0.00    +0.000 A 
BRANCH  16  19
ATOM     19  O   UNL     1       1.589   4.609  18.940  0.00  0.00    +0.000 OA
ATOM     20  H   UNL     1       0.781   4.777  18.437  0.00  0.00    +0.000 HD
ENDBRANCH  16  19
ENDBRANCH   5  17
ENDBRANCH   1   7
BRANCH   3  21
ATOM     21  C   UNL     1      -1.144  11.911  18.200  0.00  0.00    +0.000 C 
BRANCH  21  22
ATOM     22  C   UNL     1      -2.660  11.751  18.336  0.00  0.00    +0.000 C 
BRANCH  22  23
ATOM     23  C   UNL     1      -3.131  12.102  19.725  0.00  0.00    +0.000 A 
ATOM     24  C   UNL     1      -4.493  12.324  19.979  0.00  0.00    +0.000 A 
ATOM     25  C   UNL     1      -4.914  12.705  21.251  0.00  0.00    +0.000 A 
ATOM     26  C   UNL     1      -3.974  12.864  22.269  0.00  0.00    +0.000 A 
ATOM     27  C   UNL     1      -2.614  12.643  22.038  0.00  0.00    +0.000 A 
ATOM     28  C   UNL     1      -2.200  12.259  20.764  0.00  0.00    +0.000 A 
BRANCH  26  29
ATOM     29  S   UNL     1      -4.531  13.377  23.862  0.00  0.00    +0.000 S 
ATOM     30  O   UNL     1      -3.427  13.984  24.572  0.00  0.00    +0.000 OA
ATOM     31  O   UNL     1      -5.818  14.013  23.737  0.00  0.00    +0.000 OA
BRANCH  29  32
ATOM     32  N   UNL     1      -4.792  11.881  24.572  0.00  0.00    +0.000 NA
ATOM     33  H   UNL     1      -5.270  11.966  25.468  0.00  0.00    +0.000 HD
ATOM     34  H   UNL     1      -5.197  11.221  23.911  0.00  0.00    +0.000 HD
ENDBRANCH  29  32
ENDBRANCH  26  29
ENDBRANCH  22  23
ENDBRANCH  21  22
ENDBRANCH   3  21
TORSDOF 8
ENDMDL
MODEL 9
REMARK VINA RESULT:      -7.8      6.061      8.416
REMARK  Name = 
REMARK  10 active torsions:
REMARK  status: ('A' for Active; 'I' for Inactive)
REMARK    1  A    between atoms: C_1  and  C_2
REMARK    2  A    between atoms: C_4  and  C_5
REMARK    3  A    between atoms: C_6  and  O_7
REMARK    4  A    between atoms: C_8  and  C_9
REMARK    5  A    between atoms: C_11  and  C_12
REMARK    6  A    between atoms: N_14  and  C_15
REMARK    7  A    between atoms: C_15  and  C_16
REMARK    8  A    between atoms: C_16  and  C_17
REMARK    9  A    between atoms: C_20  and  S_21
REMARK   10  A    between atoms: S_21  and  N_22
REMARK                            x       y       z     vdW  Elec       q    Type
REMARK                         _______ _______ _______ _____ _____    ______ ____
ROOT
ATOM      1  C   UNL     1       3.404   4.553  19.115  0.00  0.00    +0.000 C 
ATOM      2  O   UNL     1       3.159   3.657  19.920  0.00  0.00    +0.000 OA
ATOM      3  N   UNL     1       2.768   5.771  19.142  0.00  0.00    +0.000 N 
ATOM      4  H   UNL     1       2.947   6.433  18.402  0.00  0.00    +0.000 HD
ENDROOT
BRANCH   1   7
ATOM      5  C   UNL     1       5.650   4.255  16.236  0.00  0.00    +0.000 A 
ATOM      6  C   UNL     1       4.336   4.511  16.710  0.00  0.00    +0.000 A 
ATOM      7  C   UNL     1       4.388   4.394  18.081  0.00  0.00    +0.000 A 
ATOM      8  N   UNL     1       5.689   4.079  18.350  0.00  0.00    +0.000 N 
ATOM      9  N   UNL     1       6.478   4.013  17.267  0.00  0.00    +0.000 NA
ATOM     10  H   UNL     1       6.094   3.911  19.264  0.00  0.00    +0.000 HD
BRANCH   5  17
ATOM     11  C   UNL     1       5.282   2.445  11.614  0.00  0.00    +0.000 C 
ATOM     12  C   UNL     1       5.930   3.392  12.582  0.00  0.00    +0.000 A 
ATOM     13  C   UNL     1       6.968   4.232  12.176  0.00  0.00    +0.000 A 
ATOM     14  C   UNL     1       7.602   5.102  13.082  0.00  0.00    +0.000 A 
ATOM     15  C   UNL     1       8.707   5.988  12.588  0.00  0.00    +0.000 C 
ATOM     16  C   UNL     1       7.174   5.104  14.421  0.00  0.00    +0.000 A 
ATOM     17  C   UNL     1       6.111   4.280  14.846  0.00  0.00    +0.000 A 
ATOM     18  C   UNL     1       5.497   3.436  13.910  0.00  0.00    +0.000 A 
BRANCH  16  19
ATOM     19  O   UNL     1       7.797   5.910  15.346  0.00  0.00    +0.000 OA
ATOM     20  H   UNL     1       7.160   6.517  15.745  0.00  0.00    +0.000 HD
ENDBRANCH  16  19
ENDBRANCH   5  17
ENDBRANCH   1   7
BRANCH   3  21
ATOM     21  C   UNL     1       1.758   6.067  20.138  0.00  0.00    +0.000 C 
BRANCH  21  22
ATOM     22  C   UNL     1       2.028   7.380  20.875  0.00  0.00    +0.000 C 
BRANCH  22  23
ATOM     23  C   UNL     1       1.221   8.515  20.298  0.00  0.00    +0.000 A 
ATOM     24  C   UNL     1       0.191   9.107  21.045  0.00  0.00    +0.000 A 
ATOM     25  C   UNL     1      -0.588  10.115  20.483  0.00  0.00    +0.000 A 
ATOM     26  C   UNL     1      -0.340  10.532  19.176  0.00  0.00    +0.000 A 
ATOM     27  C   UNL     1       0.684   9.960  18.417  0.00  0.00    +0.000 A 
ATOM     28  C   UNL     1       1.462   8.953  18.986  0.00  0.00    +0.000 A 
BRANCH  26  29
ATOM     29  S   UNL     1      -1.362  11.790  18.479  0.00  0.00    +0.000 S 
ATOM     30  O   UNL     1      -2.033  11.257  17.315  0.00  0.00    +0.000 OA
ATOM     31  O   UNL     1      -2.064  12.476  19.535  0.00  0.00    +0.000 OA
BRANCH  29  32
ATOM     32  N   UNL     1      -0.183  12.840  17.914  0.00  0.00    +0.000 NA
ATOM     33  H   UNL     1      -0.585  13.716  17.583  0.00  0.00    +0.000 HD
ATOM     34  H   UNL     1       0.589  12.923  18.574  0.00  0.00    +0.000 HD
ENDBRANCH  29  32
ENDBRANCH  26  29
ENDBRANCH  22  23
ENDBRANCH  21  22
ENDBRANCH   3  21
TORSDOF 8
ENDMDL
