MODEL 1
REMARK VINA RESULT:      -7.9      0.000      0.000
REMARK  Name = 
REMARK  8 active torsions:
REMARK  status: ('A' for Active; 'I' for Inactive)
REMARK    1  A    between atoms: N_1  and  C_2
REMARK    2  A    between atoms: C_2  and  C_3
REMARK    3  A    between atoms: C_3  and  C_4
REMARK    4  A    between atoms: C_4  and  C_5
REMARK    5  A    between atoms: C_5  and  N_6
REMARK    6  A    between atoms: N_6  and  C_7
REMARK    7  A    between atoms: C_7  and  C_8
REMARK    8  A    between atoms: N_10  and  C_11
REMARK                            x       y       z     vdW  Elec       q    Type
REMARK                         _______ _______ _______ _____ _____    ______ ____
ROOT
ATOM      1  C   UNL     1       6.213   4.960  18.181  0.00  0.00    +0.000 C 
ATOM      2  O   UNL     1       6.621   5.184  19.320  0.00  0.00    +0.000 OA
ATOM      3  N   UNL     1       4.878   4.961  17.790  0.00  0.00    +0.000 N 
ATOM      4  H   UNL     1       4.667   4.373  17.001  0.00  0.00    +0.000 HD
ENDROOT
BRANCH   3   5
ATOM      5  C   UNL     1       3.826   5.267  18.703  0.00  0.00    +0.000 A 
ATOM      6  C   UNL     1       3.182   6.547  18.652  0.00  0.00    +0.000 A 
ATOM      7  C   UNL     1       3.412   7.522  17.653  0.00  0.00    +0.000 A 
ATOM      8  C   UNL     1       2.790   8.768  17.641  0.00  0.00    +0.000 A 
ATOM      9  C   UNL     1       1.880   9.077  18.635  0.00  0.00    +0.000 A 
ATOM     10  C   UNL     1       1.579   8.122  19.606  0.00  0.00    +0.000 A 
ATOM     11  C   UNL     1       2.204   6.859  19.614  0.00  0.00    +0.000 A 
ATOM     12  C   UNL     1       1.846   5.897  20.564  0.00  0.00    +0.000 A 
ATOM     13  C   UNL     1       2.426   4.619  20.586  0.00  0.00    +0.000 A 
ATOM     14  C   UNL     1       2.015   3.697  21.563  0.00  0.00    +0.000 A 
ATOM     15  C   UNL     1       2.585   2.429  21.636  0.00  0.00    +0.000 A 
ATOM     16  C   UNL     1       3.573   2.069  20.730  0.00  0.00    +0.000 A 
ATOM     17  C   UNL     1       3.987   2.976  19.750  0.00  0.00    +0.000 A 
ATOM     18  C   UNL     1       3.423   4.273  19.645  0.00  0.00    +0.000 A 
ENDBRANCH   3   5
BRANCH   1  19
ATOM     19  C   UNL     1       7.191   4.608  17.054  0.00  0.00    +0.000 C 
BRANCH  19  20
ATOM     20  N   UNL     1       6.549   3.809  15.989  0.00  0.00    +0.000 NA
ATOM     21  H   UNL     1       6.995   2.892  15.964  0.00  0.00    +0.000 HD
BRANCH  20  22
ATOM     22  C   UNL     1       6.731   4.440  14.676  0.00  0.00    +0.000 C 
BRANCH  22  23
ATOM     23  C   UNL     1       5.702   3.913  13.680  0.00  0.00    +0.000 C 
BRANCH  23  24
ATOM     24  C   UNL     1       6.380   3.477  12.378  0.00  0.00    +0.000 C 
BRANCH  24  25
ATOM     25  C   UNL     1       5.484   2.534  11.582  0.00  0.00    +0.000 C 
BRANCH  25  26
ATOM     26  N   UNL     1       6.181   1.284  11.309  0.00  0.00    +0.000 NA
ATOM     27  H   UNL     1       6.379   0.809  12.190  0.00  0.00    +0.000 HD
ATOM     28  H   UNL     1       7.086   1.479  10.881  0.00  0.00    +0.000 HD
ENDBRANCH  25  26
ENDBRANCH  24  25
ENDBRANCH  23  24
ENDBRANCH  22  23
ENDBRANCH  20  22
ENDBRANCH  19  20
ENDBRANCH   1  19
TORSDOF 8
ENDMDL
MODEL 2
REMARK VINA RESULT:      -7.6      1.027      3.887
REMARK  Name = 
REMARK  8 active torsions:
REMARK  status: ('A' for Active; 'I' for Inactive)
REMARK    1  A    between atoms: N_1  and  C_2
REMARK    2  A    between atoms: C_2  and  C_3
REMARK    3  A    between atoms: C_3  and  C_4
REMARK    4  A    between atoms: C_4  and  C_5
REMARK    5  A    between atoms: C_5  and  N_6
REMARK    6  A    between atoms: N_6  and  C_7
REMARK    7  A    between atoms: C_7  and  C_8
REMARK    8  A    between atoms: N_10  and  C_11
REMARK                            x       y       z     vdW  Elec       q    Type
REMARK                         _______ _______ _______ _____ _____    ______ ____
ROOT
ATOM      1  C   UNL     1       4.978   5.727  16.973  0.00  0.00    +0.000 C 
ATOM      2  O   UNL     1       5.772   6.128  17.823  0.00  0.00    +0.000 OA
ATOM      3  N   UNL     1       3.623   5.498  17.183  0.00  0.00    +0.000 N 
ATOM      4  H   UNL     1       3.211   4.805  16.580  0.00  0.00    +0.000 HD
ENDROOT
BRANCH   3   5
ATOM      5  C   UNL     1       3.002   5.750  18.442  0.00  0.00    +0.000 A 
ATOM      6  C   UNL     1       2.910   4.703  19.418  0.00  0.00    +0.000 A 
ATOM      7  C   UNL     1       3.522   3.434  19.294  0.00  0.00    +0.000 A 
ATOM      8  C   UNL     1       3.397   2.427  20.247  0.00  0.00    +0.000 A 
ATOM      9  C   UNL     1       2.659   2.668  21.391  0.00  0.00    +0.000 A 
ATOM     10  C   UNL     1       2.087   3.926  21.581  0.00  0.00    +0.000 A 
ATOM     11  C   UNL     1       2.220   4.948  20.619  0.00  0.00    +0.000 A 
ATOM     12  C   UNL     1       1.686   6.219  20.857  0.00  0.00    +0.000 A 
ATOM     13  C   UNL     1       1.822   7.269  19.935  0.00  0.00    +0.000 A 
ATOM     14  C   UNL     1       1.269   8.523  20.238  0.00  0.00    +0.000 A 
ATOM     15  C   UNL     1       1.358   9.582  19.340  0.00  0.00    +0.000 A 
ATOM     16  C   UNL     1       2.006   9.398  18.126  0.00  0.00    +0.000 A 
ATOM     17  C   UNL     1       2.565   8.155  17.814  0.00  0.00    +0.000 A 
ATOM     18  C   UNL     1       2.496   7.057  18.709  0.00  0.00    +0.000 A 
ENDBRANCH   3   5
BRANCH   1  19
ATOM     19  C   UNL     1       5.453   5.396  15.552  0.00  0.00    +0.000 C 
BRANCH  19  20
ATOM     20  N   UNL     1       6.850   4.915  15.531  0.00  0.00    +0.000 NA
ATOM     21  H   UNL     1       7.455   5.677  15.840  0.00  0.00    +0.000 HD
BRANCH  20  22
ATOM     22  C   UNL     1       7.255   4.536  14.172  0.00  0.00    +0.000 C 
BRANCH  22  23
ATOM     23  C   UNL     1       6.065   3.984  13.392  0.00  0.00    +0.000 C 
BRANCH  23  24
ATOM     24  C   UNL     1       6.516   3.426  12.038  0.00  0.00    +0.000 C 
BRANCH  24  25
ATOM     25  C   UNL     1       5.760   2.147  11.694  0.00  0.00    +0.000 C 
BRANCH  25  26
ATOM     26  N   UNL     1       6.674   1.151  11.149  0.00  0.00    +0.000 NA
ATOM     27  H   UNL     1       6.791   1.312  10.148  0.00  0.00    +0.000 HD
ATOM     28  H   UNL     1       6.267   0.221  11.242  0.00  0.00    +0.000 HD
ENDBRANCH  25  26
ENDBRANCH  24  25
ENDBRANCH  23  24
ENDBRANCH  22  23
ENDBRANCH  20  22
ENDBRANCH  19  20
ENDBRANCH   1  19
TORSDOF 8
ENDMDL
MODEL 3
REMARK VINA RESULT:      -7.4      3.245      5.268
REMARK  Name = 
REMARK  8 active torsions:
REMARK  status: ('A' for Active; 'I' for Inactive)
REMARK    1  A    between atoms: N_1  and  C_2
REMARK    2  A    between atoms: C_2  and  C_3
REMARK    3  A    between atoms: C_3  and  C_4
REMARK    4  A    between atoms: C_4  and  C_5
REMARK    5  A    between atoms: C_5  and  N_6
REMARK    6  A    between atoms: N_6  and  C_7
REMARK    7  A    between atoms: C_7  and  C_8
REMARK    8  A    between atoms: N_10  and  C_11
REMARK                            x       y       z     vdW  Elec       q    Type
REMARK                         _______ _______ _______ _____ _____    ______ ____
ROOT
ATOM      1  C   UNL     1       1.812   4.483  20.665  0.00  0.00    +0.000 C 
ATOM      2  O   UNL     1       0.861   4.387  19.891  0.00  0.00    +0.000 OA
ATOM      3  N   UNL     1       2.788   5.473  20.622  0.00  0.00    +0.000 N 
ATOM      4  H   UNL     1       3.682   5.205  20.999  0.00  0.00    +0.000 HD
ENDROOT
BRANCH   3   5
ATOM      5  C   UNL     1       2.752   6.526  19.660  0.00  0.00    +0.000 A 
ATOM      6  C   UNL     1       1.908   7.664  19.874  0.00  0.00    +0.000 A 
ATOM      7  C   UNL     1       1.181   7.913  21.062  0.00  0.00    +0.000 A 
ATOM      8  C   UNL     1       0.349   9.016  21.234  0.00  0.00    +0.000 A 
ATOM      9  C   UNL     1       0.232   9.939  20.211  0.00  0.00    +0.000 A 
ATOM     10  C   UNL     1       0.977   9.764  19.045  0.00  0.00    +0.000 A 
ATOM     11  C   UNL     1       1.824   8.651  18.874  0.00  0.00    +0.000 A 
ATOM     12  C   UNL     1       2.605   8.525  17.720  0.00  0.00    +0.000 A 
ATOM     13  C   UNL     1       3.480   7.445  17.527  0.00  0.00    +0.000 A 
ATOM     14  C   UNL     1       4.242   7.382  16.348  0.00  0.00    +0.000 A 
ATOM     15  C   UNL     1       5.101   6.315  16.105  0.00  0.00    +0.000 A 
ATOM     16  C   UNL     1       5.210   5.297  17.043  0.00  0.00    +0.000 A 
ATOM     17  C   UNL     1       4.462   5.350  18.222  0.00  0.00    +0.000 A 
ATOM     18  C   UNL     1       3.581   6.426  18.502  0.00  0.00    +0.000 A 
ENDBRANCH   3   5
BRANCH   1  19
ATOM     19  C   UNL     1       2.028   3.444  21.772  0.00  0.00    +0.000 C 
BRANCH  19  20
ATOM     20  N   UNL     1       2.429   2.130  21.230  0.00  0.00    +0.000 NA
ATOM     21  H   UNL     1       2.144   1.409  21.894  0.00  0.00    +0.000 HD
BRANCH  20  22
ATOM     22  C   UNL     1       3.886   2.049  21.069  0.00  0.00    +0.000 C 
BRANCH  22  23
ATOM     23  C   UNL     1       4.283   2.340  19.625  0.00  0.00    +0.000 C 
BRANCH  23  24
ATOM     24  C   UNL     1       3.556   1.396  18.661  0.00  0.00    +0.000 C 
BRANCH  24  25
ATOM     25  C   UNL     1       2.577   2.163  17.778  0.00  0.00    +0.000 C 
BRANCH  25  26
ATOM     26  N   UNL     1       1.210   1.945  18.232  0.00  0.00    +0.000 NA
ATOM     27  H   UNL     1       0.765   1.243  17.641  0.00  0.00    +0.000 HD
ATOM     28  H   UNL     1       0.667   2.800  18.117  0.00  0.00    +0.000 HD
ENDBRANCH  25  26
ENDBRANCH  24  25
ENDBRANCH  23  24
ENDBRANCH  22  23
ENDBRANCH  20  22
ENDBRANCH  19  20
ENDBRANCH   1  19
TORSDOF 8
ENDMDL
MODEL 4
REMARK VINA RESULT:      -7.3      1.105      1.154
REMARK  Name = 
REMARK  8 active torsions:
REMARK  status: ('A' for Active; 'I' for Inactive)
REMARK    1  A    between atoms: N_1  and  C_2
REMARK    2  A    between atoms: C_2  and  C_3
REMARK    3  A    between atoms: C_3  and  C_4
REMARK    4  A    between atoms: C_4  and  C_5
REMARK    5  A    between atoms: C_5  and  N_6
REMARK    6  A    between atoms: N_6  and  C_7
REMARK    7  A    between atoms: C_7  and  C_8
REMARK    8  A    between atoms: N_10  and  C_11
REMARK                            x       y       z     vdW  Elec       q    Type
REMARK                         _______ _______ _______ _____ _____    ______ ____
ROOT
ATOM      1  C   UNL     1       5.077   4.401  16.752  0.00  0.00    +0.000 C 
ATOM      2  O   UNL     1       4.044   3.961  16.251  0.00  0.00    +0.000 OA
ATOM      3  N   UNL     1       5.158   5.084  17.961  0.00  0.00    +0.000 N 
ATOM      4  H   UNL     1       5.929   5.727  18.035  0.00  0.00    +0.000 HD
ENDROOT
BRANCH   3   5
ATOM      5  C   UNL     1       4.010   5.314  18.775  0.00  0.00    +0.000 A 
ATOM      6  C   UNL     1       3.284   6.545  18.659  0.00  0.00    +0.000 A 
ATOM      7  C   UNL     1       3.531   7.534  17.678  0.00  0.00    +0.000 A 
ATOM      8  C   UNL     1       2.826   8.732  17.603  0.00  0.00    +0.000 A 
ATOM      9  C   UNL     1       1.812   8.976  18.511  0.00  0.00    +0.000 A 
ATOM     10  C   UNL     1       1.495   8.002  19.458  0.00  0.00    +0.000 A 
ATOM     11  C   UNL     1       2.205   6.787  19.529  0.00  0.00    +0.000 A 
ATOM     12  C   UNL     1       1.833   5.801  20.451  0.00  0.00    +0.000 A 
ATOM     13  C   UNL     1       2.499   4.568  20.532  0.00  0.00    +0.000 A 
ATOM     14  C   UNL     1       2.070   3.619  21.474  0.00  0.00    +0.000 A 
ATOM     15  C   UNL     1       2.720   2.396  21.606  0.00  0.00    +0.000 A 
ATOM     16  C   UNL     1       3.806   2.106  20.792  0.00  0.00    +0.000 A 
ATOM     17  C   UNL     1       4.240   3.040  19.847  0.00  0.00    +0.000 A 
ATOM     18  C   UNL     1       3.597   4.294  19.685  0.00  0.00    +0.000 A 
ENDBRANCH   3   5
BRANCH   1  19
ATOM     19  C   UNL     1       6.422   4.256  16.028  0.00  0.00    +0.000 C 
BRANCH  19  20
ATOM     20  N   UNL     1       6.271   3.630  14.698  0.00  0.00    +0.000 NA
ATOM     21  H   UNL     1       6.840   2.783  14.677  0.00  0.00    +0.000 HD
BRANCH  20  22
ATOM     22  C   UNL     1       6.751   4.525  13.638  0.00  0.00    +0.000 C 
BRANCH  22  23
ATOM     23  C   UNL     1       6.744   3.811  12.289  0.00  0.00    +0.000 C 
BRANCH  23  24
ATOM     24  C   UNL     1       5.461   2.991  12.116  0.00  0.00    +0.000 C 
BRANCH  24  25
ATOM     25  C   UNL     1       5.687   1.814  11.171  0.00  0.00    +0.000 C 
BRANCH  25  26
ATOM     26  N   UNL     1       7.037   1.290  11.332  0.00  0.00    +0.000 NA
ATOM     27  H   UNL     1       7.519   1.316  10.434  0.00  0.00    +0.000 HD
ATOM     28  H   UNL     1       6.996   0.308  11.604  0.00  0.00    +0.000 HD
ENDBRANCH  25  26
ENDBRANCH  24  25
ENDBRANCH  23  24
ENDBRANCH  22  23
ENDBRANCH  20  22
ENDBRANCH  19  20
ENDBRANCH   1  19
TORSDOF 8
ENDMDL
MODEL 5
REMARK VINA RESULT:      -7.3      3.637      7.554
REMARK  Name = 
REMARK  8 active torsions:
REMARK  status: ('A' for Active; 'I' for Inactive)
REMARK    1  A    between atoms: N_1  and  C_2
REMARK    2  A    between atoms: C_2  and  C_3
REMARK    3  A    between atoms: C_3  and  C_4
REMARK    4  A    between atoms: C_4  and  C_5
REMARK    5  A    between atoms: C_5  and  N_6
REMARK    6  A    between atoms: N_6  and  C_7
REMARK    7  A    between atoms: C_7  and  C_8
REMARK    8  A    between atoms: N_10  and  C_11
REMARK                            x       y       z     vdW  Elec       q    Type
REMARK                         _______ _______ _______ _____ _____    ______ ____
ROOT
ATOM      1  C   UNL     1       2.216   7.865  18.386  0.00  0.00    +0.000 C 
ATOM      2  O   UNL     1       2.352   7.789  19.607  0.00  0.00    +0.000 OA
ATOM      3  N   UNL     1       2.782   6.998  17.458  0.00  0.00    +0.000 N 
ATOM      4  H   UNL     1       2.948   7.399  16.550  0.00  0.00    +0.000 HD
ENDROOT
BRANCH   3   5
ATOM      5  C   UNL     1       3.574   5.880  17.855  0.00  0.00    +0.000 A 
ATOM      6  C   UNL     1       2.940   4.649  18.225  0.00  0.00    +0.000 A 
ATOM      7  C   UNL     1       1.556   4.388  18.097  0.00  0.00    +0.000 A 
ATOM      8  C   UNL     1       0.962   3.190  18.486  0.00  0.00    +0.000 A 
ATOM      9  C   UNL     1       1.754   2.182  19.005  0.00  0.00    +0.000 A 
ATOM     10  C   UNL     1       3.133   2.375  19.093  0.00  0.00    +0.000 A 
ATOM     11  C   UNL     1       3.733   3.585  18.693  0.00  0.00    +0.000 A 
ATOM     12  C   UNL     1       5.124   3.736  18.738  0.00  0.00    +0.000 A 
ATOM     13  C   UNL     1       5.760   4.916  18.322  0.00  0.00    +0.000 A 
ATOM     14  C   UNL     1       7.160   4.999  18.386  0.00  0.00    +0.000 A 
ATOM     15  C   UNL     1       7.827   6.160  18.009  0.00  0.00    +0.000 A 
ATOM     16  C   UNL     1       7.099   7.254  17.560  0.00  0.00    +0.000 A 
ATOM     17  C   UNL     1       5.705   7.182  17.487  0.00  0.00    +0.000 A 
ATOM     18  C   UNL     1       4.995   6.012  17.859  0.00  0.00    +0.000 A 
ENDBRANCH   3   5
BRANCH   1  19
ATOM     19  C   UNL     1       1.400   9.002  17.760  0.00  0.00    +0.000 C 
BRANCH  19  20
ATOM     20  N   UNL     1       1.410  10.220  18.597  0.00  0.00    +0.000 NA
ATOM     21  H   UNL     1       1.857   9.993  19.486  0.00  0.00    +0.000 HD
BRANCH  20  22
ATOM     22  C   UNL     1       0.043  10.674  18.881  0.00  0.00    +0.000 C 
BRANCH  22  23
ATOM     23  C   UNL     1      -0.420  10.164  20.243  0.00  0.00    +0.000 C 
BRANCH  23  24
ATOM     24  C   UNL     1       0.625  10.471  21.321  0.00  0.00    +0.000 C 
BRANCH  24  25
ATOM     25  C   UNL     1       0.787   9.295  22.278  0.00  0.00    +0.000 C 
BRANCH  25  26
ATOM     26  N   UNL     1       0.355   9.671  23.618  0.00  0.00    +0.000 NA
ATOM     27  H   UNL     1      -0.655   9.812  23.620  0.00  0.00    +0.000 HD
ATOM     28  H   UNL     1       0.769  10.567  23.875  0.00  0.00    +0.000 HD
ENDBRANCH  25  26
ENDBRANCH  24  25
ENDBRANCH  23  24
ENDBRANCH  22  23
ENDBRANCH  20  22
ENDBRANCH  19  20
ENDBRANCH   1  19
TORSDOF 8
ENDMDL
MODEL 6
REMARK VINA RESULT:      -7.3      3.574      6.880
REMARK  Name = 
REMARK  8 active torsions:
REMARK  status: ('A' for Active; 'I' for Inactive)
REMARK    1  A    between atoms: N_1  and  C_2
REMARK    2  A    between atoms: C_2  and  C_3
REMARK    3  A    between atoms: C_3  and  C_4
REMARK    4  A    between atoms: C_4  and  C_5
REMARK    5  A    between atoms: C_5  and  N_6
REMARK    6  A    between atoms: N_6  and  C_7
REMARK    7  A    between atoms: C_7  and  C_8
REMARK    8  A    between atoms: N_10  and  C_11
REMARK                            x       y       z     vdW  Elec       q    Type
REMARK                         _______ _______ _______ _____ _____    ______ ____
ROOT
ATOM      1  C   UNL     1       1.963   8.040  18.398  0.00  0.00    +0.000 C 
ATOM      2  O   UNL     1       1.348   7.762  17.369  0.00  0.00    +0.000 OA
ATOM      3  N   UNL     1       2.836   7.190  19.067  0.00  0.00    +0.000 N 
ATOM      4  H   UNL     1       2.921   7.361  20.056  0.00  0.00    +0.000 HD
ENDROOT
BRANCH   3   5
ATOM      5  C   UNL     1       3.136   5.882  18.583  0.00  0.00    +0.000 A 
ATOM      6  C   UNL     1       4.020   5.717  17.466  0.00  0.00    +0.000 A 
ATOM      7  C   UNL     1       4.757   6.763  16.863  0.00  0.00    +0.000 A 
ATOM      8  C   UNL     1       5.591   6.577  15.764  0.00  0.00    +0.000 A 
ATOM      9  C   UNL     1       5.737   5.309  15.234  0.00  0.00    +0.000 A 
ATOM     10  C   UNL     1       5.075   4.238  15.835  0.00  0.00    +0.000 A 
ATOM     11  C   UNL     1       4.236   4.425  16.951  0.00  0.00    +0.000 A 
ATOM     12  C   UNL     1       3.626   3.329  17.572  0.00  0.00    +0.000 A 
ATOM     13  C   UNL     1       2.807   3.473  18.702  0.00  0.00    +0.000 A 
ATOM     14  C   UNL     1       2.231   2.331  19.282  0.00  0.00    +0.000 A 
ATOM     15  C   UNL     1       1.391   2.433  20.386  0.00  0.00    +0.000 A 
ATOM     16  C   UNL     1       1.119   3.683  20.927  0.00  0.00    +0.000 A 
ATOM     17  C   UNL     1       1.690   4.827  20.362  0.00  0.00    +0.000 A 
ATOM     18  C   UNL     1       2.554   4.757  19.240  0.00  0.00    +0.000 A 
ENDBRANCH   3   5
BRANCH   1  19
ATOM     19  C   UNL     1       1.775   9.402  19.078  0.00  0.00    +0.000 C 
BRANCH  19  20
ATOM     20  N   UNL     1       1.283  10.429  18.137  0.00  0.00    +0.000 NA
ATOM     21  H   UNL     1       2.045  11.083  17.950  0.00  0.00    +0.000 HD
BRANCH  20  22
ATOM     22  C   UNL     1       0.169  11.187  18.721  0.00  0.00    +0.000 C 
BRANCH  22  23
ATOM     23  C   UNL     1      -1.082  10.318  18.809  0.00  0.00    +0.000 C 
BRANCH  23  24
ATOM     24  C   UNL     1      -1.622   9.999  17.411  0.00  0.00    +0.000 C 
BRANCH  24  25
ATOM     25  C   UNL     1      -3.107  10.333  17.308  0.00  0.00    +0.000 C 
BRANCH  25  26
ATOM     26  N   UNL     1      -3.294  11.773  17.189  0.00  0.00    +0.000 NA
ATOM     27  H   UNL     1      -2.941  12.230  18.029  0.00  0.00    +0.000 HD
ATOM     28  H   UNL     1      -4.290  11.989  17.143  0.00  0.00    +0.000 HD
ENDBRANCH  25  26
ENDBRANCH  24  25
ENDBRANCH  23  24
ENDBRANCH  22  23
ENDBRANCH  20  22
ENDBRANCH  19  20
ENDBRANCH   1  19
TORSDOF 8
ENDMDL
MODEL 7
REMARK VINA RESULT:      -7.2      2.012      3.291
REMARK  Name = 
REMARK  8 active torsions:
REMARK  status: ('A' for Active; 'I' for Inactive)
REMARK    1  A    between atoms: N_1  and  C_2
REMARK    2  A    between atoms: C_2  and  C_3
REMARK    3  A    between atoms: C_3  and  C_4
REMARK    4  A    between atoms: C_4  and  C_5
REMARK    5  A    between atoms: C_5  and  N_6
REMARK    6  A    between atoms: N_6  and  C_7
REMARK    7  A    between atoms: C_7  and  C_8
REMARK    8  A    between atoms: N_10  and  C_11
REMARK                            x       y       z     vdW  Elec       q    Type
REMARK                         _______ _______ _______ _____ _____    ______ ____
ROOT
ATOM      1  C   UNL     1       4.047   4.417  16.595  0.00  0.00    +0.000 C 
ATOM      2  O   UNL     1       3.005   3.773  16.482  0.00  0.00    +0.000 OA
ATOM      3  N   UNL     1       4.321   5.332  17.605  0.00  0.00    +0.000 N 
ATOM      4  H   UNL     1       4.971   6.060  17.354  0.00  0.00    +0.000 HD
ENDROOT
BRANCH   3   5
ATOM      5  C   UNL     1       3.397   5.591  18.661  0.00  0.00    +0.000 A 
ATOM      6  C   UNL     1       2.742   6.863  18.744  0.00  0.00    +0.000 A 
ATOM      7  C   UNL     1       2.828   7.877  17.761  0.00  0.00    +0.000 A 
ATOM      8  C   UNL     1       2.200   9.114  17.879  0.00  0.00    +0.000 A 
ATOM      9  C   UNL     1       1.427   9.375  18.996  0.00  0.00    +0.000 A 
ATOM     10  C   UNL     1       1.267   8.381  19.961  0.00  0.00    +0.000 A 
ATOM     11  C   UNL     1       1.898   7.127  19.838  0.00  0.00    +0.000 A 
ATOM     12  C   UNL     1       1.677   6.126  20.791  0.00  0.00    +0.000 A 
ATOM     13  C   UNL     1       2.266   4.856  20.687  0.00  0.00    +0.000 A 
ATOM     14  C   UNL     1       1.997   3.893  21.674  0.00  0.00    +0.000 A 
ATOM     15  C   UNL     1       2.582   2.632  21.623  0.00  0.00    +0.000 A 
ATOM     16  C   UNL     1       3.443   2.318  20.580  0.00  0.00    +0.000 A 
ATOM     17  C   UNL     1       3.715   3.266  19.589  0.00  0.00    +0.000 A 
ATOM     18  C   UNL     1       3.132   4.558  19.609  0.00  0.00    +0.000 A 
ENDBRANCH   3   5
BRANCH   1  19
ATOM     19  C   UNL     1       5.167   4.282  15.556  0.00  0.00    +0.000 C 
BRANCH  19  20
ATOM     20  N   UNL     1       6.382   3.665  16.127  0.00  0.00    +0.000 NA
ATOM     21  H   UNL     1       6.129   3.215  17.007  0.00  0.00    +0.000 HD
BRANCH  20  22
ATOM     22  C   UNL     1       7.402   4.682  16.415  0.00  0.00    +0.000 C 
BRANCH  22  23
ATOM     23  C   UNL     1       7.729   4.707  17.906  0.00  0.00    +0.000 C 
BRANCH  23  24
ATOM     24  C   UNL     1       7.636   6.133  18.457  0.00  0.00    +0.000 C 
BRANCH  24  25
ATOM     25  C   UNL     1       7.100   7.095  17.402  0.00  0.00    +0.000 C 
BRANCH  25  26
ATOM     26  N   UNL     1       7.853   8.343  17.427  0.00  0.00    +0.000 NA
ATOM     27  H   UNL     1       7.267   9.098  17.072  0.00  0.00    +0.000 HD
ATOM     28  H   UNL     1       8.650   8.278  16.794  0.00  0.00    +0.000 HD
ENDBRANCH  25  26
ENDBRANCH  24  25
ENDBRANCH  23  24
ENDBRANCH  22  23
ENDBRANCH  20  22
ENDBRANCH  19  20
ENDBRANCH   1  19
TORSDOF 8
ENDMDL
MODEL 8
REMARK VINA RESULT:      -7.2      3.653      7.252
REMARK  Name = 
REMARK  8 active torsions:
REMARK  status: ('A' for Active; 'I' for Inactive)
REMARK    1  A    between atoms: N_1  and  C_2
REMARK    2  A    between atoms: C_2  and  C_3
REMARK    3  A    between atoms: C_3  and  C_4
REMARK    4  A    between atoms: C_4  and  C_5
REMARK    5  A    between atoms: C_5  and  N_6
REMARK    6  A    between atoms: N_6  and  C_7
REMARK    7  A    between atoms: C_7  and  C_8
REMARK    8  A    between atoms: N_10  and  C_11
REMARK                            x       y       z     vdW  Elec       q    Type
REMARK                         _______ _______ _______ _____ _____    ______ ____
ROOT
ATOM      1  C   UNL     1       2.216   7.934  18.411  0.00  0.00    +0.000 C 
ATOM      2  O   UNL     1       2.292   7.768  19.627  0.00  0.00    +0.000 OA
ATOM      3  N   UNL     1       2.841   7.147  17.450  0.00  0.00    +0.000 N 
ATOM      4  H   UNL     1       3.046   7.618  16.583  0.00  0.00    +0.000 HD
ENDROOT
BRANCH   3   5
ATOM      5  C   UNL     1       3.630   6.012  17.802  0.00  0.00    +0.000 A 
ATOM      6  C   UNL     1       2.993   4.771  18.130  0.00  0.00    +0.000 A 
ATOM      7  C   UNL     1       1.607   4.520  18.000  0.00  0.00    +0.000 A 
ATOM      8  C   UNL     1       1.010   3.311  18.349  0.00  0.00    +0.000 A 
ATOM      9  C   UNL     1       1.801   2.282  18.826  0.00  0.00    +0.000 A 
ATOM     10  C   UNL     1       3.180   2.466  18.914  0.00  0.00    +0.000 A 
ATOM     11  C   UNL     1       3.784   3.688  18.555  0.00  0.00    +0.000 A 
ATOM     12  C   UNL     1       5.176   3.831  18.599  0.00  0.00    +0.000 A 
ATOM     13  C   UNL     1       5.814   5.023  18.222  0.00  0.00    +0.000 A 
ATOM     14  C   UNL     1       7.215   5.098  18.282  0.00  0.00    +0.000 A 
ATOM     15  C   UNL     1       7.885   6.270  17.944  0.00  0.00    +0.000 A 
ATOM     16  C   UNL     1       7.159   7.381  17.538  0.00  0.00    +0.000 A 
ATOM     17  C   UNL     1       5.764   7.318  17.470  0.00  0.00    +0.000 A 
ATOM     18  C   UNL     1       5.052   6.138  17.804  0.00  0.00    +0.000 A 
ENDBRANCH   3   5
BRANCH   1  19
ATOM     19  C   UNL     1       1.413   9.106  17.830  0.00  0.00    +0.000 C 
BRANCH  19  20
ATOM     20  N   UNL     1       0.783   9.925  18.886  0.00  0.00    +0.000 NA
ATOM     21  H   UNL     1       0.542   9.312  19.665  0.00  0.00    +0.000 HD
BRANCH  20  22
ATOM     22  C   UNL     1      -0.454  10.549  18.400  0.00  0.00    +0.000 C 
BRANCH  22  23
ATOM     23  C   UNL     1      -1.166   9.629  17.412  0.00  0.00    +0.000 C 
BRANCH  23  24
ATOM     24  C   UNL     1      -2.657   9.972  17.329  0.00  0.00    +0.000 C 
BRANCH  24  25
ATOM     25  C   UNL     1      -3.106  10.119  15.879  0.00  0.00    +0.000 C 
BRANCH  25  26
ATOM     26  N   UNL     1      -3.100  11.523  15.488  0.00  0.00    +0.000 NA
ATOM     27  H   UNL     1      -3.898  11.709  14.881  0.00  0.00    +0.000 HD
ATOM     28  H   UNL     1      -2.267  11.724  14.934  0.00  0.00    +0.000 HD
ENDBRANCH  25  26
ENDBRANCH  24  25
ENDBRANCH  23  24
ENDBRANCH  22  23
ENDBRANCH  20  22
ENDBRANCH  19  20
ENDBRANCH   1  19
TORSDOF 8
ENDMDL
MODEL 9
REMARK VINA RESULT:      -7.2      3.643      7.422
REMARK  Name = 
REMARK  8 active torsions:
REMARK  status: ('A' for Active; 'I' for Inactive)
REMARK    1  A    between atoms: N_1  and  C_2
REMARK    2  A    between atoms: C_2  and  C_3
REMARK    3  A    between atoms: C_3  and  C_4
REMARK    4  A    between atoms: C_4  and  C_5
REMARK    5  A    between atoms: C_5  and  N_6
REMARK    6  A    between atoms: N_6  and  C_7
REMARK    7  A    between atoms: C_7  and  C_8
REMARK    8  A    between atoms: N_10  and  C_11
REMARK                            x       y       z     vdW  Elec       q    Type
REMARK                         _______ _______ _______ _____ _____    ______ ____
ROOT
ATOM      1  C   UNL     1       2.154   7.880  18.385  0.00  0.00    +0.000 C 
ATOM      2  O   UNL     1       2.307   7.816  19.604  0.00  0.00    +0.000 OA
ATOM      3  N   UNL     1       2.721   7.013  17.457  0.00  0.00    +0.000 N 
ATOM      4  H   UNL     1       2.869   7.408  16.543  0.00  0.00    +0.000 HD
ENDROOT
BRANCH   3   5
ATOM      5  C   UNL     1       3.535   5.910  17.854  0.00  0.00    +0.000 A 
ATOM      6  C   UNL     1       2.924   4.673  18.242  0.00  0.00    +0.000 A 
ATOM      7  C   UNL     1       1.543   4.389  18.133  0.00  0.00    +0.000 A 
ATOM      8  C   UNL     1       0.973   3.186  18.540  0.00  0.00    +0.000 A 
ATOM      9  C   UNL     1       1.786   2.195  19.057  0.00  0.00    +0.000 A 
ATOM     10  C   UNL     1       3.163   2.410  19.127  0.00  0.00    +0.000 A 
ATOM     11  C   UNL     1       3.740   3.625  18.709  0.00  0.00    +0.000 A 
ATOM     12  C   UNL     1       5.128   3.797  18.736  0.00  0.00    +0.000 A 
ATOM     13  C   UNL     1       5.741   4.984  18.302  0.00  0.00    +0.000 A 
ATOM     14  C   UNL     1       7.141   5.089  18.348  0.00  0.00    +0.000 A 
ATOM     15  C   UNL     1       7.785   6.257  17.953  0.00  0.00    +0.000 A 
ATOM     16  C   UNL     1       7.034   7.335  17.504  0.00  0.00    +0.000 A 
ATOM     17  C   UNL     1       5.641   7.241  17.449  0.00  0.00    +0.000 A 
ATOM     18  C   UNL     1       4.954   6.064  17.839  0.00  0.00    +0.000 A 
ENDBRANCH   3   5
BRANCH   1  19
ATOM     19  C   UNL     1       1.313   8.999  17.759  0.00  0.00    +0.000 C 
BRANCH  19  20
ATOM     20  N   UNL     1       2.049  10.279  17.698  0.00  0.00    +0.000 NA
ATOM     21  H   UNL     1       3.040  10.086  17.846  0.00  0.00    +0.000 HD
BRANCH  20  22
ATOM     22  C   UNL     1       1.602  11.194  18.755  0.00  0.00    +0.000 C 
BRANCH  22  23
ATOM     23  C   UNL     1       1.772  12.645  18.315  0.00  0.00    +0.000 C 
BRANCH  23  24
ATOM     24  C   UNL     1       0.480  13.437  18.549  0.00  0.00    +0.000 C 
BRANCH  24  25
ATOM     25  C   UNL     1      -0.731  12.511  18.587  0.00  0.00    +0.000 C 
BRANCH  25  26
ATOM     26  N   UNL     1      -1.377  12.471  17.282  0.00  0.00    +0.000 NA
ATOM     27  H   UNL     1      -1.763  13.390  17.067  0.00  0.00    +0.000 HD
ATOM     28  H   UNL     1      -2.169  11.829  17.308  0.00  0.00    +0.000 HD
ENDBRANCH  25  26
ENDBRANCH  24  25
ENDBRANCH  23  24
ENDBRANCH  22  23
ENDBRANCH  20  22
ENDBRANCH  19  20
ENDBRANCH   1  19
TORSDOF 8
ENDMDL
