MODEL 1
REMARK VINA RESULT:      -7.2      0.000      0.000
REMARK  Name = 
REMARK  6 active torsions:
REMARK  status: ('A' for Active; 'I' for Inactive)
REMARK    1  A    between atoms: C_1  and  C_2
REMARK    2  A    between atoms: C_2  and  C_3
REMARK    3  A    between atoms: C_2  and  C_4
REMARK    4  A    between atoms: N_8  and  C_9
REMARK    5  A    between atoms: C_9  and  C_10
REMARK    6  A    between atoms: C_10  and  N_11
REMARK                            x       y       z     vdW  Elec       q    Type
REMARK                         _______ _______ _______ _____ _____    ______ ____
ROOT
ATOM      1  C   UNL     1       6.292   3.548  12.601  0.00  0.00    +0.000 A 
ATOM      2  N   UNL     1       7.126   4.208  11.792  0.00  0.00    +0.000 NA
ATOM      3  S   UNL     1       7.945   5.294  12.751  0.00  0.00    +0.000 S 
ATOM      4  C   UNL     1       7.148   4.794  14.196  0.00  0.00    +0.000 A 
ATOM      5  N   UNL     1       7.383   5.407  15.384  0.00  0.00    +0.000 N 
ATOM      6  N   UNL     1       6.275   3.836  13.964  0.00  0.00    +0.000 NA
ATOM      7  H   UNL     1       6.998   6.348  15.427  0.00  0.00    +0.000 HD
ENDROOT
BRANCH   1   9
ATOM      8  C   UNL     1       4.213   3.254  11.240  0.00  0.00    +0.000 C 
ATOM      9  C   UNL     1       5.323   2.561  12.028  0.00  0.00    +0.000 C 
ATOM     10  C   UNL     1       6.054   1.536  11.159  0.00  0.00    +0.000 C 
ENDBRANCH   1   9
BRANCH   5  11
ATOM     11  C   UNL     1       7.176   4.677  16.629  0.00  0.00    +0.000 C 
BRANCH  11  12
ATOM     12  C   UNL     1       6.695   5.598  17.743  0.00  0.00    +0.000 C 
ATOM     13  C   UNL     1       7.698   5.880  18.874  0.00  0.00    +0.000 C 
ATOM     14  C   UNL     1       7.413   6.948  17.880  0.00  0.00    +0.000 C 
BRANCH  12  15
ATOM     15  N   UNL     1       5.290   5.460  18.167  0.00  0.00    +0.000 N 
ATOM     16  C   UNL     1       4.286   6.350  17.881  0.00  0.00    +0.000 A 
ATOM     17  C   UNL     1       3.105   5.677  18.098  0.00  0.00    +0.000 A 
ATOM     18  C   UNL     1       3.495   4.434  18.618  0.00  0.00    +0.000 A 
ATOM     19  N   UNL     1       4.821   4.303  18.683  0.00  0.00    +0.000 NA
ENDBRANCH  12  15
ENDBRANCH  11  12
ENDBRANCH   5  11
TORSDOF 4
ENDMDL
MODEL 2
REMARK VINA RESULT:      -7.0      3.411      6.539
REMARK  Name = 
REMARK  6 active torsions:
REMARK  status: ('A' for Active; 'I' for Inactive)
REMARK    1  A    between atoms: C_1  and  C_2
REMARK    2  A    between atoms: C_2  and  C_3
REMARK    3  A    between atoms: C_2  and  C_4
REMARK    4  A    between atoms: N_8  and  C_9
REMARK    5  A    between atoms: C_9  and  C_10
REMARK    6  A    between atoms: C_10  and  N_11
REMARK                            x       y       z     vdW  Elec       q    Type
REMARK                         _______ _______ _______ _____ _____    ______ ____
ROOT
ATOM      1  C   UNL     1       1.666   4.384  19.952  0.00  0.00    +0.000 A 
ATOM      2  N   UNL     1       1.427   5.577  20.503  0.00  0.00    +0.000 NA
ATOM      3  S   UNL     1       2.496   6.640  19.796  0.00  0.00    +0.000 S 
ATOM      4  C   UNL     1       3.195   5.438  18.777  0.00  0.00    +0.000 A 
ATOM      5  N   UNL     1       4.235   5.724  17.953  0.00  0.00    +0.000 N 
ATOM      6  N   UNL     1       2.645   4.256  18.969  0.00  0.00    +0.000 NA
ATOM      7  H   UNL     1       5.105   5.888  18.456  0.00  0.00    +0.000 HD
ENDROOT
BRANCH   1   9
ATOM      8  C   UNL     1       0.802   2.111  19.362  0.00  0.00    +0.000 C 
ATOM      9  C   UNL     1       0.940   3.173  20.451  0.00  0.00    +0.000 C 
ATOM     10  C   UNL     1       1.637   2.601  21.687  0.00  0.00    +0.000 C 
ENDBRANCH   1   9
BRANCH   5  11
ATOM     11  C   UNL     1       4.445   4.930  16.749  0.00  0.00    +0.000 C 
BRANCH  11  12
ATOM     12  C   UNL     1       5.893   4.997  16.280  0.00  0.00    +0.000 C 
ATOM     13  C   UNL     1       6.372   3.844  15.383  0.00  0.00    +0.000 C 
ATOM     14  C   UNL     1       6.122   5.176  14.772  0.00  0.00    +0.000 C 
BRANCH  12  15
ATOM     15  N   UNL     1       6.887   5.500  17.244  0.00  0.00    +0.000 N 
ATOM     16  C   UNL     1       7.428   6.761  17.238  0.00  0.00    +0.000 A 
ATOM     17  C   UNL     1       7.977   6.948  18.487  0.00  0.00    +0.000 A 
ATOM     18  C   UNL     1       7.818   5.713  19.133  0.00  0.00    +0.000 A 
ATOM     19  N   UNL     1       7.176   4.822  18.377  0.00  0.00    +0.000 NA
ENDBRANCH  12  15
ENDBRANCH  11  12
ENDBRANCH   5  11
TORSDOF 4
ENDMDL
MODEL 3
REMARK VINA RESULT:      -6.8      0.821      1.099
REMARK  Name = 
REMARK  6 active torsions:
REMARK  status: ('A' for Active; 'I' for Inactive)
REMARK    1  A    between atoms: C_1  and  C_2
REMARK    2  A    between atoms: C_2  and  C_3
REMARK    3  A    between atoms: C_2  and  C_4
REMARK    4  A    between atoms: N_8  and  C_9
REMARK    5  A    between atoms: C_9  and  C_10
REMARK    6  A    between atoms: C_10  and  N_11
REMARK                            x       y       z     vdW  Elec       q    Type
REMARK                         _______ _______ _______ _____ _____    ______ ____
ROOT
ATOM      1  C   UNL     1       6.264   3.546  12.580  0.00  0.00    +0.000 A 
ATOM      2  N   UNL     1       7.091   4.241  11.793  0.00  0.00    +0.000 NA
ATOM      3  S   UNL     1       7.907   5.296  12.790  0.00  0.00    +0.000 S 
ATOM      4  C   UNL     1       7.119   4.737  14.218  0.00  0.00    +0.000 A 
ATOM      5  N   UNL     1       7.355   5.306  15.427  0.00  0.00    +0.000 N 
ATOM      6  N   UNL     1       6.251   3.783  13.953  0.00  0.00    +0.000 NA
ATOM      7  H   UNL     1       6.964   6.243  15.507  0.00  0.00    +0.000 HD
ENDROOT
BRANCH   1   9
ATOM      8  C   UNL     1       4.240   3.284  11.133  0.00  0.00    +0.000 C 
ATOM      9  C   UNL     1       5.299   2.575  11.975  0.00  0.00    +0.000 C 
ATOM     10  C   UNL     1       6.044   1.526  11.147  0.00  0.00    +0.000 C 
ENDBRANCH   1   9
BRANCH   5  11
ATOM     11  C   UNL     1       7.157   4.530  16.645  0.00  0.00    +0.000 C 
BRANCH  11  12
ATOM     12  C   UNL     1       6.186   5.218  17.595  0.00  0.00    +0.000 C 
ATOM     13  C   UNL     1       6.679   5.430  19.036  0.00  0.00    +0.000 C 
ATOM     14  C   UNL     1       6.600   6.600  18.122  0.00  0.00    +0.000 C 
BRANCH  12  15
ATOM     15  N   UNL     1       4.759   4.873  17.463  0.00  0.00    +0.000 N 
ATOM     16  C   UNL     1       4.258   3.600  17.365  0.00  0.00    +0.000 A 
ATOM     17  C   UNL     1       2.916   3.694  17.658  0.00  0.00    +0.000 A 
ATOM     18  C   UNL     1       2.680   5.069  17.807  0.00  0.00    +0.000 A 
ATOM     19  N   UNL     1       3.791   5.794  17.668  0.00  0.00    +0.000 NA
ENDBRANCH  12  15
ENDBRANCH  11  12
ENDBRANCH   5  11
TORSDOF 4
ENDMDL
MODEL 4
REMARK VINA RESULT:      -6.8      3.416      6.249
REMARK  Name = 
REMARK  6 active torsions:
REMARK  status: ('A' for Active; 'I' for Inactive)
REMARK    1  A    between atoms: C_1  and  C_2
REMARK    2  A    between atoms: C_2  and  C_3
REMARK    3  A    between atoms: C_2  and  C_4
REMARK    4  A    between atoms: N_8  and  C_9
REMARK    5  A    between atoms: C_9  and  C_10
REMARK    6  A    between atoms: C_10  and  N_11
REMARK                            x       y       z     vdW  Elec       q    Type
REMARK                         _______ _______ _______ _____ _____    ______ ____
ROOT
ATOM      1  C   UNL     1       2.272   4.229  19.529  0.00  0.00    +0.000 A 
ATOM      2  N   UNL     1       1.832   5.262  20.252  0.00  0.00    +0.000 NA
ATOM      3  S   UNL     1       2.597   6.612  19.650  0.00  0.00    +0.000 S 
ATOM      4  C   UNL     1       3.450   5.730  18.439  0.00  0.00    +0.000 A 
ATOM      5  N   UNL     1       4.340   6.337  17.613  0.00  0.00    +0.000 N 
ATOM      6  N   UNL     1       3.176   4.443  18.490  0.00  0.00    +0.000 NA
ATOM      7  H   UNL     1       5.193   6.622  18.091  0.00  0.00    +0.000 HD
ENDROOT
BRANCH   1   9
ATOM      8  C   UNL     1       1.401   2.741  21.342  0.00  0.00    +0.000 C 
ATOM      9  C   UNL     1       1.855   2.836  19.887  0.00  0.00    +0.000 C 
ATOM     10  C   UNL     1       0.759   2.345  18.939  0.00  0.00    +0.000 C 
ENDBRANCH   1   9
BRANCH   5  11
ATOM     11  C   UNL     1       4.617   5.767  16.301  0.00  0.00    +0.000 C 
BRANCH  11  12
ATOM     12  C   UNL     1       6.035   5.217  16.217  0.00  0.00    +0.000 C 
ATOM     13  C   UNL     1       6.179   3.781  15.689  0.00  0.00    +0.000 C 
ATOM     14  C   UNL     1       6.575   4.914  14.812  0.00  0.00    +0.000 C 
BRANCH  12  15
ATOM     15  N   UNL     1       6.962   5.585  17.302  0.00  0.00    +0.000 N 
ATOM     16  C   UNL     1       7.638   6.774  17.397  0.00  0.00    +0.000 A 
ATOM     17  C   UNL     1       8.056   6.874  18.705  0.00  0.00    +0.000 A 
ATOM     18  C   UNL     1       7.686   5.654  19.290  0.00  0.00    +0.000 A 
ATOM     19  N   UNL     1       7.040   4.856  18.438  0.00  0.00    +0.000 NA
ENDBRANCH  12  15
ENDBRANCH  11  12
ENDBRANCH   5  11
TORSDOF 4
ENDMDL
MODEL 5
REMARK VINA RESULT:      -6.6      2.715      4.311
REMARK  Name = 
REMARK  6 active torsions:
REMARK  status: ('A' for Active; 'I' for Inactive)
REMARK    1  A    between atoms: C_1  and  C_2
REMARK    2  A    between atoms: C_2  and  C_3
REMARK    3  A    between atoms: C_2  and  C_4
REMARK    4  A    between atoms: N_8  and  C_9
REMARK    5  A    between atoms: C_9  and  C_10
REMARK    6  A    between atoms: C_10  and  N_11
REMARK                            x       y       z     vdW  Elec       q    Type
REMARK                         _______ _______ _______ _____ _____    ______ ____
ROOT
ATOM      1  C   UNL     1       6.650   4.365  16.080  0.00  0.00    +0.000 A 
ATOM      2  N   UNL     1       7.694   5.044  16.563  0.00  0.00    +0.000 NA
ATOM      3  S   UNL     1       7.411   5.240  18.191  0.00  0.00    +0.000 S 
ATOM      4  C   UNL     1       5.918   4.379  18.152  0.00  0.00    +0.000 A 
ATOM      5  N   UNL     1       5.143   4.251  19.260  0.00  0.00    +0.000 N 
ATOM      6  N   UNL     1       5.629   3.960  16.938  0.00  0.00    +0.000 NA
ATOM      7  H   UNL     1       4.701   5.125  19.537  0.00  0.00    +0.000 HD
ENDROOT
BRANCH   1   9
ATOM      8  C   UNL     1       5.094   4.206  14.127  0.00  0.00    +0.000 C 
ATOM      9  C   UNL     1       6.540   4.112  14.609  0.00  0.00    +0.000 C 
ATOM     10  C   UNL     1       7.439   5.076  13.831  0.00  0.00    +0.000 C 
ENDBRANCH   1   9
BRANCH   5  11
ATOM     11  C   UNL     1       4.234   3.118  19.381  0.00  0.00    +0.000 C 
BRANCH  11  12
ATOM     12  C   UNL     1       2.810   3.502  19.001  0.00  0.00    +0.000 C 
ATOM     13  C   UNL     1       2.231   2.820  17.751  0.00  0.00    +0.000 C 
ATOM     14  C   UNL     1       1.750   2.394  19.091  0.00  0.00    +0.000 C 
BRANCH  12  15
ATOM     15  N   UNL     1       2.423   4.912  19.185  0.00  0.00    +0.000 N 
ATOM     16  C   UNL     1       1.969   5.462  20.357  0.00  0.00    +0.000 A 
ATOM     17  C   UNL     1       2.106   6.824  20.218  0.00  0.00    +0.000 A 
ATOM     18  C   UNL     1       2.540   7.005  18.897  0.00  0.00    +0.000 A 
ATOM     19  N   UNL     1       2.715   5.849  18.256  0.00  0.00    +0.000 NA
ENDBRANCH  12  15
ENDBRANCH  11  12
ENDBRANCH   5  11
TORSDOF 4
ENDMDL
MODEL 6
REMARK VINA RESULT:      -6.6      2.278      4.140
REMARK  Name = 
REMARK  6 active torsions:
REMARK  status: ('A' for Active; 'I' for Inactive)
REMARK    1  A    between atoms: C_1  and  C_2
REMARK    2  A    between atoms: C_2  and  C_3
REMARK    3  A    between atoms: C_2  and  C_4
REMARK    4  A    between atoms: N_8  and  C_9
REMARK    5  A    between atoms: C_9  and  C_10
REMARK    6  A    between atoms: C_10  and  N_11
REMARK                            x       y       z     vdW  Elec       q    Type
REMARK                         _______ _______ _______ _____ _____    ______ ____
ROOT
ATOM      1  C   UNL     1       6.528   4.907  15.337  0.00  0.00    +0.000 A 
ATOM      2  N   UNL     1       7.567   4.460  16.047  0.00  0.00    +0.000 NA
ATOM      3  S   UNL     1       7.171   4.686  17.647  0.00  0.00    +0.000 S 
ATOM      4  C   UNL     1       5.619   5.345  17.288  0.00  0.00    +0.000 A 
ATOM      5  N   UNL     1       4.797   5.800  18.269  0.00  0.00    +0.000 N 
ATOM      6  N   UNL     1       5.403   5.406  15.991  0.00  0.00    +0.000 NA
ATOM      7  H   UNL     1       5.129   6.661  18.697  0.00  0.00    +0.000 HD
ENDROOT
BRANCH   1   9
ATOM      8  C   UNL     1       8.009   5.312  13.361  0.00  0.00    +0.000 C 
ATOM      9  C   UNL     1       6.607   4.946  13.842  0.00  0.00    +0.000 C 
ATOM     10  C   UNL     1       6.157   3.609  13.247  0.00  0.00    +0.000 C 
ENDBRANCH   1   9
BRANCH   5  11
ATOM     11  C   UNL     1       3.355   5.821  18.054  0.00  0.00    +0.000 C 
BRANCH  11  12
ATOM     12  C   UNL     1       2.728   4.461  18.333  0.00  0.00    +0.000 C 
ATOM     13  C   UNL     1       1.401   4.163  17.616  0.00  0.00    +0.000 C 
ATOM     14  C   UNL     1       2.640   3.486  17.150  0.00  0.00    +0.000 C 
BRANCH  12  15
ATOM     15  N   UNL     1       2.830   3.946  19.710  0.00  0.00    +0.000 N 
ATOM     16  C   UNL     1       1.936   4.200  20.718  0.00  0.00    +0.000 A 
ATOM     17  C   UNL     1       2.165   3.244  21.682  0.00  0.00    +0.000 A 
ATOM     18  C   UNL     1       3.282   2.534  21.220  0.00  0.00    +0.000 A 
ATOM     19  N   UNL     1       3.706   2.968  20.032  0.00  0.00    +0.000 NA
ENDBRANCH  12  15
ENDBRANCH  11  12
ENDBRANCH   5  11
TORSDOF 4
ENDMDL
MODEL 7
REMARK VINA RESULT:      -6.6      3.512      5.552
REMARK  Name = 
REMARK  6 active torsions:
REMARK  status: ('A' for Active; 'I' for Inactive)
REMARK    1  A    between atoms: C_1  and  C_2
REMARK    2  A    between atoms: C_2  and  C_3
REMARK    3  A    between atoms: C_2  and  C_4
REMARK    4  A    between atoms: N_8  and  C_9
REMARK    5  A    between atoms: C_9  and  C_10
REMARK    6  A    between atoms: C_10  and  N_11
REMARK                            x       y       z     vdW  Elec       q    Type
REMARK                         _______ _______ _______ _____ _____    ______ ____
ROOT
ATOM      1  C   UNL     1       6.557   5.241  17.456  0.00  0.00    +0.000 A 
ATOM      2  N   UNL     1       6.276   5.257  16.151  0.00  0.00    +0.000 NA
ATOM      3  S   UNL     1       5.038   4.166  15.927  0.00  0.00    +0.000 S 
ATOM      4  C   UNL     1       4.940   3.761  17.600  0.00  0.00    +0.000 A 
ATOM      5  N   UNL     1       4.082   2.809  18.051  0.00  0.00    +0.000 N 
ATOM      6  N   UNL     1       5.826   4.423  18.315  0.00  0.00    +0.000 NA
ATOM      7  H   UNL     1       4.356   1.868  17.777  0.00  0.00    +0.000 HD
ENDROOT
BRANCH   1   9
ATOM      8  C   UNL     1       7.577   7.519  17.623  0.00  0.00    +0.000 C 
ATOM      9  C   UNL     1       7.709   6.041  17.981  0.00  0.00    +0.000 C 
ATOM     10  C   UNL     1       7.846   5.854  19.493  0.00  0.00    +0.000 C 
ENDBRANCH   1   9
BRANCH   5  11
ATOM     11  C   UNL     1       3.603   2.859  19.426  0.00  0.00    +0.000 C 
BRANCH  11  12
ATOM     12  C   UNL     1       2.212   3.473  19.512  0.00  0.00    +0.000 C 
ATOM     13  C   UNL     1       1.059   2.628  18.944  0.00  0.00    +0.000 C 
ATOM     14  C   UNL     1       1.198   2.760  20.419  0.00  0.00    +0.000 C 
BRANCH  12  15
ATOM     15  N   UNL     1       2.103   4.924  19.279  0.00  0.00    +0.000 N 
ATOM     16  C   UNL     1       2.082   5.883  20.259  0.00  0.00    +0.000 A 
ATOM     17  C   UNL     1       2.372   7.075  19.634  0.00  0.00    +0.000 A 
ATOM     18  C   UNL     1       2.440   6.753  18.270  0.00  0.00    +0.000 A 
ATOM     19  N   UNL     1       2.256   5.452  18.044  0.00  0.00    +0.000 NA
ENDBRANCH  12  15
ENDBRANCH  11  12
ENDBRANCH   5  11
TORSDOF 4
ENDMDL
MODEL 8
REMARK VINA RESULT:      -6.5      2.702      6.542
REMARK  Name = 
REMARK  6 active torsions:
REMARK  status: ('A' for Active; 'I' for Inactive)
REMARK    1  A    between atoms: C_1  and  C_2
REMARK    2  A    between atoms: C_2  and  C_3
REMARK    3  A    between atoms: C_2  and  C_4
REMARK    4  A    between atoms: N_8  and  C_9
REMARK    5  A    between atoms: C_9  and  C_10
REMARK    6  A    between atoms: C_10  and  N_11
REMARK                            x       y       z     vdW  Elec       q    Type
REMARK                         _______ _______ _______ _____ _____    ______ ____
ROOT
ATOM      1  C   UNL     1       2.848   3.210  19.932  0.00  0.00    +0.000 A 
ATOM      2  N   UNL     1       2.442   2.032  19.451  0.00  0.00    +0.000 NA
ATOM      3  S   UNL     1       3.385   1.726  18.113  0.00  0.00    +0.000 S 
ATOM      4  C   UNL     1       4.296   3.180  18.279  0.00  0.00    +0.000 A 
ATOM      5  N   UNL     1       5.246   3.530  17.375  0.00  0.00    +0.000 N 
ATOM      6  N   UNL     1       3.894   3.891  19.313  0.00  0.00    +0.000 NA
ATOM      7  H   UNL     1       4.856   3.806  16.477  0.00  0.00    +0.000 HD
ENDROOT
BRANCH   1   9
ATOM      8  C   UNL     1       1.223   4.980  20.631  0.00  0.00    +0.000 C 
ATOM      9  C   UNL     1       2.124   3.834  21.085  0.00  0.00    +0.000 C 
ATOM     10  C   UNL     1       1.322   2.777  21.848  0.00  0.00    +0.000 C 
ENDBRANCH   1   9
BRANCH   5  11
ATOM     11  C   UNL     1       6.347   4.395  17.780  0.00  0.00    +0.000 C 
BRANCH  11  12
ATOM     12  C   UNL     1       6.668   5.429  16.709  0.00  0.00    +0.000 C 
ATOM     13  C   UNL     1       5.888   6.752  16.785  0.00  0.00    +0.000 C 
ATOM     14  C   UNL     1       7.320   6.736  17.185  0.00  0.00    +0.000 C 
BRANCH  12  15
ATOM     15  N   UNL     1       6.925   4.928  15.347  0.00  0.00    +0.000 N 
ATOM     16  C   UNL     1       6.154   4.008  14.683  0.00  0.00    +0.000 A 
ATOM     17  C   UNL     1       6.488   4.118  13.353  0.00  0.00    +0.000 A 
ATOM     18  C   UNL     1       7.543   5.042  13.326  0.00  0.00    +0.000 A 
ATOM     19  N   UNL     1       7.828   5.523  14.537  0.00  0.00    +0.000 NA
ENDBRANCH  12  15
ENDBRANCH  11  12
ENDBRANCH   5  11
TORSDOF 4
ENDMDL
MODEL 9
REMARK VINA RESULT:      -6.5      4.747      8.541
REMARK  Name = 
REMARK  6 active torsions:
REMARK  status: ('A' for Active; 'I' for Inactive)
REMARK    1  A    between atoms: C_1  and  C_2
REMARK    2  A    between atoms: C_2  and  C_3
REMARK    3  A    between atoms: C_2  and  C_4
REMARK    4  A    between atoms: N_8  and  C_9
REMARK    5  A    between atoms: C_9  and  C_10
REMARK    6  A    between atoms: C_10  and  N_11
REMARK                            x       y       z     vdW  Elec       q    Type
REMARK                         _______ _______ _______ _____ _____    ______ ____
ROOT
ATOM      1  C   UNL     1       0.970   9.360  20.435  0.00  0.00    +0.000 A 
ATOM      2  N   UNL     1       1.196   9.718  19.168  0.00  0.00    +0.000 NA
ATOM      3  S   UNL     1       2.032   8.459  18.470  0.00  0.00    +0.000 S 
ATOM      4  C   UNL     1       2.016   7.502  19.904  0.00  0.00    +0.000 A 
ATOM      5  N   UNL     1       2.643   6.299  19.962  0.00  0.00    +0.000 N 
ATOM      6  N   UNL     1       1.403   8.118  20.894  0.00  0.00    +0.000 NA
ATOM      7  H   UNL     1       3.658   6.381  19.957  0.00  0.00    +0.000 HD
ENDROOT
BRANCH   1   9
ATOM      8  C   UNL     1      -0.780  11.130  20.695  0.00  0.00    +0.000 C 
ATOM      9  C   UNL     1       0.324  10.326  21.379  0.00  0.00    +0.000 C 
ATOM     10  C   UNL     1      -0.216   9.592  22.609  0.00  0.00    +0.000 C 
ENDBRANCH   1   9
BRANCH   5  11
ATOM     11  C   UNL     1       2.184   5.287  20.905  0.00  0.00    +0.000 C 
BRANCH  11  12
ATOM     12  C   UNL     1       2.336   3.883  20.335  0.00  0.00    +0.000 C 
ATOM     13  C   UNL     1       2.321   2.730  21.352  0.00  0.00    +0.000 C 
ATOM     14  C   UNL     1       1.131   2.943  20.486  0.00  0.00    +0.000 C 
BRANCH  12  15
ATOM     15  N   UNL     1       3.268   3.714  19.206  0.00  0.00    +0.000 N 
ATOM     16  C   UNL     1       2.908   3.386  17.924  0.00  0.00    +0.000 A 
ATOM     17  C   UNL     1       3.982   3.716  17.128  0.00  0.00    +0.000 A 
ATOM     18  C   UNL     1       4.977   4.127  18.027  0.00  0.00    +0.000 A 
ATOM     19  N   UNL     1       4.558   4.108  19.293  0.00  0.00    +0.000 NA
ENDBRANCH  12  15
ENDBRANCH  11  12
ENDBRANCH   5  11
TORSDOF 4
ENDMDL
