MODEL 1
REMARK VINA RESULT:      -6.0      0.000      0.000
REMARK  Name = 
REMARK  7 active torsions:
REMARK  status: ('A' for Active; 'I' for Inactive)
REMARK    1  A    between atoms: C_1  and  C_2
REMARK    2  A    between atoms: C_2  and  N_3
REMARK    3  A    between atoms: N_7  and  C_8
REMARK    4  A    between atoms: C_8  and  C_9
REMARK    5  A    between atoms: C_8  and  C_10
REMARK    6  A    between atoms: C_12  and  O_13
REMARK    7  A    between atoms: O_13  and  C_14
REMARK                            x       y       z     vdW  Elec       q    Type
REMARK                         _______ _______ _______ _____ _____    ______ ____
ROOT
ATOM      1  N   UNL     1       5.635   3.855  14.654  0.00  0.00    +0.000 N 
ATOM      2  C   UNL     1       5.735   4.023  16.031  0.00  0.00    +0.000 A 
ATOM      3  N   UNL     1       4.632   3.779  16.729  0.00  0.00    +0.000 NA
ATOM      4  C   UNL     1       4.696   4.015  18.031  0.00  0.00    +0.000 A 
ATOM      5  N   UNL     1       3.559   3.969  18.818  0.00  0.00    +0.000 N 
ATOM      6  N   UNL     1       5.802   4.341  18.674  0.00  0.00    +0.000 NA
ATOM      7  C   UNL     1       6.866   4.489  17.895  0.00  0.00    +0.000 A 
ATOM      8  N   UNL     1       6.887   4.380  16.577  0.00  0.00    +0.000 NA
ATOM      9  H   UNL     1       5.431   2.878  14.489  0.00  0.00    +0.000 HD
ATOM     10  H   UNL     1       3.831   3.955  19.793  0.00  0.00    +0.000 HD
ENDROOT
BRANCH   5  11
ATOM     11  C   UNL     1       2.454   3.113  18.425  0.00  0.00    +0.000 C 
ATOM     12  C   UNL     1       1.977   2.291  19.621  0.00  0.00    +0.000 C 
ATOM     13  C   UNL     1       1.324   4.009  17.915  0.00  0.00    +0.000 C 
ENDBRANCH   5  11
BRANCH   1  15
ATOM     14  C   UNL     1       6.694   3.806  12.469  0.00  0.00    +0.000 C 
ATOM     15  C   UNL     1       6.719   4.411  13.864  0.00  0.00    +0.000 C 
ENDBRANCH   1  15
BRANCH   7  16
ATOM     16  O   UNL     1       8.094   4.760  18.464  0.00  0.00    +0.000 OA
ATOM     17  C   UNL     1       8.034   5.766  19.466  0.00  0.00    +0.000 C 
ENDBRANCH   7  16
TORSDOF 3
ENDMDL
MODEL 2
REMARK VINA RESULT:      -5.9      1.655      1.655
REMARK  Name = 
REMARK  7 active torsions:
REMARK  status: ('A' for Active; 'I' for Inactive)
REMARK    1  A    between atoms: C_1  and  C_2
REMARK    2  A    between atoms: C_2  and  N_3
REMARK    3  A    between atoms: N_7  and  C_8
REMARK    4  A    between atoms: C_8  and  C_9
REMARK    5  A    between atoms: C_8  and  C_10
REMARK    6  A    between atoms: C_12  and  O_13
REMARK    7  A    between atoms: O_13  and  C_14
REMARK                            x       y       z     vdW  Elec       q    Type
REMARK                         _______ _______ _______ _____ _____    ______ ____
ROOT
ATOM      1  N   UNL     1       5.967   3.552  14.555  0.00  0.00    +0.000 N 
ATOM      2  C   UNL     1       5.669   4.469  15.558  0.00  0.00    +0.000 A 
ATOM      3  N   UNL     1       4.732   4.101  16.423  0.00  0.00    +0.000 NA
ATOM      4  C   UNL     1       4.386   5.001  17.332  0.00  0.00    +0.000 A 
ATOM      5  N   UNL     1       3.300   4.791  18.162  0.00  0.00    +0.000 N 
ATOM      6  N   UNL     1       4.999   6.159  17.503  0.00  0.00    +0.000 NA
ATOM      7  C   UNL     1       5.970   6.399  16.632  0.00  0.00    +0.000 A 
ATOM      8  N   UNL     1       6.324   5.617  15.626  0.00  0.00    +0.000 NA
ATOM      9  H   UNL     1       6.337   2.727  15.009  0.00  0.00    +0.000 HD
ATOM     10  H   UNL     1       3.324   5.464  18.918  0.00  0.00    +0.000 HD
ENDROOT
BRANCH   5  11
ATOM     11  C   UNL     1       2.908   3.433  18.495  0.00  0.00    +0.000 C 
ATOM     12  C   UNL     1       3.578   3.000  19.797  0.00  0.00    +0.000 C 
ATOM     13  C   UNL     1       1.387   3.406  18.648  0.00  0.00    +0.000 C 
ENDBRANCH   5  11
BRANCH   1  15
ATOM     14  C   UNL     1       6.287   3.393  12.153  0.00  0.00    +0.000 C 
ATOM     15  C   UNL     1       6.747   4.058  13.441  0.00  0.00    +0.000 C 
ENDBRANCH   1  15
BRANCH   7  16
ATOM     16  O   UNL     1       6.728   7.546  16.758  0.00  0.00    +0.000 OA
ATOM     17  C   UNL     1       7.689   7.468  17.801  0.00  0.00    +0.000 C 
ENDBRANCH   7  16
TORSDOF 3
ENDMDL
MODEL 3
REMARK VINA RESULT:      -5.9      1.729      5.054
REMARK  Name = 
REMARK  7 active torsions:
REMARK  status: ('A' for Active; 'I' for Inactive)
REMARK    1  A    between atoms: C_1  and  C_2
REMARK    2  A    between atoms: C_2  and  N_3
REMARK    3  A    between atoms: N_7  and  C_8
REMARK    4  A    between atoms: C_8  and  C_9
REMARK    5  A    between atoms: C_8  and  C_10
REMARK    6  A    between atoms: C_12  and  O_13
REMARK    7  A    between atoms: O_13  and  C_14
REMARK                            x       y       z     vdW  Elec       q    Type
REMARK                         _______ _______ _______ _____ _____    ______ ____
ROOT
ATOM      1  N   UNL     1       4.569   3.285  17.261  0.00  0.00    +0.000 N 
ATOM      2  C   UNL     1       5.430   3.939  16.386  0.00  0.00    +0.000 A 
ATOM      3  N   UNL     1       5.453   3.479  15.141  0.00  0.00    +0.000 NA
ATOM      4  C   UNL     1       6.330   4.043  14.322  0.00  0.00    +0.000 A 
ATOM      5  N   UNL     1       6.563   3.522  13.063  0.00  0.00    +0.000 N 
ATOM      6  N   UNL     1       7.065   5.096  14.631  0.00  0.00    +0.000 NA
ATOM      7  C   UNL     1       6.914   5.524  15.878  0.00  0.00    +0.000 A 
ATOM      8  N   UNL     1       6.147   4.971  16.803  0.00  0.00    +0.000 NA
ATOM      9  H   UNL     1       3.629   3.426  16.912  0.00  0.00    +0.000 HD
ATOM     10  H   UNL     1       7.084   4.196  12.516  0.00  0.00    +0.000 HD
ENDROOT
BRANCH   5  11
ATOM     11  C   UNL     1       5.506   2.792  12.386  0.00  0.00    +0.000 C 
ATOM     12  C   UNL     1       4.594   3.763  11.640  0.00  0.00    +0.000 C 
ATOM     13  C   UNL     1       6.160   1.820  11.404  0.00  0.00    +0.000 C 
ENDBRANCH   5  11
BRANCH   1  15
ATOM     14  C   UNL     1       3.414   3.825  19.328  0.00  0.00    +0.000 C 
ATOM     15  C   UNL     1       4.761   3.566  18.672  0.00  0.00    +0.000 C 
ENDBRANCH   1  15
BRANCH   7  16
ATOM     16  O   UNL     1       7.579   6.660  16.293  0.00  0.00    +0.000 OA
ATOM     17  C   UNL     1       7.433   6.915  17.683  0.00  0.00    +0.000 C 
ENDBRANCH   7  16
TORSDOF 3
ENDMDL
MODEL 4
REMARK VINA RESULT:      -5.9      1.924      3.671
REMARK  Name = 
REMARK  7 active torsions:
REMARK  status: ('A' for Active; 'I' for Inactive)
REMARK    1  A    between atoms: C_1  and  C_2
REMARK    2  A    between atoms: C_2  and  N_3
REMARK    3  A    between atoms: N_7  and  C_8
REMARK    4  A    between atoms: C_8  and  C_9
REMARK    5  A    between atoms: C_8  and  C_10
REMARK    6  A    between atoms: C_12  and  O_13
REMARK    7  A    between atoms: O_13  and  C_14
REMARK                            x       y       z     vdW  Elec       q    Type
REMARK                         _______ _______ _______ _____ _____    ______ ____
ROOT
ATOM      1  N   UNL     1       6.682   5.754  19.365  0.00  0.00    +0.000 N 
ATOM      2  C   UNL     1       5.779   4.984  18.640  0.00  0.00    +0.000 A 
ATOM      3  N   UNL     1       4.730   4.528  19.315  0.00  0.00    +0.000 NA
ATOM      4  C   UNL     1       3.909   3.726  18.653  0.00  0.00    +0.000 A 
ATOM      5  N   UNL     1       2.892   3.054  19.306  0.00  0.00    +0.000 N 
ATOM      6  N   UNL     1       3.999   3.473  17.359  0.00  0.00    +0.000 NA
ATOM      7  C   UNL     1       5.041   4.037  16.761  0.00  0.00    +0.000 A 
ATOM      8  N   UNL     1       5.975   4.765  17.349  0.00  0.00    +0.000 NA
ATOM      9  H   UNL     1       6.186   6.582  19.671  0.00  0.00    +0.000 HD
ATOM     10  H   UNL     1       2.249   2.676  18.621  0.00  0.00    +0.000 HD
ENDROOT
BRANCH   5  11
ATOM     11  C   UNL     1       2.318   3.625  20.511  0.00  0.00    +0.000 C 
ATOM     12  C   UNL     1       0.870   4.037  20.256  0.00  0.00    +0.000 C 
ATOM     13  C   UNL     1       2.380   2.565  21.610  0.00  0.00    +0.000 C 
ENDBRANCH   5  11
BRANCH   1  15
ATOM     14  C   UNL     1       8.029   7.425  18.230  0.00  0.00    +0.000 C 
ATOM     15  C   UNL     1       7.967   5.992  18.733  0.00  0.00    +0.000 C 
ENDBRANCH   1  15
BRANCH   7  16
ATOM     16  O   UNL     1       5.198   3.900  15.397  0.00  0.00    +0.000 OA
ATOM     17  C   UNL     1       6.482   4.304  14.941  0.00  0.00    +0.000 C 
ENDBRANCH   7  16
TORSDOF 3
ENDMDL
MODEL 5
REMARK VINA RESULT:      -5.8      2.180      3.944
REMARK  Name = 
REMARK  7 active torsions:
REMARK  status: ('A' for Active; 'I' for Inactive)
REMARK    1  A    between atoms: C_1  and  C_2
REMARK    2  A    between atoms: C_2  and  N_3
REMARK    3  A    between atoms: N_7  and  C_8
REMARK    4  A    between atoms: C_8  and  C_9
REMARK    5  A    between atoms: C_8  and  C_10
REMARK    6  A    between atoms: C_12  and  O_13
REMARK    7  A    between atoms: O_13  and  C_14
REMARK                            x       y       z     vdW  Elec       q    Type
REMARK                         _______ _______ _______ _____ _____    ______ ____
ROOT
ATOM      1  N   UNL     1       6.859   7.123  17.731  0.00  0.00    +0.000 N 
ATOM      2  C   UNL     1       6.517   6.016  16.961  0.00  0.00    +0.000 A 
ATOM      3  N   UNL     1       5.632   5.185  17.498  0.00  0.00    +0.000 NA
ATOM      4  C   UNL     1       5.361   4.088  16.807  0.00  0.00    +0.000 A 
ATOM      5  N   UNL     1       4.597   3.073  17.355  0.00  0.00    +0.000 N 
ATOM      6  N   UNL     1       5.807   3.848  15.587  0.00  0.00    +0.000 NA
ATOM      7  C   UNL     1       6.627   4.777  15.111  0.00  0.00    +0.000 A 
ATOM      8  N   UNL     1       7.043   5.853  15.757  0.00  0.00    +0.000 NA
ATOM      9  H   UNL     1       6.019   7.674  17.848  0.00  0.00    +0.000 HD
ATOM     10  H   UNL     1       4.318   2.434  16.621  0.00  0.00    +0.000 HD
ENDROOT
BRANCH   5  11
ATOM     11  C   UNL     1       3.609   3.393  18.369  0.00  0.00    +0.000 C 
ATOM     12  C   UNL     1       2.205   3.323  17.771  0.00  0.00    +0.000 C 
ATOM     13  C   UNL     1       3.752   2.377  19.502  0.00  0.00    +0.000 C 
ENDBRANCH   5  11
BRANCH   1  15
ATOM     14  C   UNL     1       8.219   9.083  18.181  0.00  0.00    +0.000 C 
ATOM     15  C   UNL     1       8.035   7.857  17.301  0.00  0.00    +0.000 C 
ENDBRANCH   1  15
BRANCH   7  16
ATOM     16  O   UNL     1       7.100   4.668  13.819  0.00  0.00    +0.000 OA
ATOM     17  C   UNL     1       6.341   3.770  13.021  0.00  0.00    +0.000 C 
ENDBRANCH   7  16
TORSDOF 3
ENDMDL
MODEL 6
REMARK VINA RESULT:      -5.8      1.485      1.661
REMARK  Name = 
REMARK  7 active torsions:
REMARK  status: ('A' for Active; 'I' for Inactive)
REMARK    1  A    between atoms: C_1  and  C_2
REMARK    2  A    between atoms: C_2  and  N_3
REMARK    3  A    between atoms: N_7  and  C_8
REMARK    4  A    between atoms: C_8  and  C_9
REMARK    5  A    between atoms: C_8  and  C_10
REMARK    6  A    between atoms: C_12  and  O_13
REMARK    7  A    between atoms: O_13  and  C_14
REMARK                            x       y       z     vdW  Elec       q    Type
REMARK                         _______ _______ _______ _____ _____    ______ ____
ROOT
ATOM      1  N   UNL     1       5.363   3.377  16.210  0.00  0.00    +0.000 N 
ATOM      2  C   UNL     1       5.404   4.069  17.416  0.00  0.00    +0.000 A 
ATOM      3  N   UNL     1       4.359   3.905  18.218  0.00  0.00    +0.000 NA
ATOM      4  C   UNL     1       4.353   4.623  19.331  0.00  0.00    +0.000 A 
ATOM      5  N   UNL     1       3.235   4.666  20.143  0.00  0.00    +0.000 N 
ATOM      6  N   UNL     1       5.364   5.369  19.740  0.00  0.00    +0.000 NA
ATOM      7  C   UNL     1       6.391   5.408  18.901  0.00  0.00    +0.000 A 
ATOM      8  N   UNL     1       6.455   4.815  17.721  0.00  0.00    +0.000 NA
ATOM      9  H   UNL     1       5.357   2.391  16.435  0.00  0.00    +0.000 HD
ATOM     10  H   UNL     1       3.487   5.073  21.035  0.00  0.00    +0.000 HD
ENDROOT
BRANCH   5  11
ATOM     11  C   UNL     1       2.325   3.534  20.164  0.00  0.00    +0.000 C 
ATOM     12  C   UNL     1       2.633   2.636  21.361  0.00  0.00    +0.000 C 
ATOM     13  C   UNL     1       0.899   4.078  20.265  0.00  0.00    +0.000 C 
ENDBRANCH   5  11
BRANCH   1  15
ATOM     14  C   UNL     1       5.647   3.894  13.855  0.00  0.00    +0.000 C 
ATOM     15  C   UNL     1       6.331   3.786  15.209  0.00  0.00    +0.000 C 
ENDBRANCH   1  15
BRANCH   7  16
ATOM     16  O   UNL     1       7.532   6.099  19.255  0.00  0.00    +0.000 OA
ATOM     17  C   UNL     1       7.947   7.034  18.269  0.00  0.00    +0.000 C 
ENDBRANCH   7  16
TORSDOF 3
ENDMDL
MODEL 7
REMARK VINA RESULT:      -5.8      2.909      5.971
REMARK  Name = 
REMARK  7 active torsions:
REMARK  status: ('A' for Active; 'I' for Inactive)
REMARK    1  A    between atoms: C_1  and  C_2
REMARK    2  A    between atoms: C_2  and  N_3
REMARK    3  A    between atoms: N_7  and  C_8
REMARK    4  A    between atoms: C_8  and  C_9
REMARK    5  A    between atoms: C_8  and  C_10
REMARK    6  A    between atoms: C_12  and  O_13
REMARK    7  A    between atoms: O_13  and  C_14
REMARK                            x       y       z     vdW  Elec       q    Type
REMARK                         _______ _______ _______ _____ _____    ______ ____
ROOT
ATOM      1  N   UNL     1       2.675   6.923  19.885  0.00  0.00    +0.000 N 
ATOM      2  C   UNL     1       3.155   5.621  19.783  0.00  0.00    +0.000 A 
ATOM      3  N   UNL     1       4.099   5.418  18.872  0.00  0.00    +0.000 NA
ATOM      4  C   UNL     1       4.503   4.166  18.713  0.00  0.00    +0.000 A 
ATOM      5  N   UNL     1       5.344   3.818  17.673  0.00  0.00    +0.000 N 
ATOM      6  N   UNL     1       4.126   3.160  19.481  0.00  0.00    +0.000 NA
ATOM      7  C   UNL     1       3.234   3.483  20.410  0.00  0.00    +0.000 A 
ATOM      8  N   UNL     1       2.690   4.675  20.585  0.00  0.00    +0.000 NA
ATOM      9  H   UNL     1       3.452   7.502  20.178  0.00  0.00    +0.000 HD
ATOM     10  H   UNL     1       5.713   2.890  17.839  0.00  0.00    +0.000 HD
ENDROOT
BRANCH   5  11
ATOM     11  C   UNL     1       6.260   4.808  17.134  0.00  0.00    +0.000 C 
ATOM     12  C   UNL     1       7.654   4.609  17.726  0.00  0.00    +0.000 C 
ATOM     13  C   UNL     1       6.300   4.635  15.615  0.00  0.00    +0.000 C 
ENDBRANCH   5  11
BRANCH   1  15
ATOM     14  C   UNL     1       1.193   8.573  20.873  0.00  0.00    +0.000 C 
ATOM     15  C   UNL     1       1.448   7.092  20.641  0.00  0.00    +0.000 C 
ENDBRANCH   1  15
BRANCH   7  16
ATOM     16  O   UNL     1       2.820   2.528  21.316  0.00  0.00    +0.000 OA
ATOM     17  C   UNL     1       1.438   2.622  21.634  0.00  0.00    +0.000 C 
ENDBRANCH   7  16
TORSDOF 3
ENDMDL
MODEL 8
REMARK VINA RESULT:      -5.7      2.729      4.262
REMARK  Name = 
REMARK  7 active torsions:
REMARK  status: ('A' for Active; 'I' for Inactive)
REMARK    1  A    between atoms: C_1  and  C_2
REMARK    2  A    between atoms: C_2  and  N_3
REMARK    3  A    between atoms: N_7  and  C_8
REMARK    4  A    between atoms: C_8  and  C_9
REMARK    5  A    between atoms: C_8  and  C_10
REMARK    6  A    between atoms: C_12  and  O_13
REMARK    7  A    between atoms: O_13  and  C_14
REMARK                            x       y       z     vdW  Elec       q    Type
REMARK                         _______ _______ _______ _____ _____    ______ ____
ROOT
ATOM      1  N   UNL     1       2.686   7.013  18.118  0.00  0.00    +0.000 N 
ATOM      2  C   UNL     1       3.771   6.209  17.785  0.00  0.00    +0.000 A 
ATOM      3  N   UNL     1       3.872   5.064  18.448  0.00  0.00    +0.000 NA
ATOM      4  C   UNL     1       4.946   4.330  18.195  0.00  0.00    +0.000 A 
ATOM      5  N   UNL     1       5.240   3.215  18.958  0.00  0.00    +0.000 N 
ATOM      6  N   UNL     1       5.826   4.603  17.250  0.00  0.00    +0.000 NA
ATOM      7  C   UNL     1       5.595   5.734  16.595  0.00  0.00    +0.000 A 
ATOM      8  N   UNL     1       4.615   6.588  16.838  0.00  0.00    +0.000 NA
ATOM      9  H   UNL     1       1.850   6.497  17.877  0.00  0.00    +0.000 HD
ATOM     10  H   UNL     1       5.954   2.671  18.489  0.00  0.00    +0.000 HD
ENDROOT
BRANCH   5  11
ATOM     11  C   UNL     1       4.161   2.483  19.598  0.00  0.00    +0.000 C 
ATOM     12  C   UNL     1       3.491   1.551  18.590  0.00  0.00    +0.000 C 
ATOM     13  C   UNL     1       4.759   1.675  20.749  0.00  0.00    +0.000 C 
ENDBRANCH   5  11
BRANCH   1  15
ATOM     14  C   UNL     1       1.497   9.131  18.100  0.00  0.00    +0.000 C 
ATOM     15  C   UNL     1       2.737   8.382  17.637  0.00  0.00    +0.000 C 
ENDBRANCH   1  15
BRANCH   7  16
ATOM     16  O   UNL     1       6.410   6.086  15.537  0.00  0.00    +0.000 OA
ATOM     17  C   UNL     1       6.818   4.973  14.753  0.00  0.00    +0.000 C 
ENDBRANCH   7  16
TORSDOF 3
ENDMDL
MODEL 9
REMARK VINA RESULT:      -5.6      2.500      3.253
REMARK  Name = 
REMARK  7 active torsions:
REMARK  status: ('A' for Active; 'I' for Inactive)
REMARK    1  A    between atoms: C_1  and  C_2
REMARK    2  A    between atoms: C_2  and  N_3
REMARK    3  A    between atoms: N_7  and  C_8
REMARK    4  A    between atoms: C_8  and  C_9
REMARK    5  A    between atoms: C_8  and  C_10
REMARK    6  A    between atoms: C_12  and  O_13
REMARK    7  A    between atoms: O_13  and  C_14
REMARK                            x       y       z     vdW  Elec       q    Type
REMARK                         _______ _______ _______ _____ _____    ______ ____
ROOT
ATOM      1  N   UNL     1       5.785   4.067  17.074  0.00  0.00    +0.000 N 
ATOM      2  C   UNL     1       4.685   4.810  17.488  0.00  0.00    +0.000 A 
ATOM      3  N   UNL     1       3.724   4.133  18.104  0.00  0.00    +0.000 NA
ATOM      4  C   UNL     1       2.638   4.819  18.430  0.00  0.00    +0.000 A 
ATOM      5  N   UNL     1       1.509   4.178  18.907  0.00  0.00    +0.000 N 
ATOM      6  N   UNL     1       2.519   6.128  18.300  0.00  0.00    +0.000 NA
ATOM      7  C   UNL     1       3.565   6.721  17.740  0.00  0.00    +0.000 A 
ATOM      8  N   UNL     1       4.651   6.118  17.286  0.00  0.00    +0.000 NA
ATOM      9  H   UNL     1       6.220   3.692  17.907  0.00  0.00    +0.000 HD
ATOM     10  H   UNL     1       0.879   4.865  19.301  0.00  0.00    +0.000 HD
ENDROOT
BRANCH   5  11
ATOM     11  C   UNL     1       1.651   2.920  19.620  0.00  0.00    +0.000 C 
ATOM     12  C   UNL     1       1.271   3.105  21.087  0.00  0.00    +0.000 C 
ATOM     13  C   UNL     1       0.726   1.898  18.959  0.00  0.00    +0.000 C 
ENDBRANCH   5  11
BRANCH   1  15
ATOM     14  C   UNL     1       6.455   4.169  14.742  0.00  0.00    +0.000 C 
ATOM     15  C   UNL     1       6.682   4.723  16.140  0.00  0.00    +0.000 C 
ENDBRANCH   1  15
BRANCH   7  16
ATOM     16  O   UNL     1       3.583   8.096  17.619  0.00  0.00    +0.000 OA
ATOM     17  C   UNL     1       2.306   8.689  17.813  0.00  0.00    +0.000 C 
ENDBRANCH   7  16
TORSDOF 3
ENDMDL
