MODEL 1
REMARK VINA RESULT:      -8.6      0.000      0.000
REMARK  Name = 
REMARK  6 active torsions:
REMARK  status: ('A' for Active; 'I' for Inactive)
REMARK    1  A    between atoms: C_1  and  C_2
REMARK    2  A    between atoms: C_7  and  O_8
REMARK    3  A    between atoms: O_8  and  C_9
REMARK    4  A    between atoms: N_12  and  C_13
REMARK    5  A    between atoms: C_13  and  C_14
REMARK    6  A    between atoms: C_14  and  C_15
REMARK                            x       y       z     vdW  Elec       q    Type
REMARK                         _______ _______ _______ _____ _____    ______ ____
ROOT
ATOM      1  C   UNL     1       6.165   4.801  17.721  0.00  0.00    +0.000 C 
ATOM      2  C   UNL     1       7.536   5.093  18.353  0.00  0.00    +0.000 C 
ATOM      3  C   UNL     1       7.946   6.572  18.450  0.00  0.00    +0.000 C 
ATOM      4  N   UNL     1       7.657   7.440  17.302  0.00  0.00    +0.000 NA
ATOM      5  C   UNL     1       6.421   7.099  16.585  0.00  0.00    +0.000 C 
ATOM      6  C   UNL     1       6.058   5.612  16.436  0.00  0.00    +0.000 C 
ENDROOT
BRANCH   1   7
ATOM      7  O   UNL     1       5.074   5.057  18.635  0.00  0.00    +0.000 OA
BRANCH   7  14
ATOM      8  C   UNL     1       2.616   6.378  18.177  0.00  0.00    +0.000 C 
ATOM      9  C   UNL     1       2.702   4.896  18.386  0.00  0.00    +0.000 A 
ATOM     10  C   UNL     1       1.506   4.141  18.355  0.00  0.00    +0.000 A 
ATOM     11  C   UNL     1       1.531   2.759  18.403  0.00  0.00    +0.000 A 
ATOM     12  C   UNL     1       2.756   2.113  18.515  0.00  0.00    +0.000 A 
ATOM     13  C   UNL     1       3.950   2.851  18.629  0.00  0.00    +0.000 A 
ATOM     14  C   UNL     1       3.948   4.250  18.579  0.00  0.00    +0.000 A 
ENDBRANCH   7  14
ENDBRANCH   1   7
BRANCH   4  15
ATOM     15  C   UNL     1       7.580   8.883  17.718  0.00  0.00    +0.000 C 
BRANCH  15  16
ATOM     16  C   UNL     1       8.722   9.443  18.602  0.00  0.00    +0.000 C 
BRANCH  16  17
ATOM     17  C   UNL     1       9.046  10.899  18.308  0.00  0.00    +0.000 A 
ATOM     18  C   UNL     1       8.285  11.764  17.540  0.00  0.00    +0.000 A 
ATOM     19  N   UNL     1       8.926  12.976  17.482  0.00  0.00    +0.000 N 
ATOM     20  C   UNL     1      10.098  12.934  18.182  0.00  0.00    +0.000 A 
ATOM     21  C   UNL     1      11.066  13.930  18.378  0.00  0.00    +0.000 A 
ATOM     22  C   UNL     1      12.187  13.595  19.143  0.00  0.00    +0.000 A 
ATOM     23  C   UNL     1      12.330  12.325  19.689  0.00  0.00    +0.000 A 
ATOM     24  C   UNL     1      11.352  11.342  19.481  0.00  0.00    +0.000 A 
ATOM     25  C   UNL     1      10.207  11.645  18.711  0.00  0.00    +0.000 A 
ATOM     26  H   UNL     1       8.586  13.791  16.967  0.00  0.00    +0.000 HD
ENDBRANCH  16  17
ENDBRANCH  15  16
ENDBRANCH   4  15
TORSDOF 5
ENDMDL
MODEL 2
REMARK VINA RESULT:      -8.5      1.523      1.755
REMARK  Name = 
REMARK  6 active torsions:
REMARK  status: ('A' for Active; 'I' for Inactive)
REMARK    1  A    between atoms: C_1  and  C_2
REMARK    2  A    between atoms: C_7  and  O_8
REMARK    3  A    between atoms: O_8  and  C_9
REMARK    4  A    between atoms: N_12  and  C_13
REMARK    5  A    between atoms: C_13  and  C_14
REMARK    6  A    between atoms: C_14  and  C_15
REMARK                            x       y       z     vdW  Elec       q    Type
REMARK                         _______ _______ _______ _____ _____    ______ ____
ROOT
ATOM      1  C   UNL     1       5.156   5.394  17.799  0.00  0.00    +0.000 C 
ATOM      2  C   UNL     1       6.527   4.748  18.054  0.00  0.00    +0.000 C 
ATOM      3  C   UNL     1       7.661   5.693  18.487  0.00  0.00    +0.000 C 
ATOM      4  N   UNL     1       7.765   6.993  17.812  0.00  0.00    +0.000 NA
ATOM      5  C   UNL     1       6.472   7.576  17.425  0.00  0.00    +0.000 C 
ATOM      6  C   UNL     1       5.370   6.626  16.929  0.00  0.00    +0.000 C 
ENDROOT
BRANCH   1   7
ATOM      7  O   UNL     1       4.454   5.694  19.028  0.00  0.00    +0.000 OA
BRANCH   7  14
ATOM      8  C   UNL     1       2.147   6.910  20.122  0.00  0.00    +0.000 C 
ATOM      9  C   UNL     1       2.307   5.421  20.043  0.00  0.00    +0.000 A 
ATOM     10  C   UNL     1       1.264   4.605  20.538  0.00  0.00    +0.000 A 
ATOM     11  C   UNL     1       1.288   3.232  20.371  0.00  0.00    +0.000 A 
ATOM     12  C   UNL     1       2.377   2.653  19.730  0.00  0.00    +0.000 A 
ATOM     13  C   UNL     1       3.462   3.442  19.303  0.00  0.00    +0.000 A 
ATOM     14  C   UNL     1       3.456   4.833  19.458  0.00  0.00    +0.000 A 
ENDBRANCH   7  14
ENDBRANCH   1   7
BRANCH   4  15
ATOM     15  C   UNL     1       8.497   7.991  18.665  0.00  0.00    +0.000 C 
BRANCH  15  16
ATOM     16  C   UNL     1       8.409   9.485  18.269  0.00  0.00    +0.000 C 
BRANCH  16  17
ATOM     17  C   UNL     1       9.241  10.391  19.163  0.00  0.00    +0.000 A 
ATOM     18  C   UNL     1       9.114  10.521  20.535  0.00  0.00    +0.000 A 
ATOM     19  N   UNL     1      10.016  11.458  20.971  0.00  0.00    +0.000 N 
ATOM     20  C   UNL     1      10.733  11.959  19.923  0.00  0.00    +0.000 A 
ATOM     21  C   UNL     1      11.741  12.935  19.906  0.00  0.00    +0.000 A 
ATOM     22  C   UNL     1      12.297  13.263  18.665  0.00  0.00    +0.000 A 
ATOM     23  C   UNL     1      11.866  12.641  17.499  0.00  0.00    +0.000 A 
ATOM     24  C   UNL     1      10.856  11.670  17.536  0.00  0.00    +0.000 A 
ATOM     25  C   UNL     1      10.270  11.315  18.772  0.00  0.00    +0.000 A 
ATOM     26  H   UNL     1      10.123  11.755  21.943  0.00  0.00    +0.000 HD
ENDBRANCH  16  17
ENDBRANCH  15  16
ENDBRANCH   4  15
TORSDOF 5
ENDMDL
MODEL 3
REMARK VINA RESULT:      -8.3      5.542      6.657
REMARK  Name = 
REMARK  6 active torsions:
REMARK  status: ('A' for Active; 'I' for Inactive)
REMARK    1  A    between atoms: C_1  and  C_2
REMARK    2  A    between atoms: C_7  and  O_8
REMARK    3  A    between atoms: O_8  and  C_9
REMARK    4  A    between atoms: N_12  and  C_13
REMARK    5  A    between atoms: C_13  and  C_14
REMARK    6  A    between atoms: C_14  and  C_15
REMARK                            x       y       z     vdW  Elec       q    Type
REMARK                         _______ _______ _______ _____ _____    ______ ____
ROOT
ATOM      1  C   UNL     1       5.109   3.426  17.852  0.00  0.00    +0.000 C 
ATOM      2  C   UNL     1       5.366   4.370  19.038  0.00  0.00    +0.000 C 
ATOM      3  C   UNL     1       4.705   5.757  18.966  0.00  0.00    +0.000 C 
ATOM      4  N   UNL     1       4.716   6.456  17.675  0.00  0.00    +0.000 NA
ATOM      5  C   UNL     1       4.615   5.568  16.509  0.00  0.00    +0.000 C 
ATOM      6  C   UNL     1       5.337   4.212  16.567  0.00  0.00    +0.000 C 
ENDROOT
BRANCH   1   7
ATOM      7  O   UNL     1       3.798   2.818  17.908  0.00  0.00    +0.000 OA
BRANCH   7  14
ATOM      8  C   UNL     1       1.329   4.163  17.606  0.00  0.00    +0.000 C 
ATOM      9  C   UNL     1       1.814   3.668  18.936  0.00  0.00    +0.000 A 
ATOM     10  C   UNL     1       1.003   3.888  20.073  0.00  0.00    +0.000 A 
ATOM     11  C   UNL     1       1.326   3.338  21.300  0.00  0.00    +0.000 A 
ATOM     12  C   UNL     1       2.487   2.582  21.412  0.00  0.00    +0.000 A 
ATOM     13  C   UNL     1       3.348   2.420  20.310  0.00  0.00    +0.000 A 
ATOM     14  C   UNL     1       3.038   2.965  19.058  0.00  0.00    +0.000 A 
ENDBRANCH   7  14
ENDBRANCH   1   7
BRANCH   4  15
ATOM     15  C   UNL     1       3.607   7.468  17.596  0.00  0.00    +0.000 C 
BRANCH  15  16
ATOM     16  C   UNL     1       2.461   7.368  18.633  0.00  0.00    +0.000 C 
BRANCH  16  17
ATOM     17  C   UNL     1       1.724   8.682  18.839  0.00  0.00    +0.000 A 
ATOM     18  C   UNL     1       1.592   9.697  17.906  0.00  0.00    +0.000 A 
ATOM     19  N   UNL     1       0.892  10.729  18.478  0.00  0.00    +0.000 N 
ATOM     20  C   UNL     1       0.564  10.429  19.770  0.00  0.00    +0.000 A 
ATOM     21  C   UNL     1      -0.131  11.189  20.723  0.00  0.00    +0.000 A 
ATOM     22  C   UNL     1      -0.312  10.624  21.988  0.00  0.00    +0.000 A 
ATOM     23  C   UNL     1       0.177   9.357  22.284  0.00  0.00    +0.000 A 
ATOM     24  C   UNL     1       0.871   8.613  21.320  0.00  0.00    +0.000 A 
ATOM     25  C   UNL     1       1.074   9.154  20.031  0.00  0.00    +0.000 A 
ATOM     26  H   UNL     1       0.665  11.609  18.011  0.00  0.00    +0.000 HD
ENDBRANCH  16  17
ENDBRANCH  15  16
ENDBRANCH   4  15
TORSDOF 5
ENDMDL
MODEL 4
REMARK VINA RESULT:      -8.3      1.249      1.979
REMARK  Name = 
REMARK  6 active torsions:
REMARK  status: ('A' for Active; 'I' for Inactive)
REMARK    1  A    between atoms: C_1  and  C_2
REMARK    2  A    between atoms: C_7  and  O_8
REMARK    3  A    between atoms: O_8  and  C_9
REMARK    4  A    between atoms: N_12  and  C_13
REMARK    5  A    between atoms: C_13  and  C_14
REMARK    6  A    between atoms: C_14  and  C_15
REMARK                            x       y       z     vdW  Elec       q    Type
REMARK                         _______ _______ _______ _____ _____    ______ ____
ROOT
ATOM      1  C   UNL     1       5.599   4.781  17.335  0.00  0.00    +0.000 C 
ATOM      2  C   UNL     1       7.064   4.465  17.676  0.00  0.00    +0.000 C 
ATOM      3  C   UNL     1       7.895   5.619  18.262  0.00  0.00    +0.000 C 
ATOM      4  N   UNL     1       7.727   6.954  17.675  0.00  0.00    +0.000 NA
ATOM      5  C   UNL     1       6.363   7.237  17.206  0.00  0.00    +0.000 C 
ATOM      6  C   UNL     1       5.567   6.092  16.560  0.00  0.00    +0.000 C 
ENDROOT
BRANCH   1   7
ATOM      7  O   UNL     1       4.756   4.808  18.510  0.00  0.00    +0.000 OA
BRANCH   7  14
ATOM      8  C   UNL     1       4.561   2.396  19.974  0.00  0.00    +0.000 C 
ATOM      9  C   UNL     1       3.419   2.938  19.168  0.00  0.00    +0.000 A 
ATOM     10  C   UNL     1       2.208   2.210  19.142  0.00  0.00    +0.000 A 
ATOM     11  C   UNL     1       1.077   2.722  18.533  0.00  0.00    +0.000 A 
ATOM     12  C   UNL     1       1.153   3.963  17.911  0.00  0.00    +0.000 A 
ATOM     13  C   UNL     1       2.372   4.665  17.856  0.00  0.00    +0.000 A 
ATOM     14  C   UNL     1       3.527   4.167  18.470  0.00  0.00    +0.000 A 
ENDBRANCH   7  14
ENDBRANCH   1   7
BRANCH   4  15
ATOM     15  C   UNL     1       8.127   8.029  18.646  0.00  0.00    +0.000 C 
BRANCH  15  16
ATOM     16  C   UNL     1       8.433   9.438  18.081  0.00  0.00    +0.000 C 
BRANCH  16  17
ATOM     17  C   UNL     1       9.238  10.304  19.036  0.00  0.00    +0.000 A 
ATOM     18  C   UNL     1       9.093  10.351  20.412  0.00  0.00    +0.000 A 
ATOM     19  N   UNL     1       9.974  11.275  20.914  0.00  0.00    +0.000 N 
ATOM     20  C   UNL     1      10.694  11.849  19.905  0.00  0.00    +0.000 A 
ATOM     21  C   UNL     1      11.686  12.841  19.958  0.00  0.00    +0.000 A 
ATOM     22  C   UNL     1      12.250  13.250  18.746  0.00  0.00    +0.000 A 
ATOM     23  C   UNL     1      11.843  12.691  17.540  0.00  0.00    +0.000 A 
ATOM     24  C   UNL     1      10.850  11.702  17.508  0.00  0.00    +0.000 A 
ATOM     25  C   UNL     1      10.256  11.266  18.713  0.00  0.00    +0.000 A 
ATOM     26  H   UNL     1      10.065  11.517  21.903  0.00  0.00    +0.000 HD
ENDBRANCH  16  17
ENDBRANCH  15  16
ENDBRANCH   4  15
TORSDOF 5
ENDMDL
MODEL 5
REMARK VINA RESULT:      -8.1      4.084      6.670
REMARK  Name = 
REMARK  6 active torsions:
REMARK  status: ('A' for Active; 'I' for Inactive)
REMARK    1  A    between atoms: C_1  and  C_2
REMARK    2  A    between atoms: C_7  and  O_8
REMARK    3  A    between atoms: O_8  and  C_9
REMARK    4  A    between atoms: N_12  and  C_13
REMARK    5  A    between atoms: C_13  and  C_14
REMARK    6  A    between atoms: C_14  and  C_15
REMARK                            x       y       z     vdW  Elec       q    Type
REMARK                         _______ _______ _______ _____ _____    ______ ____
ROOT
ATOM      1  C   UNL     1       1.928   4.878  20.816  0.00  0.00    +0.000 C 
ATOM      2  C   UNL     1       2.801   3.618  20.938  0.00  0.00    +0.000 C 
ATOM      3  C   UNL     1       3.296   2.996  19.622  0.00  0.00    +0.000 C 
ATOM      4  N   UNL     1       2.351   2.922  18.500  0.00  0.00    +0.000 NA
ATOM      5  C   UNL     1       1.405   4.045  18.436  0.00  0.00    +0.000 C 
ATOM      6  C   UNL     1       0.865   4.613  19.758  0.00  0.00    +0.000 C 
ENDROOT
BRANCH   1   7
ATOM      7  O   UNL     1       2.710   6.062  20.536  0.00  0.00    +0.000 OA
BRANCH   7  14
ATOM      8  C   UNL     1       3.112   7.100  17.936  0.00  0.00    +0.000 C 
ATOM      9  C   UNL     1       2.270   7.803  18.959  0.00  0.00    +0.000 A 
ATOM     10  C   UNL     1       1.662   9.029  18.602  0.00  0.00    +0.000 A 
ATOM     11  C   UNL     1       0.766   9.656  19.449  0.00  0.00    +0.000 A 
ATOM     12  C   UNL     1       0.489   9.078  20.682  0.00  0.00    +0.000 A 
ATOM     13  C   UNL     1       1.146   7.901  21.086  0.00  0.00    +0.000 A 
ATOM     14  C   UNL     1       2.054   7.247  20.244  0.00  0.00    +0.000 A 
ENDBRANCH   7  14
ENDBRANCH   1   7
BRANCH   4  15
ATOM     15  C   UNL     1       3.075   2.837  17.185  0.00  0.00    +0.000 C 
BRANCH  15  16
ATOM     16  C   UNL     1       4.623   2.823  17.211  0.00  0.00    +0.000 C 
BRANCH  16  17
ATOM     17  C   UNL     1       5.240   4.149  16.795  0.00  0.00    +0.000 A 
ATOM     18  C   UNL     1       5.059   4.786  15.579  0.00  0.00    +0.000 A 
ATOM     19  N   UNL     1       5.807   5.937  15.573  0.00  0.00    +0.000 N 
ATOM     20  C   UNL     1       6.486   6.075  16.749  0.00  0.00    +0.000 A 
ATOM     21  C   UNL     1       7.369   7.083  17.166  0.00  0.00    +0.000 A 
ATOM     22  C   UNL     1       7.935   6.955  18.438  0.00  0.00    +0.000 A 
ATOM     23  C   UNL     1       7.630   5.872  19.254  0.00  0.00    +0.000 A 
ATOM     24  C   UNL     1       6.747   4.874  18.819  0.00  0.00    +0.000 A 
ATOM     25  C   UNL     1       6.157   4.969  17.538  0.00  0.00    +0.000 A 
ATOM     26  H   UNL     1       5.864   6.589  14.789  0.00  0.00    +0.000 HD
ENDBRANCH  16  17
ENDBRANCH  15  16
ENDBRANCH   4  15
TORSDOF 5
ENDMDL
MODEL 6
REMARK VINA RESULT:      -8.0      5.379      7.709
REMARK  Name = 
REMARK  6 active torsions:
REMARK  status: ('A' for Active; 'I' for Inactive)
REMARK    1  A    between atoms: C_1  and  C_2
REMARK    2  A    between atoms: C_7  and  O_8
REMARK    3  A    between atoms: O_8  and  C_9
REMARK    4  A    between atoms: N_12  and  C_13
REMARK    5  A    between atoms: C_13  and  C_14
REMARK    6  A    between atoms: C_14  and  C_15
REMARK                            x       y       z     vdW  Elec       q    Type
REMARK                         _______ _______ _______ _____ _____    ______ ____
ROOT
ATOM      1  C   UNL     1       3.944   2.762  17.731  0.00  0.00    +0.000 C 
ATOM      2  C   UNL     1       2.496   2.953  17.253  0.00  0.00    +0.000 C 
ATOM      3  C   UNL     1       1.540   3.663  18.228  0.00  0.00    +0.000 C 
ATOM      4  N   UNL     1       1.624   3.309  19.650  0.00  0.00    +0.000 NA
ATOM      5  C   UNL     1       2.981   2.980  20.110  0.00  0.00    +0.000 C 
ATOM      6  C   UNL     1       3.903   2.210  19.150  0.00  0.00    +0.000 C 
ENDROOT
BRANCH   1   7
ATOM      7  O   UNL     1       4.721   3.977  17.627  0.00  0.00    +0.000 OA
BRANCH   7  14
ATOM      8  C   UNL     1       7.407   4.802  17.952  0.00  0.00    +0.000 C 
ATOM      9  C   UNL     1       6.765   4.674  16.602  0.00  0.00    +0.000 A 
ATOM     10  C   UNL     1       7.538   4.981  15.458  0.00  0.00    +0.000 A 
ATOM     11  C   UNL     1       7.051   4.752  14.184  0.00  0.00    +0.000 A 
ATOM     12  C   UNL     1       5.768   4.240  14.037  0.00  0.00    +0.000 A 
ATOM     13  C   UNL     1       4.955   4.004  15.162  0.00  0.00    +0.000 A 
ATOM     14  C   UNL     1       5.429   4.225  16.461  0.00  0.00    +0.000 A 
ENDBRANCH   7  14
ENDBRANCH   1   7
BRANCH   4  15
ATOM     15  C   UNL     1       1.086   4.412  20.517  0.00  0.00    +0.000 C 
BRANCH  15  16
ATOM     16  C   UNL     1       2.066   5.525  20.965  0.00  0.00    +0.000 C 
BRANCH  16  17
ATOM     17  C   UNL     1       2.000   6.767  20.090  0.00  0.00    +0.000 A 
ATOM     18  C   UNL     1       2.638   6.942  18.874  0.00  0.00    +0.000 A 
ATOM     19  N   UNL     1       2.363   8.204  18.413  0.00  0.00    +0.000 N 
ATOM     20  C   UNL     1       1.566   8.875  19.297  0.00  0.00    +0.000 A 
ATOM     21  C   UNL     1       1.056  10.181  19.237  0.00  0.00    +0.000 A 
ATOM     22  C   UNL     1       0.266  10.611  20.308  0.00  0.00    +0.000 A 
ATOM     23  C   UNL     1      -0.002   9.773  21.384  0.00  0.00    +0.000 A 
ATOM     24  C   UNL     1       0.518   8.472  21.426  0.00  0.00    +0.000 A 
ATOM     25  C   UNL     1       1.322   8.005  20.362  0.00  0.00    +0.000 A 
ATOM     26  H   UNL     1       2.721   8.597  17.540  0.00  0.00    +0.000 HD
ENDBRANCH  16  17
ENDBRANCH  15  16
ENDBRANCH   4  15
TORSDOF 5
ENDMDL
MODEL 7
REMARK VINA RESULT:      -8.0      5.547      7.713
REMARK  Name = 
REMARK  6 active torsions:
REMARK  status: ('A' for Active; 'I' for Inactive)
REMARK    1  A    between atoms: C_1  and  C_2
REMARK    2  A    between atoms: C_7  and  O_8
REMARK    3  A    between atoms: O_8  and  C_9
REMARK    4  A    between atoms: N_12  and  C_13
REMARK    5  A    between atoms: C_13  and  C_14
REMARK    6  A    between atoms: C_14  and  C_15
REMARK                            x       y       z     vdW  Elec       q    Type
REMARK                         _______ _______ _______ _____ _____    ______ ____
ROOT
ATOM      1  C   UNL     1       1.711   5.686  20.171  0.00  0.00    +0.000 C 
ATOM      2  C   UNL     1       2.634   4.708  20.918  0.00  0.00    +0.000 C 
ATOM      3  C   UNL     1       3.784   4.094  20.103  0.00  0.00    +0.000 C 
ATOM      4  N   UNL     1       3.498   3.663  18.728  0.00  0.00    +0.000 NA
ATOM      5  C   UNL     1       2.509   4.497  18.031  0.00  0.00    +0.000 C 
ATOM      6  C   UNL     1       1.326   5.049  18.843  0.00  0.00    +0.000 C 
ENDROOT
BRANCH   1   7
ATOM      7  O   UNL     1       2.312   6.992  20.011  0.00  0.00    +0.000 OA
BRANCH   7  14
ATOM      8  C   UNL     1       1.937   8.740  17.819  0.00  0.00    +0.000 C 
ATOM      9  C   UNL     1       1.373   9.026  19.179  0.00  0.00    +0.000 A 
ATOM     10  C   UNL     1       0.631  10.216  19.362  0.00  0.00    +0.000 A 
ATOM     11  C   UNL     1      -0.031  10.472  20.550  0.00  0.00    +0.000 A 
ATOM     12  C   UNL     1       0.068   9.549  21.585  0.00  0.00    +0.000 A 
ATOM     13  C   UNL     1       0.868   8.399  21.448  0.00  0.00    +0.000 A 
ATOM     14  C   UNL     1       1.543   8.119  20.253  0.00  0.00    +0.000 A 
ENDBRANCH   7  14
ENDBRANCH   1   7
BRANCH   4  15
ATOM     15  C   UNL     1       4.752   3.623  17.900  0.00  0.00    +0.000 C 
BRANCH  15  16
ATOM     16  C   UNL     1       4.602   3.654  16.359  0.00  0.00    +0.000 C 
BRANCH  16  17
ATOM     17  C   UNL     1       5.786   4.300  15.656  0.00  0.00    +0.000 A 
ATOM     18  C   UNL     1       6.707   5.158  16.233  0.00  0.00    +0.000 A 
ATOM     19  N   UNL     1       7.599   5.554  15.270  0.00  0.00    +0.000 N 
ATOM     20  C   UNL     1       7.289   4.989  14.066  0.00  0.00    +0.000 A 
ATOM     21  C   UNL     1       7.917   5.124  12.818  0.00  0.00    +0.000 A 
ATOM     22  C   UNL     1       7.364   4.425  11.741  0.00  0.00    +0.000 A 
ATOM     23  C   UNL     1       6.239   3.627  11.906  0.00  0.00    +0.000 A 
ATOM     24  C   UNL     1       5.624   3.505  13.161  0.00  0.00    +0.000 A 
ATOM     25  C   UNL     1       6.155   4.198  14.271  0.00  0.00    +0.000 A 
ATOM     26  H   UNL     1       8.376   6.200  15.425  0.00  0.00    +0.000 HD
ENDBRANCH  16  17
ENDBRANCH  15  16
ENDBRANCH   4  15
TORSDOF 5
ENDMDL
MODEL 8
REMARK VINA RESULT:      -7.9      5.637      7.711
REMARK  Name = 
REMARK  6 active torsions:
REMARK  status: ('A' for Active; 'I' for Inactive)
REMARK    1  A    between atoms: C_1  and  C_2
REMARK    2  A    between atoms: C_7  and  O_8
REMARK    3  A    between atoms: O_8  and  C_9
REMARK    4  A    between atoms: N_12  and  C_13
REMARK    5  A    between atoms: C_13  and  C_14
REMARK    6  A    between atoms: C_14  and  C_15
REMARK                            x       y       z     vdW  Elec       q    Type
REMARK                         _______ _______ _______ _____ _____    ______ ____
ROOT
ATOM      1  C   UNL     1       3.842   2.951  18.498  0.00  0.00    +0.000 C 
ATOM      2  C   UNL     1       2.528   3.325  17.792  0.00  0.00    +0.000 C 
ATOM      3  C   UNL     1       1.664   4.398  18.475  0.00  0.00    +0.000 C 
ATOM      4  N   UNL     1       1.524   4.339  19.936  0.00  0.00    +0.000 NA
ATOM      5  C   UNL     1       2.720   3.849  20.635  0.00  0.00    +0.000 C 
ATOM      6  C   UNL     1       3.537   2.728  19.973  0.00  0.00    +0.000 C 
ENDROOT
BRANCH   1   7
ATOM      7  O   UNL     1       4.877   3.938  18.286  0.00  0.00    +0.000 OA
BRANCH   7  14
ATOM      8  C   UNL     1       4.526   6.651  17.569  0.00  0.00    +0.000 C 
ATOM      9  C   UNL     1       5.025   5.623  16.597  0.00  0.00    +0.000 A 
ATOM     10  C   UNL     1       5.325   6.035  15.278  0.00  0.00    +0.000 A 
ATOM     11  C   UNL     1       5.917   5.170  14.375  0.00  0.00    +0.000 A 
ATOM     12  C   UNL     1       6.189   3.867  14.775  0.00  0.00    +0.000 A 
ATOM     13  C   UNL     1       5.824   3.417  16.057  0.00  0.00    +0.000 A 
ATOM     14  C   UNL     1       5.227   4.277  16.988  0.00  0.00    +0.000 A 
ENDBRANCH   7  14
ENDBRANCH   1   7
BRANCH   4  15
ATOM     15  C   UNL     1       1.163   5.684  20.501  0.00  0.00    +0.000 C 
BRANCH  15  16
ATOM     16  C   UNL     1       2.183   6.837  20.333  0.00  0.00    +0.000 C 
BRANCH  16  17
ATOM     17  C   UNL     1       1.525   8.186  20.090  0.00  0.00    +0.000 A 
ATOM     18  C   UNL     1       1.564   8.911  18.911  0.00  0.00    +0.000 A 
ATOM     19  N   UNL     1       0.884  10.088  19.098  0.00  0.00    +0.000 N 
ATOM     20  C   UNL     1       0.403  10.167  20.374  0.00  0.00    +0.000 A 
ATOM     21  C   UNL     1      -0.331  11.188  20.998  0.00  0.00    +0.000 A 
ATOM     22  C   UNL     1      -0.683  10.999  22.338  0.00  0.00    +0.000 A 
ATOM     23  C   UNL     1      -0.320   9.843  23.018  0.00  0.00    +0.000 A 
ATOM     24  C   UNL     1       0.416   8.835  22.378  0.00  0.00    +0.000 A 
ATOM     25  C   UNL     1       0.790   8.993  21.025  0.00  0.00    +0.000 A 
ATOM     26  H   UNL     1       0.771  10.815  18.389  0.00  0.00    +0.000 HD
ENDBRANCH  16  17
ENDBRANCH  15  16
ENDBRANCH   4  15
TORSDOF 5
ENDMDL
MODEL 9
REMARK VINA RESULT:      -7.8      4.932      8.425
REMARK  Name = 
REMARK  6 active torsions:
REMARK  status: ('A' for Active; 'I' for Inactive)
REMARK    1  A    between atoms: C_1  and  C_2
REMARK    2  A    between atoms: C_7  and  O_8
REMARK    3  A    between atoms: O_8  and  C_9
REMARK    4  A    between atoms: N_12  and  C_13
REMARK    5  A    between atoms: C_13  and  C_14
REMARK    6  A    between atoms: C_14  and  C_15
REMARK                            x       y       z     vdW  Elec       q    Type
REMARK                         _______ _______ _______ _____ _____    ______ ____
ROOT
ATOM      1  C   UNL     1       0.162  10.232  18.867  0.00  0.00    +0.000 C 
ATOM      2  C   UNL     1       1.128   9.572  17.870  0.00  0.00    +0.000 C 
ATOM      3  C   UNL     1       1.679   8.190  18.260  0.00  0.00    +0.000 C 
ATOM      4  N   UNL     1       2.080   7.982  19.658  0.00  0.00    +0.000 NA
ATOM      5  C   UNL     1       1.262   8.714  20.634  0.00  0.00    +0.000 C 
ATOM      6  C   UNL     1       0.774  10.123  20.257  0.00  0.00    +0.000 C 
ENDROOT
BRANCH   1   7
ATOM      7  O   UNL     1      -1.167   9.668  18.797  0.00  0.00    +0.000 OA
BRANCH   7  14
ATOM      8  C   UNL     1      -2.829  11.879  19.390  0.00  0.00    +0.000 C 
ATOM      9  C   UNL     1      -2.886  11.163  18.074  0.00  0.00    +0.000 A 
ATOM     10  C   UNL     1      -3.809  11.616  17.102  0.00  0.00    +0.000 A 
ATOM     11  C   UNL     1      -3.816  11.090  15.822  0.00  0.00    +0.000 A 
ATOM     12  C   UNL     1      -2.917  10.079  15.507  0.00  0.00    +0.000 A 
ATOM     13  C   UNL     1      -2.047   9.560  16.485  0.00  0.00    +0.000 A 
ATOM     14  C   UNL     1      -2.020  10.080  17.785  0.00  0.00    +0.000 A 
ENDBRANCH   7  14
ENDBRANCH   1   7
BRANCH   4  15
ATOM     15  C   UNL     1       2.053   6.522  20.018  0.00  0.00    +0.000 C 
BRANCH  15  16
ATOM     16  C   UNL     1       2.243   5.492  18.877  0.00  0.00    +0.000 C 
BRANCH  16  17
ATOM     17  C   UNL     1       3.654   4.931  18.807  0.00  0.00    +0.000 A 
ATOM     18  C   UNL     1       4.081   3.729  19.345  0.00  0.00    +0.000 A 
ATOM     19  N   UNL     1       5.424   3.593  19.104  0.00  0.00    +0.000 N 
ATOM     20  C   UNL     1       5.903   4.679  18.428  0.00  0.00    +0.000 A 
ATOM     21  C   UNL     1       7.205   4.966  17.991  0.00  0.00    +0.000 A 
ATOM     22  C   UNL     1       7.407   6.179  17.325  0.00  0.00    +0.000 A 
ATOM     23  C   UNL     1       6.355   7.059  17.104  0.00  0.00    +0.000 A 
ATOM     24  C   UNL     1       5.060   6.756  17.549  0.00  0.00    +0.000 A 
ATOM     25  C   UNL     1       4.820   5.540  18.228  0.00  0.00    +0.000 A 
ATOM     26  H   UNL     1       5.994   2.800  19.407  0.00  0.00    +0.000 HD
ENDBRANCH  16  17
ENDBRANCH  15  16
ENDBRANCH   4  15
TORSDOF 5
ENDMDL
