MODEL 1
REMARK VINA RESULT:      -8.0      0.000      0.000
REMARK  Name = 
REMARK  4 active torsions:
REMARK  status: ('A' for Active; 'I' for Inactive)
REMARK    1  A    between atoms: N_20  and  C_21
REMARK    2  A    between atoms: C_21  and  C_22
REMARK    3  A    between atoms: C_22  and  C_23
REMARK    4  A    between atoms: C_23  and  N_24
REMARK                            x       y       z     vdW  Elec       q    Type
REMARK                         _______ _______ _______ _____ _____    ______ ____
ROOT
ATOM      1  O   UNL     1       5.504   2.831  19.540  0.00  0.00    +0.000 OA
ATOM      2  C   UNL     1       4.606   3.669  19.576  0.00  0.00    +0.000 C 
ATOM      3  C   UNL     1       3.310   3.485  20.173  0.00  0.00    +0.000 A 
ATOM      4  C   UNL     1       2.854   2.369  20.857  0.00  0.00    +0.000 A 
ATOM      5  C   UNL     1       1.581   2.438  21.406  0.00  0.00    +0.000 A 
ATOM      6  C   UNL     1       0.803   3.592  21.215  0.00  0.00    +0.000 A 
ATOM      7  C   UNL     1       1.268   4.677  20.459  0.00  0.00    +0.000 A 
ATOM      8  C   UNL     1       2.555   4.644  19.937  0.00  0.00    +0.000 A 
ATOM      9  C   UNL     1       3.377   5.554  19.117  0.00  0.00    +0.000 A 
ATOM     10  C   UNL     1       4.610   5.019  18.973  0.00  0.00    +0.000 A 
ATOM     11  C   UNL     1       5.558   5.551  18.014  0.00  0.00    +0.000 A 
ATOM     12  C   UNL     1       6.803   4.957  17.828  0.00  0.00    +0.000 A 
ATOM     13  C   UNL     1       7.166   4.582  16.549  0.00  0.00    +0.000 A 
ATOM     14  C   UNL     1       6.545   5.217  15.481  0.00  0.00    +0.000 A 
ATOM     15 BR   UNL     1       7.102   4.794  13.727  0.00  0.00    +0.000 Br
ATOM     16  C   UNL     1       5.561   6.193  15.703  0.00  0.00    +0.000 A 
ATOM     17  C   UNL     1       5.014   6.302  16.983  0.00  0.00    +0.000 A 
ATOM     18  C   UNL     1       3.796   7.117  17.293  0.00  0.00    +0.000 A 
ATOM     19  O   UNL     1       3.523   8.077  16.582  0.00  0.00    +0.000 OA
ATOM     20  N   UNL     1       3.029   6.696  18.430  0.00  0.00    +0.000 N 
ENDROOT
BRANCH  20  21
ATOM     21  C   UNL     1       1.821   7.479  18.732  0.00  0.00    +0.000 C 
BRANCH  21  22
ATOM     22  C   UNL     1       1.902   8.286  20.035  0.00  0.00    +0.000 C 
BRANCH  22  23
ATOM     23  C   UNL     1       1.026   9.535  20.036  0.00  0.00    +0.000 C 
BRANCH  23  24
ATOM     24  N   UNL     1       0.471   9.793  21.354  0.00  0.00    +0.000 N 
ATOM     25  C   UNL     1      -0.598  10.618  21.637  0.00  0.00    +0.000 A 
ATOM     26  C   UNL     1      -0.728  10.528  23.007  0.00  0.00    +0.000 A 
ATOM     27  N   UNL     1       0.221   9.700  23.544  0.00  0.00    +0.000 NA
ATOM     28  C   UNL     1       0.927   9.260  22.532  0.00  0.00    +0.000 A 
ENDBRANCH  23  24
ENDBRANCH  22  23
ENDBRANCH  21  22
ENDBRANCH  20  21
TORSDOF 4
ENDMDL
MODEL 2
REMARK VINA RESULT:      -7.4      1.139      1.625
REMARK  Name = 
REMARK  4 active torsions:
REMARK  status: ('A' for Active; 'I' for Inactive)
REMARK    1  A    between atoms: N_20  and  C_21
REMARK    2  A    between atoms: C_21  and  C_22
REMARK    3  A    between atoms: C_22  and  C_23
REMARK    4  A    between atoms: C_23  and  N_24
REMARK                            x       y       z     vdW  Elec       q    Type
REMARK                         _______ _______ _______ _____ _____    ______ ____
ROOT
ATOM      1  O   UNL     1       5.491   2.784  19.507  0.00  0.00    +0.000 OA
ATOM      2  C   UNL     1       4.607   3.634  19.578  0.00  0.00    +0.000 C 
ATOM      3  C   UNL     1       3.321   3.458  20.198  0.00  0.00    +0.000 A 
ATOM      4  C   UNL     1       2.862   2.335  20.870  0.00  0.00    +0.000 A 
ATOM      5  C   UNL     1       1.602   2.412  21.447  0.00  0.00    +0.000 A 
ATOM      6  C   UNL     1       0.838   3.581  21.296  0.00  0.00    +0.000 A 
ATOM      7  C   UNL     1       1.304   4.674  20.551  0.00  0.00    +0.000 A 
ATOM      8  C   UNL     1       2.579   4.633  20.002  0.00  0.00    +0.000 A 
ATOM      9  C   UNL     1       3.398   5.546  19.183  0.00  0.00    +0.000 A 
ATOM     10  C   UNL     1       4.619   4.996  19.002  0.00  0.00    +0.000 A 
ATOM     11  C   UNL     1       5.554   5.533  18.034  0.00  0.00    +0.000 A 
ATOM     12  C   UNL     1       6.786   4.924  17.810  0.00  0.00    +0.000 A 
ATOM     13  C   UNL     1       7.116   4.570  16.516  0.00  0.00    +0.000 A 
ATOM     14  C   UNL     1       6.484   5.235  15.475  0.00  0.00    +0.000 A 
ATOM     15 BR   UNL     1       6.997   4.840  13.701  0.00  0.00    +0.000 Br
ATOM     16  C   UNL     1       5.520   6.222  15.737  0.00  0.00    +0.000 A 
ATOM     17  C   UNL     1       5.001   6.313  17.030  0.00  0.00    +0.000 A 
ATOM     18  C   UNL     1       3.803   7.140  17.382  0.00  0.00    +0.000 A 
ATOM     19  O   UNL     1       3.530   8.118  16.696  0.00  0.00    +0.000 OA
ATOM     20  N   UNL     1       3.053   6.707  18.526  0.00  0.00    +0.000 N 
ENDROOT
BRANCH  20  21
ATOM     21  C   UNL     1       1.863   7.502  18.869  0.00  0.00    +0.000 C 
BRANCH  21  22
ATOM     22  C   UNL     1       1.948   8.208  20.229  0.00  0.00    +0.000 C 
BRANCH  22  23
ATOM     23  C   UNL     1       0.636   8.852  20.667  0.00  0.00    +0.000 C 
BRANCH  23  24
ATOM     24  N   UNL     1       0.350  10.051  19.897  0.00  0.00    +0.000 N 
ATOM     25  C   UNL     1       1.095  11.213  19.897  0.00  0.00    +0.000 A 
ATOM     26  C   UNL     1       0.418  12.036  19.022  0.00  0.00    +0.000 A 
ATOM     27  N   UNL     1      -0.696  11.419  18.518  0.00  0.00    +0.000 NA
ATOM     28  C   UNL     1      -0.713  10.222  19.049  0.00  0.00    +0.000 A 
ENDBRANCH  23  24
ENDBRANCH  22  23
ENDBRANCH  21  22
ENDBRANCH  20  21
TORSDOF 4
ENDMDL
MODEL 3
REMARK VINA RESULT:      -7.1      0.900      1.095
REMARK  Name = 
REMARK  4 active torsions:
REMARK  status: ('A' for Active; 'I' for Inactive)
REMARK    1  A    between atoms: N_20  and  C_21
REMARK    2  A    between atoms: C_21  and  C_22
REMARK    3  A    between atoms: C_22  and  C_23
REMARK    4  A    between atoms: C_23  and  N_24
REMARK                            x       y       z     vdW  Elec       q    Type
REMARK                         _______ _______ _______ _____ _____    ______ ____
ROOT
ATOM      1  O   UNL     1       5.531   2.761  19.350  0.00  0.00    +0.000 OA
ATOM      2  C   UNL     1       4.671   3.636  19.419  0.00  0.00    +0.000 C 
ATOM      3  C   UNL     1       3.407   3.518  20.094  0.00  0.00    +0.000 A 
ATOM      4  C   UNL     1       2.947   2.436  20.829  0.00  0.00    +0.000 A 
ATOM      5  C   UNL     1       1.712   2.569  21.449  0.00  0.00    +0.000 A 
ATOM      6  C   UNL     1       0.971   3.750  21.278  0.00  0.00    +0.000 A 
ATOM      7  C   UNL     1       1.434   4.799  20.471  0.00  0.00    +0.000 A 
ATOM      8  C   UNL     1       2.686   4.703  19.876  0.00  0.00    +0.000 A 
ATOM      9  C   UNL     1       3.494   5.560  18.989  0.00  0.00    +0.000 A 
ATOM     10  C   UNL     1       4.693   4.971  18.785  0.00  0.00    +0.000 A 
ATOM     11  C   UNL     1       5.603   5.444  17.760  0.00  0.00    +0.000 A 
ATOM     12  C   UNL     1       6.810   4.795  17.517  0.00  0.00    +0.000 A 
ATOM     13  C   UNL     1       7.082   4.379  16.227  0.00  0.00    +0.000 A 
ATOM     14  C   UNL     1       6.425   5.017  15.183  0.00  0.00    +0.000 A 
ATOM     15 BR   UNL     1       6.860   4.536  13.410  0.00  0.00    +0.000 Br
ATOM     16  C   UNL     1       5.496   6.038  15.439  0.00  0.00    +0.000 A 
ATOM     17  C   UNL     1       5.030   6.196  16.746  0.00  0.00    +0.000 A 
ATOM     18  C   UNL     1       3.867   7.067  17.108  0.00  0.00    +0.000 A 
ATOM     19  O   UNL     1       3.591   8.022  16.392  0.00  0.00    +0.000 OA
ATOM     20  N   UNL     1       3.152   6.701  18.297  0.00  0.00    +0.000 N 
ENDROOT
BRANCH  20  21
ATOM     21  C   UNL     1       1.996   7.540  18.650  0.00  0.00    +0.000 C 
BRANCH  21  22
ATOM     22  C   UNL     1       2.149   9.017  18.265  0.00  0.00    +0.000 C 
BRANCH  22  23
ATOM     23  C   UNL     1       0.845   9.807  18.340  0.00  0.00    +0.000 C 
BRANCH  23  24
ATOM     24  N   UNL     1       0.597  10.297  19.686  0.00  0.00    +0.000 N 
ATOM     25  C   UNL     1      -0.199   9.691  20.636  0.00  0.00    +0.000 A 
ATOM     26  C   UNL     1      -0.111  10.534  21.723  0.00  0.00    +0.000 A 
ATOM     27  N   UNL     1       0.688  11.613  21.454  0.00  0.00    +0.000 NA
ATOM     28  C   UNL     1       1.113  11.446  20.226  0.00  0.00    +0.000 A 
ENDBRANCH  23  24
ENDBRANCH  22  23
ENDBRANCH  21  22
ENDBRANCH  20  21
TORSDOF 4
ENDMDL
MODEL 4
REMARK VINA RESULT:      -7.1      4.192      7.821
REMARK  Name = 
REMARK  4 active torsions:
REMARK  status: ('A' for Active; 'I' for Inactive)
REMARK    1  A    between atoms: N_20  and  C_21
REMARK    2  A    between atoms: C_21  and  C_22
REMARK    3  A    between atoms: C_22  and  C_23
REMARK    4  A    between atoms: C_23  and  N_24
REMARK                            x       y       z     vdW  Elec       q    Type
REMARK                         _______ _______ _______ _____ _____    ______ ____
ROOT
ATOM      1  O   UNL     1       2.787  12.042  17.805  0.00  0.00    +0.000 OA
ATOM      2  C   UNL     1       2.084  12.217  18.797  0.00  0.00    +0.000 C 
ATOM      3  C   UNL     1       2.079  13.394  19.625  0.00  0.00    +0.000 A 
ATOM      4  C   UNL     1       2.811  14.556  19.433  0.00  0.00    +0.000 A 
ATOM      5  C   UNL     1       2.598  15.594  20.330  0.00  0.00    +0.000 A 
ATOM      6  C   UNL     1       1.703  15.419  21.398  0.00  0.00    +0.000 A 
ATOM      7  C   UNL     1       1.029  14.206  21.603  0.00  0.00    +0.000 A 
ATOM      8  C   UNL     1       1.196  13.170  20.693  0.00  0.00    +0.000 A 
ATOM      9  C   UNL     1       0.683  11.793  20.566  0.00  0.00    +0.000 A 
ATOM     10  C   UNL     1       1.139  11.261  19.411  0.00  0.00    +0.000 A 
ATOM     11  C   UNL     1       1.016   9.843  19.131  0.00  0.00    +0.000 A 
ATOM     12  C   UNL     1       1.542   9.293  17.966  0.00  0.00    +0.000 A 
ATOM     13  C   UNL     1       2.413   8.227  18.080  0.00  0.00    +0.000 A 
ATOM     14  C   UNL     1       2.356   7.457  19.234  0.00  0.00    +0.000 A 
ATOM     15 BR   UNL     1       3.464   5.934  19.364  0.00  0.00    +0.000 Br
ATOM     16  C   UNL     1       1.453   7.774  20.261  0.00  0.00    +0.000 A 
ATOM     17  C   UNL     1       0.833   9.025  20.235  0.00  0.00    +0.000 A 
ATOM     18  C   UNL     1       0.052   9.584  21.384  0.00  0.00    +0.000 A 
ATOM     19  O   UNL     1      -0.477   8.814  22.177  0.00  0.00    +0.000 OA
ATOM     20  N   UNL     1      -0.014  11.015  21.464  0.00  0.00    +0.000 N 
ENDROOT
BRANCH  20  21
ATOM     21  C   UNL     1      -0.763  11.574  22.601  0.00  0.00    +0.000 C 
BRANCH  21  22
ATOM     22  C   UNL     1      -2.091  12.239  22.214  0.00  0.00    +0.000 C 
BRANCH  22  23
ATOM     23  C   UNL     1      -2.605  13.229  23.255  0.00  0.00    +0.000 C 
BRANCH  23  24
ATOM     24  N   UNL     1      -4.001  12.985  23.577  0.00  0.00    +0.000 N 
ATOM     25  C   UNL     1      -5.091  13.471  22.885  0.00  0.00    +0.000 A 
ATOM     26  C   UNL     1      -6.170  12.966  23.578  0.00  0.00    +0.000 A 
ATOM     27  N   UNL     1      -5.768  12.219  24.652  0.00  0.00    +0.000 NA
ATOM     28  C   UNL     1      -4.459  12.233  24.628  0.00  0.00    +0.000 A 
ENDBRANCH  23  24
ENDBRANCH  22  23
ENDBRANCH  21  22
ENDBRANCH  20  21
TORSDOF 4
ENDMDL
MODEL 5
REMARK VINA RESULT:      -7.0      4.298      7.853
REMARK  Name = 
REMARK  4 active torsions:
REMARK  status: ('A' for Active; 'I' for Inactive)
REMARK    1  A    between atoms: N_20  and  C_21
REMARK    2  A    between atoms: C_21  and  C_22
REMARK    3  A    between atoms: C_22  and  C_23
REMARK    4  A    between atoms: C_23  and  N_24
REMARK                            x       y       z     vdW  Elec       q    Type
REMARK                         _______ _______ _______ _____ _____    ______ ____
ROOT
ATOM      1  O   UNL     1       2.718  12.123  17.823  0.00  0.00    +0.000 OA
ATOM      2  C   UNL     1       2.031  12.313  18.823  0.00  0.00    +0.000 C 
ATOM      3  C   UNL     1       2.052  13.495  19.644  0.00  0.00    +0.000 A 
ATOM      4  C   UNL     1       2.798  14.646  19.436  0.00  0.00    +0.000 A 
ATOM      5  C   UNL     1       2.611  15.692  20.329  0.00  0.00    +0.000 A 
ATOM      6  C   UNL     1       1.727  15.536  21.409  0.00  0.00    +0.000 A 
ATOM      7  C   UNL     1       1.039  14.333  21.630  0.00  0.00    +0.000 A 
ATOM      8  C   UNL     1       1.180  13.290  20.724  0.00  0.00    +0.000 A 
ATOM      9  C   UNL     1       0.647  11.919  20.613  0.00  0.00    +0.000 A 
ATOM     10  C   UNL     1       1.081  11.373  19.455  0.00  0.00    +0.000 A 
ATOM     11  C   UNL     1       0.934   9.957  19.185  0.00  0.00    +0.000 A 
ATOM     12  C   UNL     1       1.438   9.392  18.017  0.00  0.00    +0.000 A 
ATOM     13  C   UNL     1       2.295   8.314  18.127  0.00  0.00    +0.000 A 
ATOM     14  C   UNL     1       2.243   7.553  19.286  0.00  0.00    +0.000 A 
ATOM     15 BR   UNL     1       3.331   6.015  19.412  0.00  0.00    +0.000 Br
ATOM     16  C   UNL     1       1.358   7.888  20.323  0.00  0.00    +0.000 A 
ATOM     17  C   UNL     1       0.754   9.148  20.297  0.00  0.00    +0.000 A 
ATOM     18  C   UNL     1      -0.004   9.724  21.452  0.00  0.00    +0.000 A 
ATOM     19  O   UNL     1      -0.533   8.966  22.257  0.00  0.00    +0.000 OA
ATOM     20  N   UNL     1      -0.050  11.156  21.524  0.00  0.00    +0.000 N 
ENDROOT
BRANCH  20  21
ATOM     21  C   UNL     1      -0.776  11.732  22.667  0.00  0.00    +0.000 C 
BRANCH  21  22
ATOM     22  C   UNL     1      -2.269  11.974  22.407  0.00  0.00    +0.000 C 
BRANCH  22  23
ATOM     23  C   UNL     1      -2.541  13.072  21.383  0.00  0.00    +0.000 C 
BRANCH  23  24
ATOM     24  N   UNL     1      -3.240  12.552  20.219  0.00  0.00    +0.000 N 
ATOM     25  C   UNL     1      -2.658  11.925  19.136  0.00  0.00    +0.000 A 
ATOM     26  C   UNL     1      -3.726  11.629  18.317  0.00  0.00    +0.000 A 
ATOM     27  N   UNL     1      -4.906  12.063  18.859  0.00  0.00    +0.000 NA
ATOM     28  C   UNL     1      -4.593  12.606  20.008  0.00  0.00    +0.000 A 
ENDBRANCH  23  24
ENDBRANCH  22  23
ENDBRANCH  21  22
ENDBRANCH  20  21
TORSDOF 4
ENDMDL
MODEL 6
REMARK VINA RESULT:      -6.9      7.759     10.867
REMARK  Name = 
REMARK  4 active torsions:
REMARK  status: ('A' for Active; 'I' for Inactive)
REMARK    1  A    between atoms: N_20  and  C_21
REMARK    2  A    between atoms: C_21  and  C_22
REMARK    3  A    between atoms: C_22  and  C_23
REMARK    4  A    between atoms: C_23  and  N_24
REMARK                            x       y       z     vdW  Elec       q    Type
REMARK                         _______ _______ _______ _____ _____    ______ ____
ROOT
ATOM      1  O   UNL     1      -2.518  13.384  22.255  0.00  0.00    +0.000 OA
ATOM      2  C   UNL     1      -3.534  13.068  21.641  0.00  0.00    +0.000 C 
ATOM      3  C   UNL     1      -4.831  12.849  22.222  0.00  0.00    +0.000 A 
ATOM      4  C   UNL     1      -5.190  13.004  23.553  0.00  0.00    +0.000 A 
ATOM      5  C   UNL     1      -6.524  12.796  23.878  0.00  0.00    +0.000 A 
ATOM      6  C   UNL     1      -7.431  12.405  22.880  0.00  0.00    +0.000 A 
ATOM      7  C   UNL     1      -7.021  12.190  21.555  0.00  0.00    +0.000 A 
ATOM      8  C   UNL     1      -5.700  12.434  21.201  0.00  0.00    +0.000 A 
ATOM      9  C   UNL     1      -4.911  12.328  19.959  0.00  0.00    +0.000 A 
ATOM     10  C   UNL     1      -3.659  12.778  20.197  0.00  0.00    +0.000 A 
ATOM     11  C   UNL     1      -2.586  12.564  19.246  0.00  0.00    +0.000 A 
ATOM     12  C   UNL     1      -1.286  12.978  19.525  0.00  0.00    +0.000 A 
ATOM     13  C   UNL     1      -0.270  12.045  19.439  0.00  0.00    +0.000 A 
ATOM     14  C   UNL     1      -0.476  10.926  18.644  0.00  0.00    +0.000 A 
ATOM     15 BR   UNL     1       0.939   9.694  18.430  0.00  0.00    +0.000 Br
ATOM     16  C   UNL     1      -1.693  10.741  17.970  0.00  0.00    +0.000 A 
ATOM     17  C   UNL     1      -2.781  11.535  18.339  0.00  0.00    +0.000 A 
ATOM     18  C   UNL     1      -4.184  11.275  17.884  0.00  0.00    +0.000 A 
ATOM     19  O   UNL     1      -4.369  10.687  16.825  0.00  0.00    +0.000 OA
ATOM     20  N   UNL     1      -5.225  11.749  18.750  0.00  0.00    +0.000 N 
ENDROOT
BRANCH  20  21
ATOM     21  C   UNL     1      -6.607  11.482  18.320  0.00  0.00    +0.000 C 
BRANCH  21  22
ATOM     22  C   UNL     1      -7.423  12.742  18.002  0.00  0.00    +0.000 C 
BRANCH  22  23
ATOM     23  C   UNL     1      -6.761  13.656  16.975  0.00  0.00    +0.000 C 
BRANCH  23  24
ATOM     24  N   UNL     1      -6.852  15.052  17.369  0.00  0.00    +0.000 N 
ATOM     25  C   UNL     1      -7.247  16.099  16.562  0.00  0.00    +0.000 A 
ATOM     26  C   UNL     1      -7.163  17.199  17.388  0.00  0.00    +0.000 A 
ATOM     27  N   UNL     1      -6.726  16.852  18.638  0.00  0.00    +0.000 NA
ATOM     28  C   UNL     1      -6.554  15.554  18.610  0.00  0.00    +0.000 A 
ENDBRANCH  23  24
ENDBRANCH  22  23
ENDBRANCH  21  22
ENDBRANCH  20  21
TORSDOF 4
ENDMDL
MODEL 7
REMARK VINA RESULT:      -6.9      2.955      5.142
REMARK  Name = 
REMARK  4 active torsions:
REMARK  status: ('A' for Active; 'I' for Inactive)
REMARK    1  A    between atoms: N_20  and  C_21
REMARK    2  A    between atoms: C_21  and  C_22
REMARK    3  A    between atoms: C_22  and  C_23
REMARK    4  A    between atoms: C_23  and  N_24
REMARK                            x       y       z     vdW  Elec       q    Type
REMARK                         _______ _______ _______ _____ _____    ______ ____
ROOT
ATOM      1  O   UNL     1       3.829   2.190  16.933  0.00  0.00    +0.000 OA
ATOM      2  C   UNL     1       3.907   3.416  16.971  0.00  0.00    +0.000 C 
ATOM      3  C   UNL     1       4.990   4.204  16.448  0.00  0.00    +0.000 A 
ATOM      4  C   UNL     1       6.107   3.746  15.765  0.00  0.00    +0.000 A 
ATOM      5  C   UNL     1       6.998   4.700  15.295  0.00  0.00    +0.000 A 
ATOM      6  C   UNL     1       6.767   6.059  15.559  0.00  0.00    +0.000 A 
ATOM      7  C   UNL     1       5.663   6.485  16.313  0.00  0.00    +0.000 A 
ATOM      8  C   UNL     1       4.736   5.550  16.756  0.00  0.00    +0.000 A 
ATOM      9  C   UNL     1       3.493   5.600  17.547  0.00  0.00    +0.000 A 
ATOM     10  C   UNL     1       2.961   4.359  17.606  0.00  0.00    +0.000 A 
ATOM     11  C   UNL     1       1.881   4.041  18.519  0.00  0.00    +0.000 A 
ATOM     12  C   UNL     1       1.380   2.746  18.616  0.00  0.00    +0.000 A 
ATOM     13  C   UNL     1       1.340   2.150  19.862  0.00  0.00    +0.000 A 
ATOM     14  C   UNL     1       1.326   2.973  20.980  0.00  0.00    +0.000 A 
ATOM     15 BR   UNL     1       1.165   2.183  22.686  0.00  0.00    +0.000 Br
ATOM     16  C   UNL     1       1.376   4.369  20.840  0.00  0.00    +0.000 A 
ATOM     17  C   UNL     1       1.733   4.899  19.598  0.00  0.00    +0.000 A 
ATOM     18  C   UNL     1       2.066   6.342  19.380  0.00  0.00    +0.000 A 
ATOM     19  O   UNL     1       1.586   7.185  20.129  0.00  0.00    +0.000 OA
ATOM     20  N   UNL     1       2.943   6.628  18.282  0.00  0.00    +0.000 N 
ENDROOT
BRANCH  20  21
ATOM     21  C   UNL     1       3.291   8.042  18.071  0.00  0.00    +0.000 C 
BRANCH  21  22
ATOM     22  C   UNL     1       2.129   8.909  17.569  0.00  0.00    +0.000 C 
BRANCH  22  23
ATOM     23  C   UNL     1       2.005  10.245  18.295  0.00  0.00    +0.000 C 
BRANCH  23  24
ATOM     24  N   UNL     1       0.637  10.493  18.721  0.00  0.00    +0.000 N 
ATOM     25  C   UNL     1      -0.505  10.112  18.047  0.00  0.00    +0.000 A 
ATOM     26  C   UNL     1      -1.527  10.576  18.847  0.00  0.00    +0.000 A 
ATOM     27  N   UNL     1      -1.042  11.224  19.951  0.00  0.00    +0.000 NA
ATOM     28  C   UNL     1       0.263  11.154  19.862  0.00  0.00    +0.000 A 
ENDBRANCH  23  24
ENDBRANCH  22  23
ENDBRANCH  21  22
ENDBRANCH  20  21
TORSDOF 4
ENDMDL
MODEL 8
REMARK VINA RESULT:      -6.8      5.729      8.607
REMARK  Name = 
REMARK  4 active torsions:
REMARK  status: ('A' for Active; 'I' for Inactive)
REMARK    1  A    between atoms: N_20  and  C_21
REMARK    2  A    between atoms: C_21  and  C_22
REMARK    3  A    between atoms: C_22  and  C_23
REMARK    4  A    between atoms: C_23  and  N_24
REMARK                            x       y       z     vdW  Elec       q    Type
REMARK                         _______ _______ _______ _____ _____    ______ ____
ROOT
ATOM      1  O   UNL     1       0.434  12.235  21.698  0.00  0.00    +0.000 OA
ATOM      2  C   UNL     1      -0.636  12.268  21.094  0.00  0.00    +0.000 C 
ATOM      3  C   UNL     1      -1.922  12.537  21.679  0.00  0.00    +0.000 A 
ATOM      4  C   UNL     1      -2.191  12.859  23.001  0.00  0.00    +0.000 A 
ATOM      5  C   UNL     1      -3.509  13.141  23.329  0.00  0.00    +0.000 A 
ATOM      6  C   UNL     1      -4.507  13.049  22.345  0.00  0.00    +0.000 A 
ATOM      7  C   UNL     1      -4.212  12.653  21.032  0.00  0.00    +0.000 A 
ATOM      8  C   UNL     1      -2.892  12.408  20.673  0.00  0.00    +0.000 A 
ATOM      9  C   UNL     1      -2.203  11.985  19.440  0.00  0.00    +0.000 A 
ATOM     10  C   UNL     1      -0.870  11.981  19.663  0.00  0.00    +0.000 A 
ATOM     11  C   UNL     1       0.052  11.370  18.726  0.00  0.00    +0.000 A 
ATOM     12  C   UNL     1       1.417  11.317  18.992  0.00  0.00    +0.000 A 
ATOM     13  C   UNL     1       2.046  10.088  18.948  0.00  0.00    +0.000 A 
ATOM     14  C   UNL     1       1.456   9.078  18.200  0.00  0.00    +0.000 A 
ATOM     15 BR   UNL     1       2.352   7.424  18.042  0.00  0.00    +0.000 Br
ATOM     16  C   UNL     1       0.243   9.301  17.530  0.00  0.00    +0.000 A 
ATOM     17  C   UNL     1      -0.499  10.437  17.862  0.00  0.00    +0.000 A 
ATOM     18  C   UNL     1      -1.910  10.662  17.412  0.00  0.00    +0.000 A 
ATOM     19  O   UNL     1      -2.299  10.133  16.378  0.00  0.00    +0.000 OA
ATOM     20  N   UNL     1      -2.712  11.503  18.254  0.00  0.00    +0.000 N 
ENDROOT
BRANCH  20  21
ATOM     21  C   UNL     1      -4.105  11.715  17.831  0.00  0.00    +0.000 C 
BRANCH  21  22
ATOM     22  C   UNL     1      -5.050  10.554  18.171  0.00  0.00    +0.000 C 
BRANCH  22  23
ATOM     23  C   UNL     1      -6.468  11.000  18.511  0.00  0.00    +0.000 C 
BRANCH  23  24
ATOM     24  N   UNL     1      -7.017  10.230  19.616  0.00  0.00    +0.000 N 
ATOM     25  C   UNL     1      -7.535  10.746  20.786  0.00  0.00    +0.000 A 
ATOM     26  C   UNL     1      -7.915   9.627  21.497  0.00  0.00    +0.000 A 
ATOM     27  N   UNL     1      -7.634   8.479  20.807  0.00  0.00    +0.000 NA
ATOM     28  C   UNL     1      -7.103   8.863  19.673  0.00  0.00    +0.000 A 
ENDBRANCH  23  24
ENDBRANCH  22  23
ENDBRANCH  21  22
ENDBRANCH  20  21
TORSDOF 4
ENDMDL
MODEL 9
REMARK VINA RESULT:      -6.8      4.282      7.958
REMARK  Name = 
REMARK  4 active torsions:
REMARK  status: ('A' for Active; 'I' for Inactive)
REMARK    1  A    between atoms: N_20  and  C_21
REMARK    2  A    between atoms: C_21  and  C_22
REMARK    3  A    between atoms: C_22  and  C_23
REMARK    4  A    between atoms: C_23  and  N_24
REMARK                            x       y       z     vdW  Elec       q    Type
REMARK                         _______ _______ _______ _____ _____    ______ ____
ROOT
ATOM      1  O   UNL     1       2.687  12.089  17.860  0.00  0.00    +0.000 OA
ATOM      2  C   UNL     1       1.997  12.277  18.859  0.00  0.00    +0.000 C 
ATOM      3  C   UNL     1       2.008  13.461  19.676  0.00  0.00    +0.000 A 
ATOM      4  C   UNL     1       2.744  14.617  19.465  0.00  0.00    +0.000 A 
ATOM      5  C   UNL     1       2.548  15.664  20.354  0.00  0.00    +0.000 A 
ATOM      6  C   UNL     1       1.665  15.504  21.435  0.00  0.00    +0.000 A 
ATOM      7  C   UNL     1       0.989  14.296  21.660  0.00  0.00    +0.000 A 
ATOM      8  C   UNL     1       1.139  13.251  20.757  0.00  0.00    +0.000 A 
ATOM      9  C   UNL     1       0.617  11.875  20.650  0.00  0.00    +0.000 A 
ATOM     10  C   UNL     1       1.056  11.330  19.494  0.00  0.00    +0.000 A 
ATOM     11  C   UNL     1       0.922   9.911  19.228  0.00  0.00    +0.000 A 
ATOM     12  C   UNL     1       1.430   9.348  18.061  0.00  0.00    +0.000 A 
ATOM     13  C   UNL     1       2.297   8.278  18.174  0.00  0.00    +0.000 A 
ATOM     14  C   UNL     1       2.252   7.519  19.336  0.00  0.00    +0.000 A 
ATOM     15 BR   UNL     1       3.354   5.992  19.466  0.00  0.00    +0.000 Br
ATOM     16  C   UNL     1       1.364   7.850  20.372  0.00  0.00    +0.000 A 
ATOM     17  C   UNL     1       0.749   9.104  20.342  0.00  0.00    +0.000 A 
ATOM     18  C   UNL     1      -0.014   9.677  21.496  0.00  0.00    +0.000 A 
ATOM     19  O   UNL     1      -0.536   8.917  22.303  0.00  0.00    +0.000 OA
ATOM     20  N   UNL     1      -0.072  11.109  21.564  0.00  0.00    +0.000 N 
ENDROOT
BRANCH  20  21
ATOM     21  C   UNL     1      -0.804  11.682  22.705  0.00  0.00    +0.000 C 
BRANCH  21  22
ATOM     22  C   UNL     1      -2.205  12.203  22.357  0.00  0.00    +0.000 C 
BRANCH  22  23
ATOM     23  C   UNL     1      -3.156  12.241  23.549  0.00  0.00    +0.000 C 
BRANCH  23  24
ATOM     24  N   UNL     1      -3.617  13.593  23.818  0.00  0.00    +0.000 N 
ATOM     25  C   UNL     1      -4.612  14.262  23.136  0.00  0.00    +0.000 A 
ATOM     26  C   UNL     1      -4.669  15.490  23.760  0.00  0.00    +0.000 A 
ATOM     27  N   UNL     1      -3.747  15.580  24.768  0.00  0.00    +0.000 NA
ATOM     28  C   UNL     1      -3.130  14.425  24.794  0.00  0.00    +0.000 A 
ENDBRANCH  23  24
ENDBRANCH  22  23
ENDBRANCH  21  22
ENDBRANCH  20  21
TORSDOF 4
ENDMDL
