MODEL 1
REMARK VINA RESULT:      -7.4      0.000      0.000
REMARK  Name = 
REMARK  5 active torsions:
REMARK  status: ('A' for Active; 'I' for Inactive)
REMARK    1  A    between atoms: C_1  and  N_2
REMARK    2  A    between atoms: N_5  and  C_6
REMARK    3  A    between atoms: C_6  and  C_7
REMARK    4  A    between atoms: C_16  and  O_17
REMARK    5  A    between atoms: C_18  and  C_19
REMARK                            x       y       z     vdW  Elec       q    Type
REMARK                         _______ _______ _______ _____ _____    ______ ____
ROOT
ATOM      1  C   UNL     1       1.437   9.081  18.818  0.00  0.00    +0.000 C 
ATOM      2  O   UNL     1       1.465   9.993  17.985  0.00  0.00    +0.000 OA
ATOM      3  N   UNL     1       2.227   7.939  18.687  0.00  0.00    +0.000 N 
ATOM      4  C   UNL     1       2.338   6.948  19.749  0.00  0.00    +0.000 C 
ATOM      5  C   UNL     1       2.681   5.557  19.247  0.00  0.00    +0.000 C 
ATOM      6  C   UNL     1       3.648   5.507  18.097  0.00  0.00    +0.000 A 
ATOM      7  C   UNL     1       3.952   6.685  17.383  0.00  0.00    +0.000 A 
ATOM      8  C   UNL     1       4.860   6.626  16.311  0.00  0.00    +0.000 A 
ATOM      9  C   UNL     1       5.439   5.416  15.927  0.00  0.00    +0.000 A 
ATOM     10  C   UNL     1       5.114   4.247  16.615  0.00  0.00    +0.000 A 
ATOM     11  C   UNL     1       4.219   4.279  17.689  0.00  0.00    +0.000 A 
ATOM     12  C   UNL     1       3.345   8.019  17.756  0.00  0.00    +0.000 C 
ENDROOT
BRANCH  10  13
ATOM     13  O   UNL     1       5.661   3.058  16.220  0.00  0.00    +0.000 OA
ATOM     14  H   UNL     1       5.964   3.133  15.299  0.00  0.00    +0.000 HD
ENDBRANCH  10  13
BRANCH  11  15
ATOM     15  C   UNL     1       3.886   2.994  18.359  0.00  0.00    +0.000 C 
ATOM     16  O   UNL     1       3.299   2.074  17.809  0.00  0.00    +0.000 OA
ENDBRANCH  11  15
BRANCH   1  17
ATOM     17  C   UNL     1       0.516   9.204  20.049  0.00  0.00    +0.000 C 
BRANCH  17  22
ATOM     18  C   UNL     1      -2.164  11.686  23.346  0.00  0.00    +0.000 C 
ATOM     19  N   UNL     1      -0.832  11.310  22.894  0.00  0.00    +0.000 NA
ATOM     20  C   UNL     1      -0.557  11.823  21.540  0.00  0.00    +0.000 C 
ATOM     21  C   UNL     1       0.857  11.425  21.060  0.00  0.00    +0.000 C 
ATOM     22  N   UNL     1       1.160   9.979  21.133  0.00  0.00    +0.000 NA
ATOM     23  C   UNL     1       0.784   9.470  22.468  0.00  0.00    +0.000 C 
ATOM     24  C   UNL     1      -0.643   9.850  22.921  0.00  0.00    +0.000 C 
ENDBRANCH  17  22
ENDBRANCH   1  17
TORSDOF 4
ENDMDL
MODEL 2
REMARK VINA RESULT:      -7.3      1.953      2.873
REMARK  Name = 
REMARK  5 active torsions:
REMARK  status: ('A' for Active; 'I' for Inactive)
REMARK    1  A    between atoms: C_1  and  N_2
REMARK    2  A    between atoms: N_5  and  C_6
REMARK    3  A    between atoms: C_6  and  C_7
REMARK    4  A    between atoms: C_16  and  O_17
REMARK    5  A    between atoms: C_18  and  C_19
REMARK                            x       y       z     vdW  Elec       q    Type
REMARK                         _______ _______ _______ _____ _____    ______ ____
ROOT
ATOM      1  C   UNL     1       1.739   9.144  18.578  0.00  0.00    +0.000 C 
ATOM      2  O   UNL     1       1.928   9.499  17.410  0.00  0.00    +0.000 OA
ATOM      3  N   UNL     1       1.943   7.827  18.990  0.00  0.00    +0.000 N 
ATOM      4  C   UNL     1       1.902   7.439  20.393  0.00  0.00    +0.000 C 
ATOM      5  C   UNL     1       1.520   5.986  20.609  0.00  0.00    +0.000 C 
ATOM      6  C   UNL     1       2.070   5.017  19.599  0.00  0.00    +0.000 A 
ATOM      7  C   UNL     1       2.638   5.499  18.401  0.00  0.00    +0.000 A 
ATOM      8  C   UNL     1       3.151   4.584  17.465  0.00  0.00    +0.000 A 
ATOM      9  C   UNL     1       3.079   3.209  17.692  0.00  0.00    +0.000 A 
ATOM     10  C   UNL     1       2.490   2.734  18.864  0.00  0.00    +0.000 A 
ATOM     11  C   UNL     1       1.977   3.622  19.814  0.00  0.00    +0.000 A 
ATOM     12  C   UNL     1       2.733   6.979  18.106  0.00  0.00    +0.000 C 
ENDROOT
BRANCH  10  13
ATOM     13  O   UNL     1       2.396   1.386  19.071  0.00  0.00    +0.000 OA
ATOM     14  H   UNL     1       2.901   0.917  18.386  0.00  0.00    +0.000 HD
ENDBRANCH  10  13
BRANCH  11  15
ATOM     15  C   UNL     1       1.330   3.053  21.025  0.00  0.00    +0.000 C 
ATOM     16  O   UNL     1       1.946   2.527  21.940  0.00  0.00    +0.000 OA
ENDBRANCH  11  15
BRANCH   1  17
ATOM     17  C   UNL     1       1.279  10.181  19.624  0.00  0.00    +0.000 C 
BRANCH  17  22
ATOM     18  C   UNL     1      -1.475  14.197  20.327  0.00  0.00    +0.000 C 
ATOM     19  N   UNL     1      -1.440  12.744  20.242  0.00  0.00    +0.000 NA
ATOM     20  C   UNL     1      -0.593  12.162  21.298  0.00  0.00    +0.000 C 
ATOM     21  C   UNL     1      -0.557  10.619  21.208  0.00  0.00    +0.000 C 
ATOM     22  N   UNL     1      -0.174  10.077  19.886  0.00  0.00    +0.000 NA
ATOM     23  C   UNL     1      -0.968  10.749  18.837  0.00  0.00    +0.000 C 
ATOM     24  C   UNL     1      -0.970  12.291  18.922  0.00  0.00    +0.000 C 
ENDBRANCH  17  22
ENDBRANCH   1  17
TORSDOF 4
ENDMDL
MODEL 3
REMARK VINA RESULT:      -7.2      1.738      2.344
REMARK  Name = 
REMARK  5 active torsions:
REMARK  status: ('A' for Active; 'I' for Inactive)
REMARK    1  A    between atoms: C_1  and  N_2
REMARK    2  A    between atoms: N_5  and  C_6
REMARK    3  A    between atoms: C_6  and  C_7
REMARK    4  A    between atoms: C_16  and  O_17
REMARK    5  A    between atoms: C_18  and  C_19
REMARK                            x       y       z     vdW  Elec       q    Type
REMARK                         _______ _______ _______ _____ _____    ______ ____
ROOT
ATOM      1  C   UNL     1       1.588   9.023  18.570  0.00  0.00    +0.000 C 
ATOM      2  O   UNL     1       1.838   9.471  17.446  0.00  0.00    +0.000 OA
ATOM      3  N   UNL     1       2.056   7.777  18.987  0.00  0.00    +0.000 N 
ATOM      4  C   UNL     1       1.924   7.323  20.365  0.00  0.00    +0.000 C 
ATOM      5  C   UNL     1       1.892   5.811  20.503  0.00  0.00    +0.000 C 
ATOM      6  C   UNL     1       2.797   5.058  19.569  0.00  0.00    +0.000 A 
ATOM      7  C   UNL     1       3.383   5.723  18.471  0.00  0.00    +0.000 A 
ATOM      8  C   UNL     1       4.230   5.009  17.606  0.00  0.00    +0.000 A 
ATOM      9  C   UNL     1       4.474   3.648  17.800  0.00  0.00    +0.000 A 
ATOM     10  C   UNL     1       3.869   2.987  18.869  0.00  0.00    +0.000 A 
ATOM     11  C   UNL     1       3.027   3.674  19.748  0.00  0.00    +0.000 A 
ATOM     12  C   UNL     1       3.145   7.194  18.214  0.00  0.00    +0.000 C 
ENDROOT
BRANCH  10  13
ATOM     13  O   UNL     1       4.087   1.648  19.042  0.00  0.00    +0.000 OA
ATOM     14  H   UNL     1       3.562   1.329  19.795  0.00  0.00    +0.000 HD
ENDBRANCH  10  13
BRANCH  11  15
ATOM     15  C   UNL     1       2.385   2.905  20.846  0.00  0.00    +0.000 C 
ATOM     16  O   UNL     1       2.982   2.506  21.835  0.00  0.00    +0.000 OA
ENDBRANCH  11  15
BRANCH   1  17
ATOM     17  C   UNL     1       0.747   9.863  19.553  0.00  0.00    +0.000 C 
BRANCH  17  22
ATOM     18  C   UNL     1      -2.263  13.051  21.787  0.00  0.00    +0.000 C 
ATOM     19  N   UNL     1      -1.244  12.848  20.766  0.00  0.00    +0.000 NA
ATOM     20  C   UNL     1      -1.703  11.912  19.725  0.00  0.00    +0.000 C 
ATOM     21  C   UNL     1      -0.622  11.697  18.641  0.00  0.00    +0.000 C 
ATOM     22  N   UNL     1       0.704  11.287  19.151  0.00  0.00    +0.000 NA
ATOM     23  C   UNL     1       1.096  12.180  20.260  0.00  0.00    +0.000 C 
ATOM     24  C   UNL     1       0.017  12.361  21.351  0.00  0.00    +0.000 C 
ENDBRANCH  17  22
ENDBRANCH   1  17
TORSDOF 4
ENDMDL
MODEL 4
REMARK VINA RESULT:      -7.2      2.082      2.821
REMARK  Name = 
REMARK  5 active torsions:
REMARK  status: ('A' for Active; 'I' for Inactive)
REMARK    1  A    between atoms: C_1  and  N_2
REMARK    2  A    between atoms: N_5  and  C_6
REMARK    3  A    between atoms: C_6  and  C_7
REMARK    4  A    between atoms: C_16  and  O_17
REMARK    5  A    between atoms: C_18  and  C_19
REMARK                            x       y       z     vdW  Elec       q    Type
REMARK                         _______ _______ _______ _____ _____    ______ ____
ROOT
ATOM      1  C   UNL     1       1.691   9.086  18.622  0.00  0.00    +0.000 C 
ATOM      2  O   UNL     1       1.879   9.458  17.459  0.00  0.00    +0.000 OA
ATOM      3  N   UNL     1       1.906   7.766  19.017  0.00  0.00    +0.000 N 
ATOM      4  C   UNL     1       1.865   7.360  20.416  0.00  0.00    +0.000 C 
ATOM      5  C   UNL     1       1.498   5.900  20.612  0.00  0.00    +0.000 C 
ATOM      6  C   UNL     1       2.061   4.950  19.592  0.00  0.00    +0.000 A 
ATOM      7  C   UNL     1       2.627   5.453  18.402  0.00  0.00    +0.000 A 
ATOM      8  C   UNL     1       3.153   4.555  17.456  0.00  0.00    +0.000 A 
ATOM      9  C   UNL     1       3.094   3.177  17.666  0.00  0.00    +0.000 A 
ATOM     10  C   UNL     1       2.506   2.681  18.830  0.00  0.00    +0.000 A 
ATOM     11  C   UNL     1       1.982   3.552  19.789  0.00  0.00    +0.000 A 
ATOM     12  C   UNL     1       2.708   6.938  18.125  0.00  0.00    +0.000 C 
ENDROOT
BRANCH  10  13
ATOM     13  O   UNL     1       2.426   1.329  19.020  0.00  0.00    +0.000 OA
ATOM     14  H   UNL     1       1.495   1.051  18.970  0.00  0.00    +0.000 HD
ENDBRANCH  10  13
BRANCH  11  15
ATOM     15  C   UNL     1       1.337   2.961  20.991  0.00  0.00    +0.000 C 
ATOM     16  O   UNL     1       1.958   2.511  21.942  0.00  0.00    +0.000 OA
ENDBRANCH  11  15
BRANCH   1  17
ATOM     17  C   UNL     1       1.217  10.105  19.679  0.00  0.00    +0.000 C 
BRANCH  17  22
ATOM     18  C   UNL     1      -0.546  13.808  22.398  0.00  0.00    +0.000 C 
ATOM     19  N   UNL     1      -0.299  13.290  21.059  0.00  0.00    +0.000 NA
ATOM     20  C   UNL     1      -1.056  12.050  20.813  0.00  0.00    +0.000 C 
ATOM     21  C   UNL     1      -0.794  11.500  19.391  0.00  0.00    +0.000 C 
ATOM     22  N   UNL     1       0.631  11.309  19.047  0.00  0.00    +0.000 NA
ATOM     23  C   UNL     1       1.385  12.531  19.396  0.00  0.00    +0.000 C 
ATOM     24  C   UNL     1       1.136  13.050  20.829  0.00  0.00    +0.000 C 
ENDBRANCH  17  22
ENDBRANCH   1  17
TORSDOF 4
ENDMDL
MODEL 5
REMARK VINA RESULT:      -7.0      0.909      1.220
REMARK  Name = 
REMARK  5 active torsions:
REMARK  status: ('A' for Active; 'I' for Inactive)
REMARK    1  A    between atoms: C_1  and  N_2
REMARK    2  A    between atoms: N_5  and  C_6
REMARK    3  A    between atoms: C_6  and  C_7
REMARK    4  A    between atoms: C_16  and  O_17
REMARK    5  A    between atoms: C_18  and  C_19
REMARK                            x       y       z     vdW  Elec       q    Type
REMARK                         _______ _______ _______ _____ _____    ______ ____
ROOT
ATOM      1  C   UNL     1       1.556   9.069  18.550  0.00  0.00    +0.000 C 
ATOM      2  O   UNL     1       1.873   9.740  17.563  0.00  0.00    +0.000 OA
ATOM      3  N   UNL     1       2.041   7.776  18.749  0.00  0.00    +0.000 N 
ATOM      4  C   UNL     1       1.822   7.049  19.992  0.00  0.00    +0.000 C 
ATOM      5  C   UNL     1       1.841   5.541  19.823  0.00  0.00    +0.000 C 
ATOM      6  C   UNL     1       2.846   5.015  18.837  0.00  0.00    +0.000 A 
ATOM      7  C   UNL     1       3.487   5.902  17.947  0.00  0.00    +0.000 A 
ATOM      8  C   UNL     1       4.427   5.399  17.030  0.00  0.00    +0.000 A 
ATOM      9  C   UNL     1       4.711   4.034  16.970  0.00  0.00    +0.000 A 
ATOM     10  C   UNL     1       4.053   3.155  17.830  0.00  0.00    +0.000 A 
ATOM     11  C   UNL     1       3.118   3.629  18.756  0.00  0.00    +0.000 A 
ATOM     12  C   UNL     1       3.209   7.389  17.969  0.00  0.00    +0.000 C 
ENDROOT
BRANCH  10  13
ATOM     13  O   UNL     1       4.312   1.814  17.751  0.00  0.00    +0.000 OA
ATOM     14  H   UNL     1       3.840   1.438  16.988  0.00  0.00    +0.000 HD
ENDBRANCH  10  13
BRANCH  11  15
ATOM     15  C   UNL     1       2.426   2.638  19.620  0.00  0.00    +0.000 C 
ATOM     16  O   UNL     1       1.680   1.769  19.194  0.00  0.00    +0.000 OA
ENDBRANCH  11  15
BRANCH   1  17
ATOM     17  C   UNL     1       0.607   9.671  19.608  0.00  0.00    +0.000 C 
BRANCH  17  22
ATOM     18  C   UNL     1      -1.722  12.048  23.233  0.00  0.00    +0.000 C 
ATOM     19  N   UNL     1      -0.442  11.645  22.666  0.00  0.00    +0.000 NA
ATOM     20  C   UNL     1      -0.236  12.232  21.330  0.00  0.00    +0.000 C 
ATOM     21  C   UNL     1       1.123  11.805  20.728  0.00  0.00    +0.000 C 
ATOM     22  N   UNL     1       1.360  10.346  20.689  0.00  0.00    +0.000 NA
ATOM     23  C   UNL     1       1.051   9.768  22.013  0.00  0.00    +0.000 C 
ATOM     24  C   UNL     1      -0.323  10.179  22.588  0.00  0.00    +0.000 C 
ENDBRANCH  17  22
ENDBRANCH   1  17
TORSDOF 4
ENDMDL
MODEL 6
REMARK VINA RESULT:      -7.0      2.404      8.436
REMARK  Name = 
REMARK  5 active torsions:
REMARK  status: ('A' for Active; 'I' for Inactive)
REMARK    1  A    between atoms: C_1  and  N_2
REMARK    2  A    between atoms: N_5  and  C_6
REMARK    3  A    between atoms: C_6  and  C_7
REMARK    4  A    between atoms: C_16  and  O_17
REMARK    5  A    between atoms: C_18  and  C_19
REMARK                            x       y       z     vdW  Elec       q    Type
REMARK                         _______ _______ _______ _____ _____    ______ ____
ROOT
ATOM      1  C   UNL     1       2.634   6.067  19.138  0.00  0.00    +0.000 C 
ATOM      2  O   UNL     1       2.608   5.245  20.059  0.00  0.00    +0.000 OA
ATOM      3  N   UNL     1       2.078   7.340  19.270  0.00  0.00    +0.000 N 
ATOM      4  C   UNL     1       2.265   8.374  18.262  0.00  0.00    +0.000 C 
ATOM      5  C   UNL     1       1.148   9.402  18.236  0.00  0.00    +0.000 C 
ATOM      6  C   UNL     1       0.590   9.783  19.579  0.00  0.00    +0.000 A 
ATOM      7  C   UNL     1       0.900   9.005  20.714  0.00  0.00    +0.000 A 
ATOM      8  C   UNL     1       0.374   9.372  21.965  0.00  0.00    +0.000 A 
ATOM      9  C   UNL     1      -0.472  10.474  22.093  0.00  0.00    +0.000 A 
ATOM     10  C   UNL     1      -0.802  11.224  20.963  0.00  0.00    +0.000 A 
ATOM     11  C   UNL     1      -0.287  10.885  19.708  0.00  0.00    +0.000 A 
ATOM     12  C   UNL     1       1.806   7.797  20.626  0.00  0.00    +0.000 C 
ENDROOT
BRANCH  10  13
ATOM     13  O   UNL     1      -1.653  12.287  21.086  0.00  0.00    +0.000 OA
ATOM     14  H   UNL     1      -2.498  11.984  21.458  0.00  0.00    +0.000 HD
ENDBRANCH  10  13
BRANCH  11  15
ATOM     15  C   UNL     1      -0.704  11.702  18.538  0.00  0.00    +0.000 C 
ATOM     16  O   UNL     1      -1.859  11.789  18.148  0.00  0.00    +0.000 OA
ENDBRANCH  11  15
BRANCH   1  17
ATOM     17  C   UNL     1       3.310   5.692  17.803  0.00  0.00    +0.000 C 
BRANCH  17  22
ATOM     18  C   UNL     1       6.195   4.165  14.120  0.00  0.00    +0.000 C 
ATOM     19  N   UNL     1       6.127   4.748  15.453  0.00  0.00    +0.000 NA
ATOM     20  C   UNL     1       5.504   3.822  16.416  0.00  0.00    +0.000 C 
ATOM     21  C   UNL     1       5.433   4.440  17.831  0.00  0.00    +0.000 C 
ATOM     22  N   UNL     1       4.785   5.768  17.903  0.00  0.00    +0.000 NA
ATOM     23  C   UNL     1       5.360   6.645  16.862  0.00  0.00    +0.000 C 
ATOM     24  C   UNL     1       5.396   6.026  15.448  0.00  0.00    +0.000 C 
ENDBRANCH  17  22
ENDBRANCH   1  17
TORSDOF 4
ENDMDL
MODEL 7
REMARK VINA RESULT:      -6.9      2.496      8.457
REMARK  Name = 
REMARK  5 active torsions:
REMARK  status: ('A' for Active; 'I' for Inactive)
REMARK    1  A    between atoms: C_1  and  N_2
REMARK    2  A    between atoms: N_5  and  C_6
REMARK    3  A    between atoms: C_6  and  C_7
REMARK    4  A    between atoms: C_16  and  O_17
REMARK    5  A    between atoms: C_18  and  C_19
REMARK                            x       y       z     vdW  Elec       q    Type
REMARK                         _______ _______ _______ _____ _____    ______ ____
ROOT
ATOM      1  C   UNL     1       2.402   6.253  19.682  0.00  0.00    +0.000 C 
ATOM      2  O   UNL     1       2.314   5.500  20.657  0.00  0.00    +0.000 OA
ATOM      3  N   UNL     1       1.858   7.537  19.691  0.00  0.00    +0.000 N 
ATOM      4  C   UNL     1       2.113   8.494  18.623  0.00  0.00    +0.000 C 
ATOM      5  C   UNL     1       1.014   9.529  18.462  0.00  0.00    +0.000 C 
ATOM      6  C   UNL     1       0.389  10.012  19.741  0.00  0.00    +0.000 A 
ATOM      7  C   UNL     1       0.626   9.315  20.944  0.00  0.00    +0.000 A 
ATOM      8  C   UNL     1       0.038   9.777  22.135  0.00  0.00    +0.000 A 
ATOM      9  C   UNL     1      -0.798  10.895  22.136  0.00  0.00    +0.000 A 
ATOM     10  C   UNL     1      -1.055  11.564  20.939  0.00  0.00    +0.000 A 
ATOM     11  C   UNL     1      -0.478  11.129  19.742  0.00  0.00    +0.000 A 
ATOM     12  C   UNL     1       1.519   8.095  20.994  0.00  0.00    +0.000 C 
ENDROOT
BRANCH  10  13
ATOM     13  O   UNL     1      -1.896  12.642  20.938  0.00  0.00    +0.000 OA
ATOM     14  H   UNL     1      -2.467  12.605  20.152  0.00  0.00    +0.000 HD
ENDBRANCH  10  13
BRANCH  11  15
ATOM     15  C   UNL     1      -0.819  11.863  18.495  0.00  0.00    +0.000 C 
ATOM     16  O   UNL     1      -0.562  13.043  18.311  0.00  0.00    +0.000 OA
ENDBRANCH  11  15
BRANCH   1  17
ATOM     17  C   UNL     1       3.144   5.776  18.417  0.00  0.00    +0.000 C 
BRANCH  17  22
ATOM     18  C   UNL     1       7.008   4.748  15.547  0.00  0.00    +0.000 C 
ATOM     19  N   UNL     1       6.238   4.386  16.729  0.00  0.00    +0.000 NA
ATOM     20  C   UNL     1       4.858   4.004  16.377  0.00  0.00    +0.000 C 
ATOM     21  C   UNL     1       4.041   3.618  17.632  0.00  0.00    +0.000 C 
ATOM     22  N   UNL     1       4.034   4.630  18.710  0.00  0.00    +0.000 NA
ATOM     23  C   UNL     1       5.420   5.068  18.975  0.00  0.00    +0.000 C 
ATOM     24  C   UNL     1       6.215   5.479  17.715  0.00  0.00    +0.000 C 
ENDBRANCH  17  22
ENDBRANCH   1  17
TORSDOF 4
ENDMDL
MODEL 8
REMARK VINA RESULT:      -6.9      1.818      2.946
REMARK  Name = 
REMARK  5 active torsions:
REMARK  status: ('A' for Active; 'I' for Inactive)
REMARK    1  A    between atoms: C_1  and  N_2
REMARK    2  A    between atoms: N_5  and  C_6
REMARK    3  A    between atoms: C_6  and  C_7
REMARK    4  A    between atoms: C_16  and  O_17
REMARK    5  A    between atoms: C_18  and  C_19
REMARK                            x       y       z     vdW  Elec       q    Type
REMARK                         _______ _______ _______ _____ _____    ______ ____
ROOT
ATOM      1  C   UNL     1       1.458   8.505  20.577  0.00  0.00    +0.000 C 
ATOM      2  O   UNL     1       1.239   8.059  21.708  0.00  0.00    +0.000 OA
ATOM      3  N   UNL     1       2.090   7.743  19.594  0.00  0.00    +0.000 N 
ATOM      4  C   UNL     1       2.187   8.191  18.211  0.00  0.00    +0.000 C 
ATOM      5  C   UNL     1       3.375   7.607  17.468  0.00  0.00    +0.000 C 
ATOM      6  C   UNL     1       3.704   6.177  17.798  0.00  0.00    +0.000 A 
ATOM      7  C   UNL     1       3.120   5.566  18.927  0.00  0.00    +0.000 A 
ATOM      8  C   UNL     1       3.433   4.228  19.225  0.00  0.00    +0.000 A 
ATOM      9  C   UNL     1       4.334   3.509  18.438  0.00  0.00    +0.000 A 
ATOM     10  C   UNL     1       4.934   4.126  17.340  0.00  0.00    +0.000 A 
ATOM     11  C   UNL     1       4.635   5.454  17.018  0.00  0.00    +0.000 A 
ATOM     12  C   UNL     1       2.142   6.304  19.815  0.00  0.00    +0.000 C 
ENDROOT
BRANCH  10  13
ATOM     13  O   UNL     1       5.837   3.429  16.587  0.00  0.00    +0.000 OA
ATOM     14  H   UNL     1       6.656   3.306  17.096  0.00  0.00    +0.000 HD
ENDBRANCH  10  13
BRANCH  11  15
ATOM     15  C   UNL     1       5.334   6.065  15.857  0.00  0.00    +0.000 C 
ATOM     16  O   UNL     1       6.550   6.134  15.756  0.00  0.00    +0.000 OA
ENDBRANCH  11  15
BRANCH   1  17
ATOM     17  C   UNL     1       1.013   9.940  20.225  0.00  0.00    +0.000 C 
BRANCH  17  22
ATOM     18  C   UNL     1      -1.029  14.411  19.999  0.00  0.00    +0.000 C 
ATOM     19  N   UNL     1      -1.236  12.988  20.228  0.00  0.00    +0.000 NA
ATOM     20  C   UNL     1      -0.478  12.515  21.400  0.00  0.00    +0.000 C 
ATOM     21  C   UNL     1      -0.698  11.004  21.645  0.00  0.00    +0.000 C 
ATOM     22  N   UNL     1      -0.432  10.136  20.477  0.00  0.00    +0.000 NA
ATOM     23  C   UNL     1      -1.124  10.688  19.294  0.00  0.00    +0.000 C 
ATOM     24  C   UNL     1      -0.870  12.191  19.045  0.00  0.00    +0.000 C 
ENDBRANCH  17  22
ENDBRANCH   1  17
TORSDOF 4
ENDMDL
MODEL 9
REMARK VINA RESULT:      -6.9      2.241      3.600
REMARK  Name = 
REMARK  5 active torsions:
REMARK  status: ('A' for Active; 'I' for Inactive)
REMARK    1  A    between atoms: C_1  and  N_2
REMARK    2  A    between atoms: N_5  and  C_6
REMARK    3  A    between atoms: C_6  and  C_7
REMARK    4  A    between atoms: C_16  and  O_17
REMARK    5  A    between atoms: C_18  and  C_19
REMARK                            x       y       z     vdW  Elec       q    Type
REMARK                         _______ _______ _______ _____ _____    ______ ____
ROOT
ATOM      1  C   UNL     1       1.087   8.548  20.657  0.00  0.00    +0.000 C 
ATOM      2  O   UNL     1       0.436   8.492  21.706  0.00  0.00    +0.000 OA
ATOM      3  N   UNL     1       1.773   7.442  20.156  0.00  0.00    +0.000 N 
ATOM      4  C   UNL     1       2.387   7.445  18.836  0.00  0.00    +0.000 C 
ATOM      5  C   UNL     1       3.559   6.487  18.711  0.00  0.00    +0.000 C 
ATOM      6  C   UNL     1       3.408   5.183  19.443  0.00  0.00    +0.000 A 
ATOM      7  C   UNL     1       2.380   5.029  20.397  0.00  0.00    +0.000 A 
ATOM      8  C   UNL     1       2.247   3.804  21.074  0.00  0.00    +0.000 A 
ATOM      9  C   UNL     1       3.134   2.753  20.837  0.00  0.00    +0.000 A 
ATOM     10  C   UNL     1       4.168   2.919  19.916  0.00  0.00    +0.000 A 
ATOM     11  C   UNL     1       4.319   4.124  19.224  0.00  0.00    +0.000 A 
ATOM     12  C   UNL     1       1.398   6.140  20.694  0.00  0.00    +0.000 C 
ENDROOT
BRANCH  10  13
ATOM     13  O   UNL     1       5.052   1.897  19.706  0.00  0.00    +0.000 OA
ATOM     14  H   UNL     1       4.708   1.083  20.112  0.00  0.00    +0.000 HD
ENDBRANCH  10  13
BRANCH  11  15
ATOM     15  C   UNL     1       5.462   4.250  18.282  0.00  0.00    +0.000 C 
ATOM     16  O   UNL     1       6.630   4.303  18.635  0.00  0.00    +0.000 OA
ENDBRANCH  11  15
BRANCH   1  17
ATOM     17  C   UNL     1       1.138   9.870  19.863  0.00  0.00    +0.000 C 
BRANCH  17  22
ATOM     18  C   UNL     1       1.393  14.696  18.937  0.00  0.00    +0.000 C 
ATOM     19  N   UNL     1       0.613  13.604  19.503  0.00  0.00    +0.000 NA
ATOM     20  C   UNL     1       1.315  12.970  20.633  0.00  0.00    +0.000 C 
ATOM     21  C   UNL     1       0.487  11.811  21.235  0.00  0.00    +0.000 C 
ATOM     22  N   UNL     1       0.047  10.786  20.264  0.00  0.00    +0.000 NA
ATOM     23  C   UNL     1      -0.564  11.453  19.096  0.00  0.00    +0.000 C 
ATOM     24  C   UNL     1       0.288  12.588  18.487  0.00  0.00    +0.000 C 
ENDBRANCH  17  22
ENDBRANCH   1  17
TORSDOF 4
ENDMDL
