MODEL 1
REMARK VINA RESULT:      -8.6      0.000      0.000
REMARK  Name = 
REMARK  6 active torsions:
REMARK  status: ('A' for Active; 'I' for Inactive)
REMARK    1  A    between atoms: C_1  and  C_2
REMARK    2  A    between atoms: C_2  and  C_3
REMARK    3  A    between atoms: C_4  and  C_5
REMARK    4  A    between atoms: C_5  and  N_6
REMARK    5  A    between atoms: N_14  and  C_15
REMARK    6  A    between atoms: C_20  and  C_21
REMARK                            x       y       z     vdW  Elec       q    Type
REMARK                         _______ _______ _______ _____ _____    ______ ____
ROOT
ATOM      1  N   UNL     1       6.289   4.386  16.378  0.00  0.00    +0.000 N 
ATOM      2  C   UNL     1       4.954   4.884  16.591  0.00  0.00    +0.000 C 
ATOM      3  C   UNL     1       5.066   5.792  17.831  0.00  0.00    +0.000 C 
ATOM      4  C   UNL     1       3.868   5.632  18.795  0.00  0.00    +0.000 C 
ATOM      5  C   UNL     1       2.582   6.239  18.240  0.00  0.00    +0.000 C 
ATOM      6  N   UNL     1       2.812   7.632  17.871  0.00  0.00    +0.000 N 
ATOM      7  C   UNL     1       2.071   8.731  18.285  0.00  0.00    +0.000 C 
ATOM      8  O   UNL     1       2.159   9.815  17.715  0.00  0.00    +0.000 OA
ATOM      9  N   UNL     1       1.302   8.522  19.412  0.00  0.00    +0.000 N 
ATOM     10  C   UNL     1       3.860   7.842  16.880  0.00  0.00    +0.000 C 
ATOM     11  C   UNL     1       5.186   7.277  17.401  0.00  0.00    +0.000 C 
ATOM     12  C   UNL     1       6.364   5.315  18.524  0.00  0.00    +0.000 C 
ATOM     13  C   UNL     1       7.108   4.534  17.477  0.00  0.00    +0.000 C 
ATOM     14  O   UNL     1       8.251   4.125  17.596  0.00  0.00    +0.000 OA
ATOM     15  H   UNL     1       1.725   7.889  20.072  0.00  0.00    +0.000 HD
ENDROOT
BRANCH   9  16
ATOM     16  C   UNL     1       0.491   9.544  19.963  0.00  0.00    +0.000 A 
ATOM     17  C   UNL     1      -0.369  10.278  19.141  0.00  0.00    +0.000 A 
ATOM     18  C   UNL     1      -1.183  11.282  19.666  0.00  0.00    +0.000 A 
ATOM     19  C   UNL     1      -1.148  11.553  21.029  0.00  0.00    +0.000 A 
ATOM     20  C   UNL     1      -0.297  10.826  21.862  0.00  0.00    +0.000 A 
ATOM     21  C   UNL     1       0.534   9.817  21.342  0.00  0.00    +0.000 A 
ATOM     22  C   UNL     1       1.483   9.112  22.271  0.00  0.00    +0.000 C 
ENDBRANCH   9  16
BRANCH   1  23
ATOM     23  C   UNL     1       6.783   3.999  15.074  0.00  0.00    +0.000 C 
BRANCH  23  27
ATOM     24  C   UNL     1       4.590   3.376  11.912  0.00  0.00    +0.000 C 
ATOM     25  C   UNL     1       5.798   3.675  12.755  0.00  0.00    +0.000 C 
ATOM     26  C   UNL     1       7.127   3.728  12.056  0.00  0.00    +0.000 C 
ATOM     27  C   UNL     1       5.669   3.839  14.088  0.00  0.00    +0.000 C 
ENDBRANCH  23  27
ENDBRANCH   1  23
TORSDOF 3
ENDMDL
MODEL 2
REMARK VINA RESULT:      -8.2      0.406      1.389
REMARK  Name = 
REMARK  6 active torsions:
REMARK  status: ('A' for Active; 'I' for Inactive)
REMARK    1  A    between atoms: C_1  and  C_2
REMARK    2  A    between atoms: C_2  and  C_3
REMARK    3  A    between atoms: C_4  and  C_5
REMARK    4  A    between atoms: C_5  and  N_6
REMARK    5  A    between atoms: N_14  and  C_15
REMARK    6  A    between atoms: C_20  and  C_21
REMARK                            x       y       z     vdW  Elec       q    Type
REMARK                         _______ _______ _______ _____ _____    ______ ____
ROOT
ATOM      1  N   UNL     1       6.259   4.441  16.357  0.00  0.00    +0.000 N 
ATOM      2  C   UNL     1       4.935   4.981  16.534  0.00  0.00    +0.000 C 
ATOM      3  C   UNL     1       5.035   5.860  17.795  0.00  0.00    +0.000 C 
ATOM      4  C   UNL     1       3.799   5.723  18.714  0.00  0.00    +0.000 C 
ATOM      5  C   UNL     1       2.555   6.386  18.129  0.00  0.00    +0.000 C 
ATOM      6  N   UNL     1       2.846   7.777  17.797  0.00  0.00    +0.000 N 
ATOM      7  C   UNL     1       2.128   8.893  18.207  0.00  0.00    +0.000 C 
ATOM      8  O   UNL     1       2.274   9.984  17.663  0.00  0.00    +0.000 OA
ATOM      9  N   UNL     1       1.315   8.689  19.303  0.00  0.00    +0.000 N 
ATOM     10  C   UNL     1       3.934   7.969  16.847  0.00  0.00    +0.000 C 
ATOM     11  C   UNL     1       5.221   7.348  17.400  0.00  0.00    +0.000 C 
ATOM     12  C   UNL     1       6.291   5.325  18.522  0.00  0.00    +0.000 C 
ATOM     13  C   UNL     1       7.044   4.539  17.485  0.00  0.00    +0.000 C 
ATOM     14  O   UNL     1       8.167   4.088  17.634  0.00  0.00    +0.000 OA
ATOM     15  H   UNL     1       1.692   8.029  19.964  0.00  0.00    +0.000 HD
ENDROOT
BRANCH   9  16
ATOM     16  C   UNL     1       0.520   9.728  19.848  0.00  0.00    +0.000 A 
ATOM     17  C   UNL     1       0.817  10.250  21.110  0.00  0.00    +0.000 A 
ATOM     18  C   UNL     1       0.053  11.280  21.659  0.00  0.00    +0.000 A 
ATOM     19  C   UNL     1      -1.014  11.805  20.939  0.00  0.00    +0.000 A 
ATOM     20  C   UNL     1      -1.319  11.295  19.676  0.00  0.00    +0.000 A 
ATOM     21  C   UNL     1      -0.561  10.251  19.116  0.00  0.00    +0.000 A 
ATOM     22  C   UNL     1      -0.975   9.691  17.783  0.00  0.00    +0.000 C 
ENDBRANCH   9  16
BRANCH   1  23
ATOM     23  C   UNL     1       6.784   4.062  15.062  0.00  0.00    +0.000 C 
BRANCH  23  27
ATOM     24  C   UNL     1       4.655   3.309  11.884  0.00  0.00    +0.000 C 
ATOM     25  C   UNL     1       5.835   3.690  12.735  0.00  0.00    +0.000 C 
ATOM     26  C   UNL     1       7.158   3.853  12.042  0.00  0.00    +0.000 C 
ATOM     27  C   UNL     1       5.688   3.828  14.069  0.00  0.00    +0.000 C 
ENDBRANCH  23  27
ENDBRANCH   1  23
TORSDOF 3
ENDMDL
MODEL 3
REMARK VINA RESULT:      -7.6      0.972      1.741
REMARK  Name = 
REMARK  6 active torsions:
REMARK  status: ('A' for Active; 'I' for Inactive)
REMARK    1  A    between atoms: C_1  and  C_2
REMARK    2  A    between atoms: C_2  and  C_3
REMARK    3  A    between atoms: C_4  and  C_5
REMARK    4  A    between atoms: C_5  and  N_6
REMARK    5  A    between atoms: N_14  and  C_15
REMARK    6  A    between atoms: C_20  and  C_21
REMARK                            x       y       z     vdW  Elec       q    Type
REMARK                         _______ _______ _______ _____ _____    ______ ____
ROOT
ATOM      1  N   UNL     1       5.666   4.226  16.817  0.00  0.00    +0.000 N 
ATOM      2  C   UNL     1       4.378   4.833  17.039  0.00  0.00    +0.000 C 
ATOM      3  C   UNL     1       4.636   5.928  18.091  0.00  0.00    +0.000 C 
ATOM      4  C   UNL     1       3.516   6.006  19.154  0.00  0.00    +0.000 C 
ATOM      5  C   UNL     1       2.219   6.589  18.600  0.00  0.00    +0.000 C 
ATOM      6  N   UNL     1       2.484   7.883  17.980  0.00  0.00    +0.000 N 
ATOM      7  C   UNL     1       1.832   9.079  18.251  0.00  0.00    +0.000 C 
ATOM      8  O   UNL     1       1.924  10.045  17.497  0.00  0.00    +0.000 OA
ATOM      9  N   UNL     1       1.152   9.111  19.451  0.00  0.00    +0.000 N 
ATOM     10  C   UNL     1       3.454   7.858  16.893  0.00  0.00    +0.000 C 
ATOM     11  C   UNL     1       4.790   7.310  17.403  0.00  0.00    +0.000 C 
ATOM     12  C   UNL     1       5.964   5.497  18.758  0.00  0.00    +0.000 C 
ATOM     13  C   UNL     1       6.580   4.507  17.809  0.00  0.00    +0.000 C 
ATOM     14  O   UNL     1       7.708   4.055  17.912  0.00  0.00    +0.000 OA
ATOM     15  H   UNL     1       1.597   8.573  20.177  0.00  0.00    +0.000 HD
ENDROOT
BRANCH   9  16
ATOM     16  C   UNL     1       0.439  10.259  19.876  0.00  0.00    +0.000 A 
ATOM     17  C   UNL     1       0.957  11.072  20.887  0.00  0.00    +0.000 A 
ATOM     18  C   UNL     1       0.275  12.212  21.313  0.00  0.00    +0.000 A 
ATOM     19  C   UNL     1      -0.934  12.553  20.718  0.00  0.00    +0.000 A 
ATOM     20  C   UNL     1      -1.462  11.752  19.705  0.00  0.00    +0.000 A 
ATOM     21  C   UNL     1      -0.787  10.595  19.274  0.00  0.00    +0.000 A 
ATOM     22  C   UNL     1      -1.433   9.729  18.228  0.00  0.00    +0.000 C 
ENDBRANCH   9  16
BRANCH   1  23
ATOM     23  C   UNL     1       6.031   3.595  15.566  0.00  0.00    +0.000 C 
BRANCH  23  27
ATOM     24  C   UNL     1       7.853   5.524  12.710  0.00  0.00    +0.000 C 
ATOM     25  C   UNL     1       7.022   4.478  13.400  0.00  0.00    +0.000 C 
ATOM     26  C   UNL     1       6.286   3.500  12.528  0.00  0.00    +0.000 C 
ATOM     27  C   UNL     1       6.923   4.473  14.746  0.00  0.00    +0.000 C 
ENDBRANCH  23  27
ENDBRANCH   1  23
TORSDOF 3
ENDMDL
MODEL 4
REMARK VINA RESULT:      -7.5      3.651      8.915
REMARK  Name = 
REMARK  6 active torsions:
REMARK  status: ('A' for Active; 'I' for Inactive)
REMARK    1  A    between atoms: C_1  and  C_2
REMARK    2  A    between atoms: C_2  and  C_3
REMARK    3  A    between atoms: C_4  and  C_5
REMARK    4  A    between atoms: C_5  and  N_6
REMARK    5  A    between atoms: N_14  and  C_15
REMARK    6  A    between atoms: C_20  and  C_21
REMARK                            x       y       z     vdW  Elec       q    Type
REMARK                         _______ _______ _______ _____ _____    ______ ____
ROOT
ATOM      1  N   UNL     1       0.177  12.340  19.534  0.00  0.00    +0.000 N 
ATOM      2  C   UNL     1       1.036  11.243  19.902  0.00  0.00    +0.000 C 
ATOM      3  C   UNL     1       0.337   9.991  19.338  0.00  0.00    +0.000 C 
ATOM      4  C   UNL     1       0.396   8.789  20.309  0.00  0.00    +0.000 C 
ATOM      5  C   UNL     1       1.793   8.186  20.413  0.00  0.00    +0.000 C 
ATOM      6  N   UNL     1       2.285   7.845  19.082  0.00  0.00    +0.000 N 
ATOM      7  C   UNL     1       2.779   6.613  18.673  0.00  0.00    +0.000 C 
ATOM      8  O   UNL     1       3.421   6.494  17.632  0.00  0.00    +0.000 OA
ATOM      9  N   UNL     1       2.428   5.550  19.479  0.00  0.00    +0.000 N 
ATOM     10  C   UNL     1       2.357   8.961  18.147  0.00  0.00    +0.000 C 
ATOM     11  C   UNL     1       0.969   9.587  17.980  0.00  0.00    +0.000 C 
ATOM     12  C   UNL     1      -1.131  10.440  19.147  0.00  0.00    +0.000 C 
ATOM     13  C   UNL     1      -1.092  11.942  19.175  0.00  0.00    +0.000 C 
ATOM     14  O   UNL     1      -2.036  12.668  18.904  0.00  0.00    +0.000 OA
ATOM     15  H   UNL     1       1.513   5.644  19.889  0.00  0.00    +0.000 HD
ENDROOT
BRANCH   9  16
ATOM     16  C   UNL     1       2.849   4.227  19.196  0.00  0.00    +0.000 A 
ATOM     17  C   UNL     1       3.941   3.678  19.875  0.00  0.00    +0.000 A 
ATOM     18  C   UNL     1       4.365   2.374  19.618  0.00  0.00    +0.000 A 
ATOM     19  C   UNL     1       3.688   1.602  18.681  0.00  0.00    +0.000 A 
ATOM     20  C   UNL     1       2.595   2.136  17.999  0.00  0.00    +0.000 A 
ATOM     21  C   UNL     1       2.163   3.453  18.243  0.00  0.00    +0.000 A 
ATOM     22  C   UNL     1       1.024   4.004  17.431  0.00  0.00    +0.000 C 
ENDBRANCH   9  16
BRANCH   1  23
ATOM     23  C   UNL     1       0.669  13.686  19.330  0.00  0.00    +0.000 C 
BRANCH  23  27
ATOM     24  C   UNL     1       4.249  14.629  18.109  0.00  0.00    +0.000 C 
ATOM     25  C   UNL     1       2.791  14.769  18.449  0.00  0.00    +0.000 C 
ATOM     26  C   UNL     1       2.203  16.151  18.396  0.00  0.00    +0.000 C 
ATOM     27  C   UNL     1       2.079  13.688  18.827  0.00  0.00    +0.000 C 
ENDBRANCH  23  27
ENDBRANCH   1  23
TORSDOF 3
ENDMDL
MODEL 5
REMARK VINA RESULT:      -7.5      2.708      4.176
REMARK  Name = 
REMARK  6 active torsions:
REMARK  status: ('A' for Active; 'I' for Inactive)
REMARK    1  A    between atoms: C_1  and  C_2
REMARK    2  A    between atoms: C_2  and  C_3
REMARK    3  A    between atoms: C_4  and  C_5
REMARK    4  A    between atoms: C_5  and  N_6
REMARK    5  A    between atoms: N_14  and  C_15
REMARK    6  A    between atoms: C_20  and  C_21
REMARK                            x       y       z     vdW  Elec       q    Type
REMARK                         _______ _______ _______ _____ _____    ______ ____
ROOT
ATOM      1  N   UNL     1       4.371   4.919  18.492  0.00  0.00    +0.000 N 
ATOM      2  C   UNL     1       3.965   6.299  18.588  0.00  0.00    +0.000 C 
ATOM      3  C   UNL     1       2.428   6.263  18.505  0.00  0.00    +0.000 C 
ATOM      4  C   UNL     1       1.853   7.405  17.635  0.00  0.00    +0.000 C 
ATOM      5  C   UNL     1       1.967   8.770  18.309  0.00  0.00    +0.000 C 
ATOM      6  N   UNL     1       1.354   8.721  19.632  0.00  0.00    +0.000 N 
ATOM      7  C   UNL     1       0.380   9.579  20.125  0.00  0.00    +0.000 C 
ATOM      8  O   UNL     1       0.126   9.638  21.326  0.00  0.00    +0.000 OA
ATOM      9  N   UNL     1      -0.314  10.284  19.163  0.00  0.00    +0.000 N 
ATOM     10  C   UNL     1       1.927   7.734  20.540  0.00  0.00    +0.000 C 
ATOM     11  C   UNL     1       1.810   6.336  19.925  0.00  0.00    +0.000 C 
ATOM     12  C   UNL     1       2.123   4.898  17.844  0.00  0.00    +0.000 C 
ATOM     13  C   UNL     1       3.385   4.094  17.997  0.00  0.00    +0.000 C 
ATOM     14  O   UNL     1       3.488   2.907  17.737  0.00  0.00    +0.000 OA
ATOM     15  H   UNL     1      -0.445   9.769  18.307  0.00  0.00    +0.000 HD
ENDROOT
BRANCH   9  16
ATOM     16  C   UNL     1      -1.343  11.197  19.502  0.00  0.00    +0.000 A 
ATOM     17  C   UNL     1      -1.128  12.159  20.494  0.00  0.00    +0.000 A 
ATOM     18  C   UNL     1      -2.125  13.073  20.835  0.00  0.00    +0.000 A 
ATOM     19  C   UNL     1      -3.347  13.038  20.174  0.00  0.00    +0.000 A 
ATOM     20  C   UNL     1      -3.574  12.086  19.180  0.00  0.00    +0.000 A 
ATOM     21  C   UNL     1      -2.579  11.153  18.833  0.00  0.00    +0.000 A 
ATOM     22  C   UNL     1      -2.898  10.104  17.804  0.00  0.00    +0.000 C 
ENDBRANCH   9  16
BRANCH   1  23
ATOM     23  C   UNL     1       5.595   4.419  19.082  0.00  0.00    +0.000 C 
BRANCH  23  27
ATOM     24  C   UNL     1       8.220   7.239  18.489  0.00  0.00    +0.000 C 
ATOM     25  C   UNL     1       7.332   6.057  18.215  0.00  0.00    +0.000 C 
ATOM     26  C   UNL     1       7.241   5.581  16.793  0.00  0.00    +0.000 C 
ATOM     27  C   UNL     1       6.622   5.499  19.218  0.00  0.00    +0.000 C 
ENDBRANCH  23  27
ENDBRANCH   1  23
TORSDOF 3
ENDMDL
MODEL 6
REMARK VINA RESULT:      -7.4      3.570      8.880
REMARK  Name = 
REMARK  6 active torsions:
REMARK  status: ('A' for Active; 'I' for Inactive)
REMARK    1  A    between atoms: C_1  and  C_2
REMARK    2  A    between atoms: C_2  and  C_3
REMARK    3  A    between atoms: C_4  and  C_5
REMARK    4  A    between atoms: C_5  and  N_6
REMARK    5  A    between atoms: N_14  and  C_15
REMARK    6  A    between atoms: C_20  and  C_21
REMARK                            x       y       z     vdW  Elec       q    Type
REMARK                         _______ _______ _______ _____ _____    ______ ____
ROOT
ATOM      1  N   UNL     1       0.204  12.589  19.575  0.00  0.00    +0.000 N 
ATOM      2  C   UNL     1       1.085  11.479  19.837  0.00  0.00    +0.000 C 
ATOM      3  C   UNL     1       0.260  10.229  19.472  0.00  0.00    +0.000 C 
ATOM      4  C   UNL     1       0.462   9.071  20.476  0.00  0.00    +0.000 C 
ATOM      5  C   UNL     1       1.838   8.422  20.356  0.00  0.00    +0.000 C 
ATOM      6  N   UNL     1       2.069   8.005  18.977  0.00  0.00    +0.000 N 
ATOM      7  C   UNL     1       2.446   6.739  18.548  0.00  0.00    +0.000 C 
ATOM      8  O   UNL     1       2.884   6.550  17.416  0.00  0.00    +0.000 OA
ATOM      9  N   UNL     1       2.219   5.726  19.457  0.00  0.00    +0.000 N 
ATOM     10  C   UNL     1       2.001   9.075  17.990  0.00  0.00    +0.000 C 
ATOM     11  C   UNL     1       0.623   9.743  18.045  0.00  0.00    +0.000 C 
ATOM     12  C   UNL     1      -1.205  10.722  19.527  0.00  0.00    +0.000 C 
ATOM     13  C   UNL     1      -1.120  12.222  19.472  0.00  0.00    +0.000 C 
ATOM     14  O   UNL     1      -2.076  12.968  19.340  0.00  0.00    +0.000 OA
ATOM     15  H   UNL     1       1.397   5.872  20.020  0.00  0.00    +0.000 HD
ENDROOT
BRANCH   9  16
ATOM     16  C   UNL     1       2.545   4.377  19.170  0.00  0.00    +0.000 A 
ATOM     17  C   UNL     1       1.536   3.462  18.860  0.00  0.00    +0.000 A 
ATOM     18  C   UNL     1       1.837   2.132  18.565  0.00  0.00    +0.000 A 
ATOM     19  C   UNL     1       3.161   1.710  18.569  0.00  0.00    +0.000 A 
ATOM     20  C   UNL     1       4.179   2.613  18.874  0.00  0.00    +0.000 A 
ATOM     21  C   UNL     1       3.887   3.954  19.181  0.00  0.00    +0.000 A 
ATOM     22  C   UNL     1       5.014   4.870  19.570  0.00  0.00    +0.000 C 
ENDBRANCH   9  16
BRANCH   1  23
ATOM     23  C   UNL     1       0.687  13.906  19.218  0.00  0.00    +0.000 C 
BRANCH  23  27
ATOM     24  C   UNL     1       4.272  14.704  17.909  0.00  0.00    +0.000 C 
ATOM     25  C   UNL     1       2.835  14.908  18.303  0.00  0.00    +0.000 C 
ATOM     26  C   UNL     1       2.320  16.319  18.319  0.00  0.00    +0.000 C 
ATOM     27  C   UNL     1       2.078  13.852  18.667  0.00  0.00    +0.000 C 
ENDBRANCH  23  27
ENDBRANCH   1  23
TORSDOF 3
ENDMDL
MODEL 7
REMARK VINA RESULT:      -7.3      3.484      9.669
REMARK  Name = 
REMARK  6 active torsions:
REMARK  status: ('A' for Active; 'I' for Inactive)
REMARK    1  A    between atoms: C_1  and  C_2
REMARK    2  A    between atoms: C_2  and  C_3
REMARK    3  A    between atoms: C_4  and  C_5
REMARK    4  A    between atoms: C_5  and  N_6
REMARK    5  A    between atoms: N_14  and  C_15
REMARK    6  A    between atoms: C_20  and  C_21
REMARK                            x       y       z     vdW  Elec       q    Type
REMARK                         _______ _______ _______ _____ _____    ______ ____
ROOT
ATOM      1  N   UNL     1      -0.472  13.306  19.657  0.00  0.00    +0.000 N 
ATOM      2  C   UNL     1      -0.357  11.961  19.153  0.00  0.00    +0.000 C 
ATOM      3  C   UNL     1       1.113  11.572  19.403  0.00  0.00    +0.000 C 
ATOM      4  C   UNL     1       1.727  10.783  18.224  0.00  0.00    +0.000 C 
ATOM      5  C   UNL     1       1.179   9.363  18.118  0.00  0.00    +0.000 C 
ATOM      6  N   UNL     1       1.347   8.672  19.392  0.00  0.00    +0.000 N 
ATOM      7  C   UNL     1       1.958   7.441  19.592  0.00  0.00    +0.000 C 
ATOM      8  O   UNL     1       1.810   6.814  20.637  0.00  0.00    +0.000 OA
ATOM      9  N   UNL     1       2.788   7.032  18.568  0.00  0.00    +0.000 N 
ATOM     10  C   UNL     1       0.696   9.310  20.529  0.00  0.00    +0.000 C 
ATOM     11  C   UNL     1       1.234  10.734  20.702  0.00  0.00    +0.000 C 
ATOM     12  C   UNL     1       1.835  12.931  19.558  0.00  0.00    +0.000 C 
ATOM     13  C   UNL     1       0.744  13.931  19.827  0.00  0.00    +0.000 C 
ATOM     14  O   UNL     1       0.930  15.090  20.157  0.00  0.00    +0.000 OA
ATOM     15  H   UNL     1       3.264   7.793  18.111  0.00  0.00    +0.000 HD
ENDROOT
BRANCH   9  16
ATOM     16  C   UNL     1       3.488   5.801  18.619  0.00  0.00    +0.000 A 
ATOM     17  C   UNL     1       4.811   5.766  19.068  0.00  0.00    +0.000 A 
ATOM     18  C   UNL     1       5.514   4.563  19.136  0.00  0.00    +0.000 A 
ATOM     19  C   UNL     1       4.890   3.379  18.762  0.00  0.00    +0.000 A 
ATOM     20  C   UNL     1       3.569   3.399  18.316  0.00  0.00    +0.000 A 
ATOM     21  C   UNL     1       2.852   4.607  18.235  0.00  0.00    +0.000 A 
ATOM     22  C   UNL     1       1.454   4.584  17.681  0.00  0.00    +0.000 C 
ENDBRANCH   9  16
BRANCH   1  23
ATOM     23  C   UNL     1      -1.715  13.852  20.159  0.00  0.00    +0.000 C 
BRANCH  23  27
ATOM     24  C   UNL     1      -2.904  12.058  23.410  0.00  0.00    +0.000 C 
ATOM     25  C   UNL     1      -2.080  12.920  22.494  0.00  0.00    +0.000 C 
ATOM     26  C   UNL     1      -1.010  13.766  23.125  0.00  0.00    +0.000 C 
ATOM     27  C   UNL     1      -2.345  12.947  21.172  0.00  0.00    +0.000 C 
ENDBRANCH  23  27
ENDBRANCH   1  23
TORSDOF 3
ENDMDL
MODEL 8
REMARK VINA RESULT:      -7.2      3.169      8.872
REMARK  Name = 
REMARK  6 active torsions:
REMARK  status: ('A' for Active; 'I' for Inactive)
REMARK    1  A    between atoms: C_1  and  C_2
REMARK    2  A    between atoms: C_2  and  C_3
REMARK    3  A    between atoms: C_4  and  C_5
REMARK    4  A    between atoms: C_5  and  N_6
REMARK    5  A    between atoms: N_14  and  C_15
REMARK    6  A    between atoms: C_20  and  C_21
REMARK                            x       y       z     vdW  Elec       q    Type
REMARK                         _______ _______ _______ _____ _____    ______ ____
ROOT
ATOM      1  N   UNL     1       0.133  12.493  20.043  0.00  0.00    +0.000 N 
ATOM      2  C   UNL     1       0.988  11.355  20.269  0.00  0.00    +0.000 C 
ATOM      3  C   UNL     1       0.241  10.169  19.631  0.00  0.00    +0.000 C 
ATOM      4  C   UNL     1       0.324   8.885  20.488  0.00  0.00    +0.000 C 
ATOM      5  C   UNL     1       1.714   8.255  20.468  0.00  0.00    +0.000 C 
ATOM      6  N   UNL     1       2.135   8.028  19.089  0.00  0.00    +0.000 N 
ATOM      7  C   UNL     1       2.586   6.831  18.548  0.00  0.00    +0.000 C 
ATOM      8  O   UNL     1       3.174   6.797  17.470  0.00  0.00    +0.000 OA
ATOM      9  N   UNL     1       2.255   5.705  19.273  0.00  0.00    +0.000 N 
ATOM     10  C   UNL     1       2.182   9.222  18.255  0.00  0.00    +0.000 C 
ATOM     11  C   UNL     1       0.799   9.880  18.213  0.00  0.00    +0.000 C 
ATOM     12  C   UNL     1      -1.227  10.653  19.554  0.00  0.00    +0.000 C 
ATOM     13  C   UNL     1      -1.159  12.147  19.714  0.00  0.00    +0.000 C 
ATOM     14  O   UNL     1      -2.101  12.906  19.556  0.00  0.00    +0.000 OA
ATOM     15  H   UNL     1       1.362   5.775  19.735  0.00  0.00    +0.000 HD
ENDROOT
BRANCH   9  16
ATOM     16  C   UNL     1       2.638   4.407  18.853  0.00  0.00    +0.000 A 
ATOM     17  C   UNL     1       3.692   4.244  17.950  0.00  0.00    +0.000 A 
ATOM     18  C   UNL     1       4.091   2.974  17.533  0.00  0.00    +0.000 A 
ATOM     19  C   UNL     1       3.438   1.850  18.028  0.00  0.00    +0.000 A 
ATOM     20  C   UNL     1       2.387   1.998  18.932  0.00  0.00    +0.000 A 
ATOM     21  C   UNL     1       1.970   3.274  19.354  0.00  0.00    +0.000 A 
ATOM     22  C   UNL     1       0.787   3.382  20.276  0.00  0.00    +0.000 C 
ENDBRANCH   9  16
BRANCH   1  23
ATOM     23  C   UNL     1       0.639  13.845  19.935  0.00  0.00    +0.000 C 
BRANCH  23  27
ATOM     24  C   UNL     1       4.025  14.192  18.034  0.00  0.00    +0.000 C 
ATOM     25  C   UNL     1       3.013  14.280  19.143  0.00  0.00    +0.000 C 
ATOM     26  C   UNL     1       3.513  14.697  20.497  0.00  0.00    +0.000 C 
ATOM     27  C   UNL     1       1.726  13.947  18.911  0.00  0.00    +0.000 C 
ENDBRANCH  23  27
ENDBRANCH   1  23
TORSDOF 3
ENDMDL
MODEL 9
REMARK VINA RESULT:      -7.0      2.791      4.115
REMARK  Name = 
REMARK  6 active torsions:
REMARK  status: ('A' for Active; 'I' for Inactive)
REMARK    1  A    between atoms: C_1  and  C_2
REMARK    2  A    between atoms: C_2  and  C_3
REMARK    3  A    between atoms: C_4  and  C_5
REMARK    4  A    between atoms: C_5  and  N_6
REMARK    5  A    between atoms: N_14  and  C_15
REMARK    6  A    between atoms: C_20  and  C_21
REMARK                            x       y       z     vdW  Elec       q    Type
REMARK                         _______ _______ _______ _____ _____    ______ ____
ROOT
ATOM      1  N   UNL     1       3.898   4.680  18.380  0.00  0.00    +0.000 N 
ATOM      2  C   UNL     1       3.715   6.103  18.507  0.00  0.00    +0.000 C 
ATOM      3  C   UNL     1       2.189   6.308  18.473  0.00  0.00    +0.000 C 
ATOM      4  C   UNL     1       1.773   7.541  17.639  0.00  0.00    +0.000 C 
ATOM      5  C   UNL     1       2.117   8.860  18.326  0.00  0.00    +0.000 C 
ATOM      6  N   UNL     1       1.545   8.882  19.668  0.00  0.00    +0.000 N 
ATOM      7  C   UNL     1       0.730   9.871  20.204  0.00  0.00    +0.000 C 
ATOM      8  O   UNL     1       0.525   9.947  21.413  0.00  0.00    +0.000 OA
ATOM      9  N   UNL     1       0.126  10.692  19.274  0.00  0.00    +0.000 N 
ATOM     10  C   UNL     1       1.984   7.802  20.543  0.00  0.00    +0.000 C 
ATOM     11  C   UNL     1       1.633   6.450  19.914  0.00  0.00    +0.000 C 
ATOM     12  C   UNL     1       1.656   5.019  17.805  0.00  0.00    +0.000 C 
ATOM     13  C   UNL     1       2.781   4.027  17.906  0.00  0.00    +0.000 C 
ATOM     14  O   UNL     1       2.691   2.842  17.627  0.00  0.00    +0.000 OA
ATOM     15  H   UNL     1      -0.108  10.220  18.416  0.00  0.00    +0.000 HD
ENDROOT
BRANCH   9  16
ATOM     16  C   UNL     1      -0.737  11.748  19.659  0.00  0.00    +0.000 A 
ATOM     17  C   UNL     1      -2.114  11.528  19.755  0.00  0.00    +0.000 A 
ATOM     18  C   UNL     1      -2.979  12.552  20.142  0.00  0.00    +0.000 A 
ATOM     19  C   UNL     1      -2.467  13.808  20.446  0.00  0.00    +0.000 A 
ATOM     20  C   UNL     1      -1.095  14.040  20.356  0.00  0.00    +0.000 A 
ATOM     21  C   UNL     1      -0.213  13.018  19.959  0.00  0.00    +0.000 A 
ATOM     22  C   UNL     1       1.248  13.340  19.812  0.00  0.00    +0.000 C 
ENDBRANCH   9  16
BRANCH   1  23
ATOM     23  C   UNL     1       5.047   3.985  18.923  0.00  0.00    +0.000 C 
BRANCH  23  27
ATOM     24  C   UNL     1       8.131   6.368  18.841  0.00  0.00    +0.000 C 
ATOM     25  C   UNL     1       7.169   5.289  18.426  0.00  0.00    +0.000 C 
ATOM     26  C   UNL     1       7.359   4.687  17.063  0.00  0.00    +0.000 C 
ATOM     27  C   UNL     1       6.160   4.931  19.247  0.00  0.00    +0.000 C 
ENDBRANCH  23  27
ENDBRANCH   1  23
TORSDOF 3
ENDMDL
