MODEL 1
REMARK VINA RESULT:      -6.8      0.000      0.000
REMARK  Name = 
REMARK  6 active torsions:
REMARK  status: ('A' for Active; 'I' for Inactive)
REMARK    1  A    between atoms: C_1  and  C_2
REMARK    2  A    between atoms: C_2  and  S_3
REMARK    3  A    between atoms: S_3  and  N_6
REMARK    4  A    between atoms: C_10  and  C_11
REMARK    5  A    between atoms: C_11  and  O_12
REMARK    6  A    between atoms: O_12  and  C_13
REMARK                            x       y       z     vdW  Elec       q    Type
REMARK                         _______ _______ _______ _____ _____    ______ ____
ROOT
ATOM      1  N   UNL     1       3.302   3.753  18.548  0.00  0.00    +0.000 NA
ATOM      2  C   UNL     1       3.446   5.201  18.865  0.00  0.00    +0.000 C 
ATOM      3  C   UNL     1       4.924   5.592  18.825  0.00  0.00    +0.000 C 
ATOM      4  C   UNL     1       5.594   5.197  17.531  0.00  0.00    +0.000 A 
ATOM      5  C   UNL     1       6.807   5.779  17.116  0.00  0.00    +0.000 A 
ATOM      6  C   UNL     1       7.351   5.342  15.909  0.00  0.00    +0.000 A 
ATOM      7  N   UNL     1       6.809   4.386  15.127  0.00  0.00    +0.000 NA
ATOM      8  C   UNL     1       5.666   3.821  15.570  0.00  0.00    +0.000 A 
ATOM      9  C   UNL     1       5.027   4.172  16.755  0.00  0.00    +0.000 A 
ATOM     10  C   UNL     1       3.740   3.484  17.143  0.00  0.00    +0.000 C 
ENDROOT
BRANCH   1  11
ATOM     11  S   UNL     1       1.770   3.080  18.873  0.00  0.00    +0.000 S 
ATOM     12  O   UNL     1       1.967   1.664  19.111  0.00  0.00    +0.000 OA
ATOM     13  O   UNL     1       0.872   3.547  17.840  0.00  0.00    +0.000 OA
BRANCH  11  15
ATOM     14  C   UNL     1       1.516   2.894  21.591  0.00  0.00    +0.000 C 
ATOM     15  C   UNL     1       1.324   3.851  20.430  0.00  0.00    +0.000 C 
ENDBRANCH  11  15
ENDBRANCH   1  11
BRANCH   5  16
ATOM     16  C   UNL     1       7.538   6.828  17.913  0.00  0.00    +0.000 C 
BRANCH  16  17
ATOM     17  O   UNL     1       7.677   8.066  17.214  0.00  0.00    +0.000 OA
ATOM     18  C   UNL     1       8.232   9.102  18.018  0.00  0.00    +0.000 C 
ENDBRANCH  16  17
ENDBRANCH   5  16
TORSDOF 4
ENDMDL
MODEL 2
REMARK VINA RESULT:      -6.8      2.844      5.828
REMARK  Name = 
REMARK  6 active torsions:
REMARK  status: ('A' for Active; 'I' for Inactive)
REMARK    1  A    between atoms: C_1  and  C_2
REMARK    2  A    between atoms: C_2  and  S_3
REMARK    3  A    between atoms: S_3  and  N_6
REMARK    4  A    between atoms: C_10  and  C_11
REMARK    5  A    between atoms: C_11  and  O_12
REMARK    6  A    between atoms: O_12  and  C_13
REMARK                            x       y       z     vdW  Elec       q    Type
REMARK                         _______ _______ _______ _____ _____    ______ ____
ROOT
ATOM      1  N   UNL     1       5.686   5.010  17.292  0.00  0.00    +0.000 NA
ATOM      2  C   UNL     1       5.852   5.044  18.772  0.00  0.00    +0.000 C 
ATOM      3  C   UNL     1       4.523   5.418  19.431  0.00  0.00    +0.000 C 
ATOM      4  C   UNL     1       3.383   4.538  18.979  0.00  0.00    +0.000 A 
ATOM      5  C   UNL     1       2.187   4.439  19.714  0.00  0.00    +0.000 A 
ATOM      6  C   UNL     1       1.189   3.605  19.212  0.00  0.00    +0.000 A 
ATOM      7  N   UNL     1       1.283   2.907  18.061  0.00  0.00    +0.000 NA
ATOM      8  C   UNL     1       2.427   3.052  17.360  0.00  0.00    +0.000 A 
ATOM      9  C   UNL     1       3.494   3.852  17.758  0.00  0.00    +0.000 A 
ATOM     10  C   UNL     1       4.735   3.924  16.901  0.00  0.00    +0.000 C 
ENDROOT
BRANCH   1  11
ATOM     11  S   UNL     1       7.133   4.939  16.393  0.00  0.00    +0.000 S 
ATOM     12  O   UNL     1       8.081   4.167  17.171  0.00  0.00    +0.000 OA
ATOM     13  O   UNL     1       7.436   6.287  15.967  0.00  0.00    +0.000 OA
BRANCH  11  15
ATOM     14  C   UNL     1       6.862   4.743  13.677  0.00  0.00    +0.000 C 
ATOM     15  C   UNL     1       6.659   3.965  14.964  0.00  0.00    +0.000 C 
ENDBRANCH  11  15
ENDBRANCH   1  11
BRANCH   5  16
ATOM     16  C   UNL     1       1.936   5.194  20.994  0.00  0.00    +0.000 C 
BRANCH  16  17
ATOM     17  O   UNL     1       1.073   6.320  20.820  0.00  0.00    +0.000 OA
ATOM     18  C   UNL     1       1.779   7.531  20.570  0.00  0.00    +0.000 C 
ENDBRANCH  16  17
ENDBRANCH   5  16
TORSDOF 4
ENDMDL
MODEL 3
REMARK VINA RESULT:      -6.8      2.397      6.086
REMARK  Name = 
REMARK  6 active torsions:
REMARK  status: ('A' for Active; 'I' for Inactive)
REMARK    1  A    between atoms: C_1  and  C_2
REMARK    2  A    between atoms: C_2  and  S_3
REMARK    3  A    between atoms: S_3  and  N_6
REMARK    4  A    between atoms: C_10  and  C_11
REMARK    5  A    between atoms: C_11  and  O_12
REMARK    6  A    between atoms: O_12  and  C_13
REMARK                            x       y       z     vdW  Elec       q    Type
REMARK                         _______ _______ _______ _____ _____    ______ ____
ROOT
ATOM      1  N   UNL     1       5.780   5.274  17.731  0.00  0.00    +0.000 NA
ATOM      2  C   UNL     1       5.611   5.166  19.207  0.00  0.00    +0.000 C 
ATOM      3  C   UNL     1       4.126   5.249  19.562  0.00  0.00    +0.000 C 
ATOM      4  C   UNL     1       3.288   4.257  18.792  0.00  0.00    +0.000 A 
ATOM      5  C   UNL     1       1.998   3.889  19.218  0.00  0.00    +0.000 A 
ATOM      6  C   UNL     1       1.300   2.971  18.435  0.00  0.00    +0.000 A 
ATOM      7  N   UNL     1       1.765   2.432  17.289  0.00  0.00    +0.000 NA
ATOM      8  C   UNL     1       2.989   2.833  16.888  0.00  0.00    +0.000 A 
ATOM      9  C   UNL     1       3.783   3.740  17.583  0.00  0.00    +0.000 A 
ATOM     10  C   UNL     1       5.148   4.103  17.048  0.00  0.00    +0.000 C 
ENDROOT
BRANCH   1  11
ATOM     11  S   UNL     1       7.377   5.533  17.192  0.00  0.00    +0.000 S 
ATOM     12  O   UNL     1       7.293   6.072  15.850  0.00  0.00    +0.000 OA
ATOM     13  O   UNL     1       8.121   4.324  17.468  0.00  0.00    +0.000 OA
BRANCH  11  15
ATOM     14  C   UNL     1       7.766   8.204  17.648  0.00  0.00    +0.000 C 
ATOM     15  C   UNL     1       7.952   6.837  18.282  0.00  0.00    +0.000 C 
ENDBRANCH  11  15
ENDBRANCH   1  11
BRANCH   5  16
ATOM     16  C   UNL     1       1.343   4.445  20.456  0.00  0.00    +0.000 C 
BRANCH  16  17
ATOM     17  O   UNL     1       1.114   3.455  21.460  0.00  0.00    +0.000 OA
ATOM     18  C   UNL     1       2.296   2.753  21.833  0.00  0.00    +0.000 C 
ENDBRANCH  16  17
ENDBRANCH   5  16
TORSDOF 4
ENDMDL
MODEL 4
REMARK VINA RESULT:      -6.6      2.702      6.140
REMARK  Name = 
REMARK  6 active torsions:
REMARK  status: ('A' for Active; 'I' for Inactive)
REMARK    1  A    between atoms: C_1  and  C_2
REMARK    2  A    between atoms: C_2  and  S_3
REMARK    3  A    between atoms: S_3  and  N_6
REMARK    4  A    between atoms: C_10  and  C_11
REMARK    5  A    between atoms: C_11  and  O_12
REMARK    6  A    between atoms: O_12  and  C_13
REMARK                            x       y       z     vdW  Elec       q    Type
REMARK                         _______ _______ _______ _____ _____    ______ ____
ROOT
ATOM      1  N   UNL     1       5.899   5.219  17.521  0.00  0.00    +0.000 NA
ATOM      2  C   UNL     1       5.033   4.085  17.947  0.00  0.00    +0.000 C 
ATOM      3  C   UNL     1       4.227   4.488  19.183  0.00  0.00    +0.000 C 
ATOM      4  C   UNL     1       3.466   5.777  18.985  0.00  0.00    +0.000 A 
ATOM      5  C   UNL     1       2.383   6.132  19.811  0.00  0.00    +0.000 A 
ATOM      6  C   UNL     1       1.749   7.347  19.553  0.00  0.00    +0.000 A 
ATOM      7  N   UNL     1       2.116   8.212  18.585  0.00  0.00    +0.000 NA
ATOM      8  C   UNL     1       3.180   7.859  17.834  0.00  0.00    +0.000 A 
ATOM      9  C   UNL     1       3.893   6.675  17.993  0.00  0.00    +0.000 A 
ATOM     10  C   UNL     1       5.060   6.376  17.081  0.00  0.00    +0.000 C 
ENDROOT
BRANCH   1  11
ATOM     11  S   UNL     1       7.098   4.835  16.372  0.00  0.00    +0.000 S 
ATOM     12  O   UNL     1       8.142   4.111  17.071  0.00  0.00    +0.000 OA
ATOM     13  O   UNL     1       7.390   6.047  15.640  0.00  0.00    +0.000 OA
BRANCH  11  15
ATOM     14  C   UNL     1       6.392   4.094  13.835  0.00  0.00    +0.000 C 
ATOM     15  C   UNL     1       6.250   3.684  15.289  0.00  0.00    +0.000 C 
ENDBRANCH  11  15
ENDBRANCH   1  11
BRANCH   5  16
ATOM     16  C   UNL     1       1.896   5.278  20.953  0.00  0.00    +0.000 C 
BRANCH  16  17
ATOM     17  O   UNL     1       0.777   4.461  20.602  0.00  0.00    +0.000 OA
ATOM     18  C   UNL     1       1.114   3.085  20.459  0.00  0.00    +0.000 C 
ENDBRANCH  16  17
ENDBRANCH   5  16
TORSDOF 4
ENDMDL
MODEL 5
REMARK VINA RESULT:      -6.6      2.720      6.175
REMARK  Name = 
REMARK  6 active torsions:
REMARK  status: ('A' for Active; 'I' for Inactive)
REMARK    1  A    between atoms: C_1  and  C_2
REMARK    2  A    between atoms: C_2  and  S_3
REMARK    3  A    between atoms: S_3  and  N_6
REMARK    4  A    between atoms: C_10  and  C_11
REMARK    5  A    between atoms: C_11  and  O_12
REMARK    6  A    between atoms: O_12  and  C_13
REMARK                            x       y       z     vdW  Elec       q    Type
REMARK                         _______ _______ _______ _____ _____    ______ ____
ROOT
ATOM      1  N   UNL     1       5.696   5.207  17.322  0.00  0.00    +0.000 NA
ATOM      2  C   UNL     1       5.900   4.889  18.763  0.00  0.00    +0.000 C 
ATOM      3  C   UNL     1       4.612   5.167  19.538  0.00  0.00    +0.000 C 
ATOM      4  C   UNL     1       3.412   4.473  18.940  0.00  0.00    +0.000 A 
ATOM      5  C   UNL     1       2.231   4.268  19.677  0.00  0.00    +0.000 A 
ATOM      6  C   UNL     1       1.175   3.623  19.033  0.00  0.00    +0.000 A 
ATOM      7  N   UNL     1       1.200   3.207  17.750  0.00  0.00    +0.000 NA
ATOM      8  C   UNL     1       2.333   3.452  17.060  0.00  0.00    +0.000 A 
ATOM      9  C   UNL     1       3.453   4.083  17.590  0.00  0.00    +0.000 A 
ATOM     10  C   UNL     1       4.675   4.289  16.727  0.00  0.00    +0.000 C 
ENDROOT
BRANCH   1  11
ATOM     11  S   UNL     1       7.114   5.272  16.377  0.00  0.00    +0.000 S 
ATOM     12  O   UNL     1       8.010   4.251  16.880  0.00  0.00    +0.000 OA
ATOM     13  O   UNL     1       7.520   6.659  16.314  0.00  0.00    +0.000 OA
BRANCH  11  15
ATOM     14  C   UNL     1       7.565   5.048  13.687  0.00  0.00    +0.000 C 
ATOM     15  C   UNL     1       6.532   4.757  14.760  0.00  0.00    +0.000 C 
ENDBRANCH  11  15
ENDBRANCH   1  11
BRANCH   5  16
ATOM     16  C   UNL     1       2.055   4.717  21.104  0.00  0.00    +0.000 C 
BRANCH  16  17
ATOM     17  O   UNL     1       2.399   3.708  22.055  0.00  0.00    +0.000 OA
ATOM     18  C   UNL     1       1.684   2.492  21.863  0.00  0.00    +0.000 C 
ENDBRANCH  16  17
ENDBRANCH   5  16
TORSDOF 4
ENDMDL
MODEL 6
REMARK VINA RESULT:      -6.6      2.619      6.351
REMARK  Name = 
REMARK  6 active torsions:
REMARK  status: ('A' for Active; 'I' for Inactive)
REMARK    1  A    between atoms: C_1  and  C_2
REMARK    2  A    between atoms: C_2  and  S_3
REMARK    3  A    between atoms: S_3  and  N_6
REMARK    4  A    between atoms: C_10  and  C_11
REMARK    5  A    between atoms: C_11  and  O_12
REMARK    6  A    between atoms: O_12  and  C_13
REMARK                            x       y       z     vdW  Elec       q    Type
REMARK                         _______ _______ _______ _____ _____    ______ ____
ROOT
ATOM      1  N   UNL     1       5.788   5.290  17.802  0.00  0.00    +0.000 NA
ATOM      2  C   UNL     1       5.160   3.943  17.893  0.00  0.00    +0.000 C 
ATOM      3  C   UNL     1       4.468   3.788  19.248  0.00  0.00    +0.000 C 
ATOM      4  C   UNL     1       3.507   4.914  19.541  0.00  0.00    +0.000 A 
ATOM      5  C   UNL     1       2.499   4.792  20.516  0.00  0.00    +0.000 A 
ATOM      6  C   UNL     1       1.664   5.891  20.719  0.00  0.00    +0.000 A 
ATOM      7  N   UNL     1       1.773   7.066  20.066  0.00  0.00    +0.000 NA
ATOM      8  C   UNL     1       2.773   7.164  19.165  0.00  0.00    +0.000 A 
ATOM      9  C   UNL     1       3.667   6.139  18.872  0.00  0.00    +0.000 A 
ATOM     10  C   UNL     1       4.738   6.356  17.830  0.00  0.00    +0.000 C 
ENDROOT
BRANCH   1  11
ATOM     11  S   UNL     1       6.874   5.508  16.506  0.00  0.00    +0.000 S 
ATOM     12  O   UNL     1       7.841   4.430  16.574  0.00  0.00    +0.000 OA
ATOM     13  O   UNL     1       7.294   6.891  16.529  0.00  0.00    +0.000 OA
BRANCH  11  15
ATOM     14  C   UNL     1       6.276   4.004  14.298  0.00  0.00    +0.000 C 
ATOM     15  C   UNL     1       5.834   5.233  15.071  0.00  0.00    +0.000 C 
ENDBRANCH  11  15
ENDBRANCH   1  11
BRANCH   5  16
ATOM     16  C   UNL     1       2.292   3.551  21.344  0.00  0.00    +0.000 C 
BRANCH  16  17
ATOM     17  O   UNL     1       1.074   2.869  21.037  0.00  0.00    +0.000 OA
ATOM     18  C   UNL     1       1.014   2.415  19.688  0.00  0.00    +0.000 C 
ENDBRANCH  16  17
ENDBRANCH   5  16
TORSDOF 4
ENDMDL
MODEL 7
REMARK VINA RESULT:      -6.5      2.245      3.409
REMARK  Name = 
REMARK  6 active torsions:
REMARK  status: ('A' for Active; 'I' for Inactive)
REMARK    1  A    between atoms: C_1  and  C_2
REMARK    2  A    between atoms: C_2  and  S_3
REMARK    3  A    between atoms: S_3  and  N_6
REMARK    4  A    between atoms: C_10  and  C_11
REMARK    5  A    between atoms: C_11  and  O_12
REMARK    6  A    between atoms: O_12  and  C_13
REMARK                            x       y       z     vdW  Elec       q    Type
REMARK                         _______ _______ _______ _____ _____    ______ ____
ROOT
ATOM      1  N   UNL     1       3.474   3.501  19.134  0.00  0.00    +0.000 NA
ATOM      2  C   UNL     1       3.414   2.602  17.948  0.00  0.00    +0.000 C 
ATOM      3  C   UNL     1       3.821   3.377  16.694  0.00  0.00    +0.000 C 
ATOM      4  C   UNL     1       5.153   4.072  16.848  0.00  0.00    +0.000 A 
ATOM      5  C   UNL     1       5.894   4.507  15.734  0.00  0.00    +0.000 A 
ATOM      6  C   UNL     1       7.110   5.145  15.979  0.00  0.00    +0.000 A 
ATOM      7  N   UNL     1       7.609   5.395  17.207  0.00  0.00    +0.000 NA
ATOM      8  C   UNL     1       6.857   4.999  18.255  0.00  0.00    +0.000 A 
ATOM      9  C   UNL     1       5.630   4.351  18.139  0.00  0.00    +0.000 A 
ATOM     10  C   UNL     1       4.883   3.937  19.384  0.00  0.00    +0.000 C 
ENDROOT
BRANCH   1  11
ATOM     11  S   UNL     1       2.738   2.898  20.549  0.00  0.00    +0.000 S 
ATOM     12  O   UNL     1       3.776   2.255  21.330  0.00  0.00    +0.000 OA
ATOM     13  O   UNL     1       1.555   2.175  20.139  0.00  0.00    +0.000 OA
BRANCH  11  15
ATOM     14  C   UNL     1       1.578   5.374  20.455  0.00  0.00    +0.000 C 
ATOM     15  C   UNL     1       2.244   4.395  21.404  0.00  0.00    +0.000 C 
ENDBRANCH  11  15
ENDBRANCH   1  11
BRANCH   5  16
ATOM     16  C   UNL     1       5.434   4.328  14.310  0.00  0.00    +0.000 C 
BRANCH  16  17
ATOM     17  O   UNL     1       6.463   3.837  13.447  0.00  0.00    +0.000 OA
ATOM     18  C   UNL     1       5.957   3.274  12.241  0.00  0.00    +0.000 C 
ENDBRANCH  16  17
ENDBRANCH   5  16
TORSDOF 4
ENDMDL
MODEL 8
REMARK VINA RESULT:      -6.5      2.546      6.399
REMARK  Name = 
REMARK  6 active torsions:
REMARK  status: ('A' for Active; 'I' for Inactive)
REMARK    1  A    between atoms: C_1  and  C_2
REMARK    2  A    between atoms: C_2  and  S_3
REMARK    3  A    between atoms: S_3  and  N_6
REMARK    4  A    between atoms: C_10  and  C_11
REMARK    5  A    between atoms: C_11  and  O_12
REMARK    6  A    between atoms: O_12  and  C_13
REMARK                            x       y       z     vdW  Elec       q    Type
REMARK                         _______ _______ _______ _____ _____    ______ ____
ROOT
ATOM      1  N   UNL     1       5.525   4.624  17.475  0.00  0.00    +0.000 NA
ATOM      2  C   UNL     1       4.482   3.677  16.990  0.00  0.00    +0.000 C 
ATOM      3  C   UNL     1       3.547   3.307  18.142  0.00  0.00    +0.000 C 
ATOM      4  C   UNL     1       2.974   4.519  18.837  0.00  0.00    +0.000 A 
ATOM      5  C   UNL     1       1.825   4.435  19.645  0.00  0.00    +0.000 A 
ATOM      6  C   UNL     1       1.377   5.609  20.251  0.00  0.00    +0.000 A 
ATOM      7  N   UNL     1       1.982   6.809  20.135  0.00  0.00    +0.000 NA
ATOM      8  C   UNL     1       3.103   6.848  19.385  0.00  0.00    +0.000 A 
ATOM      9  C   UNL     1       3.646   5.748  18.729  0.00  0.00    +0.000 A 
ATOM     10  C   UNL     1       4.898   5.914  17.900  0.00  0.00    +0.000 C 
ENDROOT
BRANCH   1  11
ATOM     11  S   UNL     1       6.836   4.878  16.415  0.00  0.00    +0.000 S 
ATOM     12  O   UNL     1       7.991   4.229  17.002  0.00  0.00    +0.000 OA
ATOM     13  O   UNL     1       6.854   6.286  16.089  0.00  0.00    +0.000 OA
BRANCH  11  15
ATOM     14  C   UNL     1       6.882   4.589  13.694  0.00  0.00    +0.000 C 
ATOM     15  C   UNL     1       6.351   3.945  14.961  0.00  0.00    +0.000 C 
ENDBRANCH  11  15
ENDBRANCH   1  11
BRANCH   5  16
ATOM     16  C   UNL     1       1.075   3.151  19.891  0.00  0.00    +0.000 C 
BRANCH  16  17
ATOM     17  O   UNL     1       1.052   2.772  21.268  0.00  0.00    +0.000 OA
ATOM     18  C   UNL     1       2.342   2.455  21.782  0.00  0.00    +0.000 C 
ENDBRANCH  16  17
ENDBRANCH   5  16
TORSDOF 4
ENDMDL
MODEL 9
REMARK VINA RESULT:      -6.4      1.920      2.803
REMARK  Name = 
REMARK  6 active torsions:
REMARK  status: ('A' for Active; 'I' for Inactive)
REMARK    1  A    between atoms: C_1  and  C_2
REMARK    2  A    between atoms: C_2  and  S_3
REMARK    3  A    between atoms: S_3  and  N_6
REMARK    4  A    between atoms: C_10  and  C_11
REMARK    5  A    between atoms: C_11  and  O_12
REMARK    6  A    between atoms: O_12  and  C_13
REMARK                            x       y       z     vdW  Elec       q    Type
REMARK                         _______ _______ _______ _____ _____    ______ ____
ROOT
ATOM      1  N   UNL     1       2.719   3.968  18.480  0.00  0.00    +0.000 NA
ATOM      2  C   UNL     1       3.141   3.034  17.400  0.00  0.00    +0.000 C 
ATOM      3  C   UNL     1       4.179   3.715  16.506  0.00  0.00    +0.000 C 
ATOM      4  C   UNL     1       5.338   4.282  17.291  0.00  0.00    +0.000 A 
ATOM      5  C   UNL     1       6.564   4.598  16.677  0.00  0.00    +0.000 A 
ATOM      6  C   UNL     1       7.572   5.124  17.485  0.00  0.00    +0.000 A 
ATOM      7  N   UNL     1       7.443   5.372  18.804  0.00  0.00    +0.000 NA
ATOM      8  C   UNL     1       6.244   5.093  19.356  0.00  0.00    +0.000 A 
ATOM      9  C   UNL     1       5.164   4.564  18.656  0.00  0.00    +0.000 A 
ATOM     10  C   UNL     1       3.871   4.275  19.382  0.00  0.00    +0.000 C 
ENDROOT
BRANCH   1  11
ATOM     11  S   UNL     1       1.336   3.497  19.358  0.00  0.00    +0.000 S 
ATOM     12  O   UNL     1       0.451   2.820  18.431  0.00  0.00    +0.000 OA
ATOM     13  O   UNL     1       0.892   4.652  20.107  0.00  0.00    +0.000 OA
BRANCH  11  15
ATOM     14  C   UNL     1       1.700   2.655  21.937  0.00  0.00    +0.000 C 
ATOM     15  C   UNL     1       1.991   2.275  20.496  0.00  0.00    +0.000 C 
ENDBRANCH  11  15
ENDBRANCH   1  11
BRANCH   5  16
ATOM     16  C   UNL     1       6.828   4.409  15.205  0.00  0.00    +0.000 C 
BRANCH  16  17
ATOM     17  O   UNL     1       7.637   5.444  14.644  0.00  0.00    +0.000 OA
ATOM     18  C   UNL     1       7.855   5.286  13.245  0.00  0.00    +0.000 C 
ENDBRANCH  16  17
ENDBRANCH   5  16
TORSDOF 4
ENDMDL
