MODEL 1
REMARK VINA RESULT:      -7.1      0.000      0.000
REMARK  Name = 
REMARK  7 active torsions:
REMARK  status: ('A' for Active; 'I' for Inactive)
REMARK    1  A    between atoms: C_1  and  C_2
REMARK    2  A    between atoms: C_2  and  C_3
REMARK    3  A    between atoms: C_2  and  C_4
REMARK    4  A    between atoms: C_2  and  C_5
REMARK    5  A    between atoms: C_5  and  O_6
REMARK    6  A    between atoms: C_7  and  C_8
REMARK    7  A    between atoms: C_7  and  C_10
REMARK                            x       y       z     vdW  Elec       q    Type
REMARK                         _______ _______ _______ _____ _____    ______ ____
ROOT
ATOM      1  C   UNL     1       3.488   3.686  19.132  0.00  0.00    +0.000 C 
ATOM      2  C   UNL     1       4.102   4.898  19.147  0.00  0.00    +0.000 C 
ENDROOT
BRANCH   2   3
ATOM      3  C   UNL     1       3.426   6.156  19.074  0.00  0.00    +0.000 A 
ATOM      4  N   UNL     1       3.192   6.976  18.067  0.00  0.00    +0.000 NA
ATOM      5  C   UNL     1       2.336   7.941  18.527  0.00  0.00    +0.000 A 
ATOM      6  C   UNL     1       1.738   9.011  17.849  0.00  0.00    +0.000 A 
ATOM      7  C   UNL     1       0.831   9.818  18.548  0.00  0.00    +0.000 A 
ATOM      8  C   UNL     1       0.535   9.566  19.892  0.00  0.00    +0.000 A 
ATOM      9  C   UNL     1       1.154   8.523  20.591  0.00  0.00    +0.000 A 
ATOM     10  C   UNL     1       2.054   7.739  19.868  0.00  0.00    +0.000 A 
ATOM     11  N   UNL     1       2.825   6.660  20.215  0.00  0.00    +0.000 N 
ATOM     12  H   UNL     1       2.881   6.262  21.142  0.00  0.00    +0.000 HD
ENDBRANCH   2   3
BRANCH   1  14
ATOM     13  C   UNL     1       1.712   1.828  18.754  0.00  0.00    +0.000 C 
ATOM     14  C   UNL     1       1.974   3.347  18.968  0.00  0.00    +0.000 C 
ATOM     15  C   UNL     1       1.397   4.044  17.719  0.00  0.00    +0.000 C 
ATOM     16  C   UNL     1       1.152   3.706  20.228  0.00  0.00    +0.000 C 
ENDBRANCH   1  14
BRANCH   1  17
ATOM     17  O   UNL     1       4.348   2.581  19.259  0.00  0.00    +0.000 OA
ATOM     18  H   UNL     1       4.834   2.591  20.096  0.00  0.00    +0.000 HD
ENDBRANCH   1  17
BRANCH   2  19
ATOM     19  C   UNL     1       5.539   4.936  19.269  0.00  0.00    +0.000 C 
ATOM     20  N   UNL     1       6.703   4.911  19.266  0.00  0.00    +0.000 NA
ENDBRANCH   2  19
TORSDOF 4
ENDMDL
MODEL 2
REMARK VINA RESULT:      -7.1      0.100      1.015
REMARK  Name = 
REMARK  7 active torsions:
REMARK  status: ('A' for Active; 'I' for Inactive)
REMARK    1  A    between atoms: C_1  and  C_2
REMARK    2  A    between atoms: C_2  and  C_3
REMARK    3  A    between atoms: C_2  and  C_4
REMARK    4  A    between atoms: C_2  and  C_5
REMARK    5  A    between atoms: C_5  and  O_6
REMARK    6  A    between atoms: C_7  and  C_8
REMARK    7  A    between atoms: C_7  and  C_10
REMARK                            x       y       z     vdW  Elec       q    Type
REMARK                         _______ _______ _______ _____ _____    ______ ____
ROOT
ATOM      1  C   UNL     1       3.564   3.692  19.041  0.00  0.00    +0.000 C 
ATOM      2  C   UNL     1       4.163   4.912  19.078  0.00  0.00    +0.000 C 
ENDROOT
BRANCH   2   3
ATOM      3  C   UNL     1       3.472   6.162  19.010  0.00  0.00    +0.000 A 
ATOM      4  N   UNL     1       3.224   6.980  18.006  0.00  0.00    +0.000 NA
ATOM      5  C   UNL     1       2.360   7.936  18.472  0.00  0.00    +0.000 A 
ATOM      6  C   UNL     1       1.746   9.000  17.799  0.00  0.00    +0.000 A 
ATOM      7  C   UNL     1       0.834   9.795  18.503  0.00  0.00    +0.000 A 
ATOM      8  C   UNL     1       0.548   9.539  19.847  0.00  0.00    +0.000 A 
ATOM      9  C   UNL     1       1.181   8.502  20.542  0.00  0.00    +0.000 A 
ATOM     10  C   UNL     1       2.086   7.729  19.813  0.00  0.00    +0.000 A 
ATOM     11  N   UNL     1       2.871   6.658  20.155  0.00  0.00    +0.000 N 
ATOM     12  H   UNL     1       2.936   6.259  21.082  0.00  0.00    +0.000 HD
ENDBRANCH   2   3
BRANCH   1  14
ATOM     13  C   UNL     1       1.186   3.709  20.087  0.00  0.00    +0.000 C 
ATOM     14  C   UNL     1       2.056   3.337  18.851  0.00  0.00    +0.000 C 
ATOM     15  C   UNL     1       1.879   1.816  18.667  0.00  0.00    +0.000 C 
ATOM     16  C   UNL     1       1.413   4.114  17.679  0.00  0.00    +0.000 C 
ENDBRANCH   1  14
BRANCH   1  17
ATOM     17  O   UNL     1       4.435   2.597  19.167  0.00  0.00    +0.000 OA
ATOM     18  H   UNL     1       3.970   1.750  19.103  0.00  0.00    +0.000 HD
ENDBRANCH   1  17
BRANCH   2  19
ATOM     19  C   UNL     1       5.597   4.965  19.221  0.00  0.00    +0.000 C 
ATOM     20  N   UNL     1       6.749   4.899  19.372  0.00  0.00    +0.000 NA
ENDBRANCH   2  19
TORSDOF 4
ENDMDL
MODEL 3
REMARK VINA RESULT:      -7.0      3.597      5.764
REMARK  Name = 
REMARK  7 active torsions:
REMARK  status: ('A' for Active; 'I' for Inactive)
REMARK    1  A    between atoms: C_1  and  C_2
REMARK    2  A    between atoms: C_2  and  C_3
REMARK    3  A    between atoms: C_2  and  C_4
REMARK    4  A    between atoms: C_2  and  C_5
REMARK    5  A    between atoms: C_5  and  O_6
REMARK    6  A    between atoms: C_7  and  C_8
REMARK    7  A    between atoms: C_7  and  C_10
REMARK                            x       y       z     vdW  Elec       q    Type
REMARK                         _______ _______ _______ _____ _____    ______ ____
ROOT
ATOM      1  C   UNL     1       6.760   5.588  16.247  0.00  0.00    +0.000 C 
ATOM      2  C   UNL     1       5.837   4.653  15.903  0.00  0.00    +0.000 C 
ENDROOT
BRANCH   2   3
ATOM      3  C   UNL     1       4.731   4.258  16.720  0.00  0.00    +0.000 A 
ATOM      4  N   UNL     1       3.523   4.765  16.876  0.00  0.00    +0.000 NA
ATOM      5  C   UNL     1       2.812   3.877  17.639  0.00  0.00    +0.000 A 
ATOM      6  C   UNL     1       1.472   3.910  18.046  0.00  0.00    +0.000 A 
ATOM      7  C   UNL     1       0.969   2.822  18.769  0.00  0.00    +0.000 A 
ATOM      8  C   UNL     1       1.785   1.731  19.083  0.00  0.00    +0.000 A 
ATOM      9  C   UNL     1       3.135   1.701  18.714  0.00  0.00    +0.000 A 
ATOM     10  C   UNL     1       3.607   2.801  17.997  0.00  0.00    +0.000 A 
ATOM     11  N   UNL     1       4.841   3.108  17.483  0.00  0.00    +0.000 N 
ATOM     12  H   UNL     1       5.671   2.542  17.591  0.00  0.00    +0.000 HD
ENDBRANCH   2   3
BRANCH   1  14
ATOM     13  C   UNL     1       7.786   7.666  17.423  0.00  0.00    +0.000 C 
ATOM     14  C   UNL     1       6.905   6.391  17.577  0.00  0.00    +0.000 C 
ATOM     15  C   UNL     1       7.606   5.534  18.651  0.00  0.00    +0.000 C 
ATOM     16  C   UNL     1       5.548   6.921  18.094  0.00  0.00    +0.000 C 
ENDBRANCH   1  14
BRANCH   1  17
ATOM     17  O   UNL     1       7.737   5.849  15.269  0.00  0.00    +0.000 OA
ATOM     18  H   UNL     1       7.848   5.107  14.658  0.00  0.00    +0.000 HD
ENDBRANCH   1  17
BRANCH   2  19
ATOM     19  C   UNL     1       5.953   4.019  14.612  0.00  0.00    +0.000 C 
ATOM     20  N   UNL     1       6.108   3.599  13.538  0.00  0.00    +0.000 NA
ENDBRANCH   2  19
TORSDOF 4
ENDMDL
MODEL 4
REMARK VINA RESULT:      -7.0      2.928      4.606
REMARK  Name = 
REMARK  7 active torsions:
REMARK  status: ('A' for Active; 'I' for Inactive)
REMARK    1  A    between atoms: C_1  and  C_2
REMARK    2  A    between atoms: C_2  and  C_3
REMARK    3  A    between atoms: C_2  and  C_4
REMARK    4  A    between atoms: C_2  and  C_5
REMARK    5  A    between atoms: C_5  and  O_6
REMARK    6  A    between atoms: C_7  and  C_8
REMARK    7  A    between atoms: C_7  and  C_10
REMARK                            x       y       z     vdW  Elec       q    Type
REMARK                         _______ _______ _______ _____ _____    ______ ____
ROOT
ATOM      1  C   UNL     1       6.595   5.396  17.348  0.00  0.00    +0.000 C 
ATOM      2  C   UNL     1       6.344   5.250  18.676  0.00  0.00    +0.000 C 
ENDROOT
BRANCH   2   3
ATOM      3  C   UNL     1       5.070   4.919  19.234  0.00  0.00    +0.000 A 
ATOM      4  N   UNL     1       4.007   5.651  19.505  0.00  0.00    +0.000 NA
ATOM      5  C   UNL     1       3.002   4.787  19.850  0.00  0.00    +0.000 A 
ATOM      6  C   UNL     1       1.663   5.045  20.173  0.00  0.00    +0.000 A 
ATOM      7  C   UNL     1       0.817   3.957  20.418  0.00  0.00    +0.000 A 
ATOM      8  C   UNL     1       1.297   2.645  20.350  0.00  0.00    +0.000 A 
ATOM      9  C   UNL     1       2.640   2.375  20.065  0.00  0.00    +0.000 A 
ATOM     10  C   UNL     1       3.459   3.480  19.828  0.00  0.00    +0.000 A 
ATOM     11  N   UNL     1       4.791   3.594  19.526  0.00  0.00    +0.000 N 
ATOM     12  H   UNL     1       5.439   2.821  19.459  0.00  0.00    +0.000 HD
ENDBRANCH   2   3
BRANCH   1  14
ATOM     13  C   UNL     1       6.330   5.094  14.781  0.00  0.00    +0.000 C 
ATOM     14  C   UNL     1       5.608   5.318  16.142  0.00  0.00    +0.000 C 
ATOM     15  C   UNL     1       4.840   6.647  15.987  0.00  0.00    +0.000 C 
ATOM     16  C   UNL     1       4.629   4.126  16.260  0.00  0.00    +0.000 C 
ENDBRANCH   1  14
BRANCH   1  17
ATOM     17  O   UNL     1       7.932   5.681  17.023  0.00  0.00    +0.000 OA
ATOM     18  H   UNL     1       8.437   4.880  16.819  0.00  0.00    +0.000 HD
ENDBRANCH   1  17
BRANCH   2  19
ATOM     19  C   UNL     1       7.439   5.416  19.601  0.00  0.00    +0.000 C 
ATOM     20  N   UNL     1       8.336   5.436  20.342  0.00  0.00    +0.000 NA
ENDBRANCH   2  19
TORSDOF 4
ENDMDL
MODEL 5
REMARK VINA RESULT:      -7.0      3.621      5.738
REMARK  Name = 
REMARK  7 active torsions:
REMARK  status: ('A' for Active; 'I' for Inactive)
REMARK    1  A    between atoms: C_1  and  C_2
REMARK    2  A    between atoms: C_2  and  C_3
REMARK    3  A    between atoms: C_2  and  C_4
REMARK    4  A    between atoms: C_2  and  C_5
REMARK    5  A    between atoms: C_5  and  O_6
REMARK    6  A    between atoms: C_7  and  C_8
REMARK    7  A    between atoms: C_7  and  C_10
REMARK                            x       y       z     vdW  Elec       q    Type
REMARK                         _______ _______ _______ _____ _____    ______ ____
ROOT
ATOM      1  C   UNL     1       6.767   5.563  16.236  0.00  0.00    +0.000 C 
ATOM      2  C   UNL     1       5.832   4.641  15.886  0.00  0.00    +0.000 C 
ENDROOT
BRANCH   2   3
ATOM      3  C   UNL     1       4.732   4.242  16.709  0.00  0.00    +0.000 A 
ATOM      4  N   UNL     1       3.520   4.739  16.865  0.00  0.00    +0.000 NA
ATOM      5  C   UNL     1       2.819   3.849  17.636  0.00  0.00    +0.000 A 
ATOM      6  C   UNL     1       1.480   3.873  18.046  0.00  0.00    +0.000 A 
ATOM      7  C   UNL     1       0.989   2.785  18.778  0.00  0.00    +0.000 A 
ATOM      8  C   UNL     1       1.816   1.704  19.097  0.00  0.00    +0.000 A 
ATOM      9  C   UNL     1       3.165   1.684  18.725  0.00  0.00    +0.000 A 
ATOM     10  C   UNL     1       3.625   2.783  17.999  0.00  0.00    +0.000 A 
ATOM     11  N   UNL     1       4.854   3.098  17.480  0.00  0.00    +0.000 N 
ATOM     12  H   UNL     1       5.690   2.540  17.589  0.00  0.00    +0.000 HD
ENDBRANCH   2   3
BRANCH   1  14
ATOM     13  C   UNL     1       5.575   6.772  18.202  0.00  0.00    +0.000 C 
ATOM     14  C   UNL     1       6.934   6.342  17.578  0.00  0.00    +0.000 C 
ATOM     15  C   UNL     1       7.714   7.652  17.347  0.00  0.00    +0.000 C 
ATOM     16  C   UNL     1       7.609   5.485  18.674  0.00  0.00    +0.000 C 
ENDBRANCH   1  14
BRANCH   1  17
ATOM     17  O   UNL     1       7.735   5.832  15.252  0.00  0.00    +0.000 OA
ATOM     18  H   UNL     1       7.817   6.779  15.069  0.00  0.00    +0.000 HD
ENDBRANCH   1  17
BRANCH   2  19
ATOM     19  C   UNL     1       5.928   4.028  14.584  0.00  0.00    +0.000 C 
ATOM     20  N   UNL     1       6.101   3.596  13.517  0.00  0.00    +0.000 NA
ENDBRANCH   2  19
TORSDOF 4
ENDMDL
MODEL 6
REMARK VINA RESULT:      -6.9      3.599      5.721
REMARK  Name = 
REMARK  7 active torsions:
REMARK  status: ('A' for Active; 'I' for Inactive)
REMARK    1  A    between atoms: C_1  and  C_2
REMARK    2  A    between atoms: C_2  and  C_3
REMARK    3  A    between atoms: C_2  and  C_4
REMARK    4  A    between atoms: C_2  and  C_5
REMARK    5  A    between atoms: C_5  and  O_6
REMARK    6  A    between atoms: C_7  and  C_8
REMARK    7  A    between atoms: C_7  and  C_10
REMARK                            x       y       z     vdW  Elec       q    Type
REMARK                         _______ _______ _______ _____ _____    ______ ____
ROOT
ATOM      1  C   UNL     1       6.757   5.594  16.271  0.00  0.00    +0.000 C 
ATOM      2  C   UNL     1       5.832   4.662  15.920  0.00  0.00    +0.000 C 
ENDROOT
BRANCH   2   3
ATOM      3  C   UNL     1       4.727   4.262  16.735  0.00  0.00    +0.000 A 
ATOM      4  N   UNL     1       3.510   4.753  16.876  0.00  0.00    +0.000 NA
ATOM      5  C   UNL     1       2.807   3.864  17.646  0.00  0.00    +0.000 A 
ATOM      6  C   UNL     1       1.464   3.884  18.043  0.00  0.00    +0.000 A 
ATOM      7  C   UNL     1       0.971   2.798  18.777  0.00  0.00    +0.000 A 
ATOM      8  C   UNL     1       1.801   1.723  19.111  0.00  0.00    +0.000 A 
ATOM      9  C   UNL     1       3.154   1.708  18.753  0.00  0.00    +0.000 A 
ATOM     10  C   UNL     1       3.615   2.806  18.024  0.00  0.00    +0.000 A 
ATOM     11  N   UNL     1       4.848   3.124  17.515  0.00  0.00    +0.000 N 
ATOM     12  H   UNL     1       5.685   2.572  17.636  0.00  0.00    +0.000 HD
ENDBRANCH   2   3
BRANCH   1  14
ATOM     13  C   UNL     1       7.606   5.564  18.726  0.00  0.00    +0.000 C 
ATOM     14  C   UNL     1       6.903   6.387  17.607  0.00  0.00    +0.000 C 
ATOM     15  C   UNL     1       5.515   6.750  18.174  0.00  0.00    +0.000 C 
ATOM     16  C   UNL     1       7.781   7.650  17.448  0.00  0.00    +0.000 C 
ENDBRANCH   1  14
BRANCH   1  17
ATOM     17  O   UNL     1       7.733   5.861  15.295  0.00  0.00    +0.000 OA
ATOM     18  H   UNL     1       8.606   5.533  15.553  0.00  0.00    +0.000 HD
ENDBRANCH   1  17
BRANCH   2  19
ATOM     19  C   UNL     1       5.947   4.038  14.625  0.00  0.00    +0.000 C 
ATOM     20  N   UNL     1       6.105   3.625  13.548  0.00  0.00    +0.000 NA
ENDBRANCH   2  19
TORSDOF 4
ENDMDL
MODEL 7
REMARK VINA RESULT:      -6.9      2.918      4.578
REMARK  Name = 
REMARK  7 active torsions:
REMARK  status: ('A' for Active; 'I' for Inactive)
REMARK    1  A    between atoms: C_1  and  C_2
REMARK    2  A    between atoms: C_2  and  C_3
REMARK    3  A    between atoms: C_2  and  C_4
REMARK    4  A    between atoms: C_2  and  C_5
REMARK    5  A    between atoms: C_5  and  O_6
REMARK    6  A    between atoms: C_7  and  C_8
REMARK    7  A    between atoms: C_7  and  C_10
REMARK                            x       y       z     vdW  Elec       q    Type
REMARK                         _______ _______ _______ _____ _____    ______ ____
ROOT
ATOM      1  C   UNL     1       6.620   5.388  17.346  0.00  0.00    +0.000 C 
ATOM      2  C   UNL     1       6.372   5.238  18.674  0.00  0.00    +0.000 C 
ENDROOT
BRANCH   2   3
ATOM      3  C   UNL     1       5.096   4.918  19.235  0.00  0.00    +0.000 A 
ATOM      4  N   UNL     1       4.039   5.660  19.502  0.00  0.00    +0.000 NA
ATOM      5  C   UNL     1       3.028   4.805  19.853  0.00  0.00    +0.000 A 
ATOM      6  C   UNL     1       1.692   5.074  20.176  0.00  0.00    +0.000 A 
ATOM      7  C   UNL     1       0.838   3.993  20.428  0.00  0.00    +0.000 A 
ATOM      8  C   UNL     1       1.308   2.678  20.365  0.00  0.00    +0.000 A 
ATOM      9  C   UNL     1       2.649   2.397  20.080  0.00  0.00    +0.000 A 
ATOM     10  C   UNL     1       3.475   3.494  19.836  0.00  0.00    +0.000 A 
ATOM     11  N   UNL     1       4.808   3.598  19.533  0.00  0.00    +0.000 N 
ATOM     12  H   UNL     1       5.450   2.819  19.469  0.00  0.00    +0.000 HD
ENDBRANCH   2   3
BRANCH   1  14
ATOM     13  C   UNL     1       4.590   4.177  16.268  0.00  0.00    +0.000 C 
ATOM     14  C   UNL     1       5.627   5.330  16.143  0.00  0.00    +0.000 C 
ATOM     15  C   UNL     1       6.388   5.058  14.829  0.00  0.00    +0.000 C 
ATOM     16  C   UNL     1       4.768   6.611  16.028  0.00  0.00    +0.000 C 
ENDBRANCH   1  14
BRANCH   1  17
ATOM     17  O   UNL     1       7.959   5.659  17.016  0.00  0.00    +0.000 OA
ATOM     18  H   UNL     1       8.238   6.537  17.314  0.00  0.00    +0.000 HD
ENDBRANCH   1  17
BRANCH   2  19
ATOM     19  C   UNL     1       7.472   5.385  19.595  0.00  0.00    +0.000 C 
ATOM     20  N   UNL     1       8.322   5.408  20.390  0.00  0.00    +0.000 NA
ENDBRANCH   2  19
TORSDOF 4
ENDMDL
MODEL 8
REMARK VINA RESULT:      -6.8      0.450      1.718
REMARK  Name = 
REMARK  7 active torsions:
REMARK  status: ('A' for Active; 'I' for Inactive)
REMARK    1  A    between atoms: C_1  and  C_2
REMARK    2  A    between atoms: C_2  and  C_3
REMARK    3  A    between atoms: C_2  and  C_4
REMARK    4  A    between atoms: C_2  and  C_5
REMARK    5  A    between atoms: C_5  and  O_6
REMARK    6  A    between atoms: C_7  and  C_8
REMARK    7  A    between atoms: C_7  and  C_10
REMARK                            x       y       z     vdW  Elec       q    Type
REMARK                         _______ _______ _______ _____ _____    ______ ____
ROOT
ATOM      1  C   UNL     1       3.817   3.653  19.192  0.00  0.00    +0.000 C 
ATOM      2  C   UNL     1       4.179   4.959  19.286  0.00  0.00    +0.000 C 
ENDROOT
BRANCH   2   3
ATOM      3  C   UNL     1       3.267   6.061  19.294  0.00  0.00    +0.000 A 
ATOM      4  N   UNL     1       2.483   6.550  20.235  0.00  0.00    +0.000 NA
ATOM      5  C   UNL     1       1.969   7.726  19.755  0.00  0.00    +0.000 A 
ATOM      6  C   UNL     1       1.129   8.661  20.375  0.00  0.00    +0.000 A 
ATOM      7  C   UNL     1       0.809   9.832  19.678  0.00  0.00    +0.000 A 
ATOM      8  C   UNL     1       1.309  10.061  18.392  0.00  0.00    +0.000 A 
ATOM      9  C   UNL     1       2.119   9.119  17.748  0.00  0.00    +0.000 A 
ATOM     10  C   UNL     1       2.418   7.962  18.467  0.00  0.00    +0.000 A 
ATOM     11  N   UNL     1       3.162   6.851  18.162  0.00  0.00    +0.000 N 
ATOM     12  H   UNL     1       3.616   6.683  17.275  0.00  0.00    +0.000 HD
ENDBRANCH   2   3
BRANCH   1  14
ATOM     13  C   UNL     1       1.541   3.076  20.306  0.00  0.00    +0.000 C 
ATOM     14  C   UNL     1       2.397   3.032  19.006  0.00  0.00    +0.000 C 
ATOM     15  C   UNL     1       2.506   1.539  18.635  0.00  0.00    +0.000 C 
ATOM     16  C   UNL     1       1.553   3.800  17.962  0.00  0.00    +0.000 C 
ENDBRANCH   1  14
BRANCH   1  17
ATOM     17  O   UNL     1       4.880   2.735  19.248  0.00  0.00    +0.000 OA
ATOM     18  H   UNL     1       5.281   2.588  18.379  0.00  0.00    +0.000 HD
ENDBRANCH   1  17
BRANCH   2  19
ATOM     19  C   UNL     1       5.582   5.273  19.410  0.00  0.00    +0.000 C 
ATOM     20  N   UNL     1       6.727   5.420  19.554  0.00  0.00    +0.000 NA
ENDBRANCH   2  19
TORSDOF 4
ENDMDL
MODEL 9
REMARK VINA RESULT:      -6.8      0.478      1.442
REMARK  Name = 
REMARK  7 active torsions:
REMARK  status: ('A' for Active; 'I' for Inactive)
REMARK    1  A    between atoms: C_1  and  C_2
REMARK    2  A    between atoms: C_2  and  C_3
REMARK    3  A    between atoms: C_2  and  C_4
REMARK    4  A    between atoms: C_2  and  C_5
REMARK    5  A    between atoms: C_5  and  O_6
REMARK    6  A    between atoms: C_7  and  C_8
REMARK    7  A    between atoms: C_7  and  C_10
REMARK                            x       y       z     vdW  Elec       q    Type
REMARK                         _______ _______ _______ _____ _____    ______ ____
ROOT
ATOM      1  C   UNL     1       3.817   3.598  19.302  0.00  0.00    +0.000 C 
ATOM      2  C   UNL     1       4.187   4.906  19.338  0.00  0.00    +0.000 C 
ENDROOT
BRANCH   2   3
ATOM      3  C   UNL     1       3.279   6.011  19.332  0.00  0.00    +0.000 A 
ATOM      4  N   UNL     1       2.505   6.522  20.270  0.00  0.00    +0.000 NA
ATOM      5  C   UNL     1       1.992   7.691  19.772  0.00  0.00    +0.000 A 
ATOM      6  C   UNL     1       1.162   8.641  20.381  0.00  0.00    +0.000 A 
ATOM      7  C   UNL     1       0.841   9.800  19.663  0.00  0.00    +0.000 A 
ATOM      8  C   UNL     1       1.330  10.002  18.369  0.00  0.00    +0.000 A 
ATOM      9  C   UNL     1       2.130   9.043  17.736  0.00  0.00    +0.000 A 
ATOM     10  C   UNL     1       2.431   7.899  18.475  0.00  0.00    +0.000 A 
ATOM     11  N   UNL     1       3.168   6.779  18.186  0.00  0.00    +0.000 N 
ATOM     12  H   UNL     1       3.613   6.592  17.298  0.00  0.00    +0.000 HD
ENDBRANCH   2   3
BRANCH   1  14
ATOM     13  C   UNL     1       2.415   1.479  18.760  0.00  0.00    +0.000 C 
ATOM     14  C   UNL     1       2.390   2.978  19.179  0.00  0.00    +0.000 C 
ATOM     15  C   UNL     1       1.582   3.699  18.080  0.00  0.00    +0.000 C 
ATOM     16  C   UNL     1       1.626   2.991  20.523  0.00  0.00    +0.000 C 
ENDBRANCH   1  14
BRANCH   1  17
ATOM     17  O   UNL     1       4.878   2.677  19.360  0.00  0.00    +0.000 OA
ATOM     18  H   UNL     1       5.665   2.998  18.897  0.00  0.00    +0.000 HD
ENDBRANCH   1  17
BRANCH   2  19
ATOM     19  C   UNL     1       5.593   5.216  19.410  0.00  0.00    +0.000 C 
ATOM     20  N   UNL     1       6.723   5.439  19.581  0.00  0.00    +0.000 NA
ENDBRANCH   2  19
TORSDOF 4
ENDMDL
