MODEL 1
REMARK VINA RESULT:      -6.9      0.000      0.000
REMARK  Name = 
REMARK  8 active torsions:
REMARK  status: ('A' for Active; 'I' for Inactive)
REMARK    1  A    between atoms: C_1  and  O_2
REMARK    2  A    between atoms: O_2  and  C_3
REMARK    3  A    between atoms: C_5  and  C_6
REMARK    4  A    between atoms: C_6  and  N_7
REMARK    5  A    between atoms: C_15  and  O_16
REMARK    6  A    between atoms: O_16  and  C_17
REMARK    7  A    between atoms: C_18  and  O_19
REMARK    8  A    between atoms: O_19  and  C_20
REMARK                            x       y       z     vdW  Elec       q    Type
REMARK                         _______ _______ _______ _____ _____    ______ ____
ROOT
ATOM      1  C   UNL     1       6.124   5.059  16.279  0.00  0.00    +0.000 A 
ATOM      2  C   UNL     1       5.259   3.995  16.558  0.00  0.00    +0.000 A 
ATOM      3  C   UNL     1       4.003   4.216  17.119  0.00  0.00    +0.000 A 
ATOM      4  C   UNL     1       3.669   5.516  17.500  0.00  0.00    +0.000 A 
ATOM      5  C   UNL     1       4.545   6.594  17.302  0.00  0.00    +0.000 A 
ATOM      6  C   UNL     1       5.789   6.378  16.669  0.00  0.00    +0.000 A 
ENDROOT
BRANCH   1   8
ATOM      7  C   UNL     1       7.315   4.874  14.233  0.00  0.00    +0.000 C 
ATOM      8  O   UNL     1       7.330   4.824  15.660  0.00  0.00    +0.000 OA
ENDBRANCH   1   8
BRANCH   5   9
ATOM      9  O   UNL     1       3.995   7.766  17.761  0.00  0.00    +0.000 OA
ATOM     10  C   UNL     1       2.660   7.779  18.236  0.00  0.00    +0.000 C 
ENDBRANCH   5   9
BRANCH   6  11
ATOM     11  O   UNL     1       6.599   7.476  16.506  0.00  0.00    +0.000 OA
ATOM     12  C   UNL     1       7.546   7.790  17.516  0.00  0.00    +0.000 C 
ENDBRANCH   6  11
BRANCH   3  13
ATOM     13  C   UNL     1       2.968   3.114  17.172  0.00  0.00    +0.000 C 
BRANCH  13  14
ATOM     14  N   UNL     1       2.545   2.683  18.522  0.00  0.00    +0.000 NA
ATOM     15  C   UNL     1       3.596   2.943  19.510  0.00  0.00    +0.000 C 
ATOM     16  C   UNL     1       3.430   2.119  20.793  0.00  0.00    +0.000 C 
ATOM     17  C   UNL     1       2.468   2.706  21.815  0.00  0.00    +0.000 C 
ATOM     18  C   UNL     1       1.035   2.826  21.325  0.00  0.00    +0.000 C 
ATOM     19  C   UNL     1       0.894   3.826  20.189  0.00  0.00    +0.000 C 
ATOM     20  C   UNL     1       1.223   3.270  18.804  0.00  0.00    +0.000 C 
ENDBRANCH  13  14
ENDBRANCH   3  13
TORSDOF 5
ENDMDL
MODEL 2
REMARK VINA RESULT:      -6.7      0.247      2.878
REMARK  Name = 
REMARK  8 active torsions:
REMARK  status: ('A' for Active; 'I' for Inactive)
REMARK    1  A    between atoms: C_1  and  O_2
REMARK    2  A    between atoms: O_2  and  C_3
REMARK    3  A    between atoms: C_5  and  C_6
REMARK    4  A    between atoms: C_6  and  N_7
REMARK    5  A    between atoms: C_15  and  O_16
REMARK    6  A    between atoms: O_16  and  C_17
REMARK    7  A    between atoms: C_18  and  O_19
REMARK    8  A    between atoms: O_19  and  C_20
REMARK                            x       y       z     vdW  Elec       q    Type
REMARK                         _______ _______ _______ _____ _____    ______ ____
ROOT
ATOM      1  C   UNL     1       4.340   6.428  17.380  0.00  0.00    +0.000 A 
ATOM      2  C   UNL     1       3.465   5.336  17.347  0.00  0.00    +0.000 A 
ATOM      3  C   UNL     1       3.875   4.098  16.855  0.00  0.00    +0.000 A 
ATOM      4  C   UNL     1       5.148   4.000  16.293  0.00  0.00    +0.000 A 
ATOM      5  C   UNL     1       6.023   5.096  16.242  0.00  0.00    +0.000 A 
ATOM      6  C   UNL     1       5.631   6.331  16.805  0.00  0.00    +0.000 A 
ENDROOT
BRANCH   1   8
ATOM      7  C   UNL     1       2.527   7.782  18.099  0.00  0.00    +0.000 C 
ATOM      8  O   UNL     1       3.936   7.620  17.935  0.00  0.00    +0.000 OA
ENDBRANCH   1   8
BRANCH   5   9
ATOM      9  O   UNL     1       7.208   4.753  15.641  0.00  0.00    +0.000 OA
ATOM     10  C   UNL     1       7.317   4.787  14.228  0.00  0.00    +0.000 C 
ENDBRANCH   5   9
BRANCH   6  11
ATOM     11  O   UNL     1       6.534   7.363  16.723  0.00  0.00    +0.000 OA
ATOM     12  C   UNL     1       7.590   7.432  17.670  0.00  0.00    +0.000 C 
ENDBRANCH   6  11
BRANCH   3  13
ATOM     13  C   UNL     1       3.033   2.859  17.065  0.00  0.00    +0.000 C 
BRANCH  13  14
ATOM     14  N   UNL     1       2.658   2.557  18.463  0.00  0.00    +0.000 NA
ATOM     15  C   UNL     1       3.679   3.041  19.398  0.00  0.00    +0.000 C 
ATOM     16  C   UNL     1       3.599   2.369  20.774  0.00  0.00    +0.000 C 
ATOM     17  C   UNL     1       2.584   2.979  21.730  0.00  0.00    +0.000 C 
ATOM     18  C   UNL     1       1.145   2.892  21.248  0.00  0.00    +0.000 C 
ATOM     19  C   UNL     1       0.902   3.725  20.001  0.00  0.00    +0.000 C 
ATOM     20  C   UNL     1       1.284   3.039  18.690  0.00  0.00    +0.000 C 
ENDBRANCH  13  14
ENDBRANCH   3  13
TORSDOF 5
ENDMDL
MODEL 3
REMARK VINA RESULT:      -6.6      1.709      3.688
REMARK  Name = 
REMARK  8 active torsions:
REMARK  status: ('A' for Active; 'I' for Inactive)
REMARK    1  A    between atoms: C_1  and  O_2
REMARK    2  A    between atoms: O_2  and  C_3
REMARK    3  A    between atoms: C_5  and  C_6
REMARK    4  A    between atoms: C_6  and  N_7
REMARK    5  A    between atoms: C_15  and  O_16
REMARK    6  A    between atoms: O_16  and  C_17
REMARK    7  A    between atoms: C_18  and  O_19
REMARK    8  A    between atoms: O_19  and  C_20
REMARK                            x       y       z     vdW  Elec       q    Type
REMARK                         _______ _______ _______ _____ _____    ______ ____
ROOT
ATOM      1  C   UNL     1       6.853   5.607  16.019  0.00  0.00    +0.000 A 
ATOM      2  C   UNL     1       5.672   5.212  16.657  0.00  0.00    +0.000 A 
ATOM      3  C   UNL     1       4.858   4.218  16.117  0.00  0.00    +0.000 A 
ATOM      4  C   UNL     1       5.192   3.700  14.865  0.00  0.00    +0.000 A 
ATOM      5  C   UNL     1       6.330   4.129  14.164  0.00  0.00    +0.000 A 
ATOM      6  C   UNL     1       7.190   5.086  14.746  0.00  0.00    +0.000 A 
ENDROOT
BRANCH   1   8
ATOM      7  C   UNL     1       7.515   6.710  18.015  0.00  0.00    +0.000 C 
ATOM      8  O   UNL     1       7.676   6.539  16.606  0.00  0.00    +0.000 OA
ENDBRANCH   1   8
BRANCH   5   9
ATOM      9  O   UNL     1       6.441   3.479  12.960  0.00  0.00    +0.000 OA
ATOM     10  C   UNL     1       5.293   3.297  12.149  0.00  0.00    +0.000 C 
ENDBRANCH   5   9
BRANCH   6  11
ATOM     11  O   UNL     1       8.286   5.462  14.008  0.00  0.00    +0.000 OA
ATOM     12  C   UNL     1       8.120   5.758  12.629  0.00  0.00    +0.000 C 
ENDBRANCH   6  11
BRANCH   3  13
ATOM     13  C   UNL     1       3.738   3.602  16.926  0.00  0.00    +0.000 C 
BRANCH  13  14
ATOM     14  N   UNL     1       3.482   4.211  18.249  0.00  0.00    +0.000 NA
ATOM     15  C   UNL     1       2.447   5.245  18.161  0.00  0.00    +0.000 C 
ATOM     16  C   UNL     1       2.465   6.215  19.349  0.00  0.00    +0.000 C 
ATOM     17  C   UNL     1       1.728   5.729  20.589  0.00  0.00    +0.000 C 
ATOM     18  C   UNL     1       2.307   4.464  21.201  0.00  0.00    +0.000 C 
ATOM     19  C   UNL     1       2.157   3.259  20.286  0.00  0.00    +0.000 C 
ATOM     20  C   UNL     1       3.244   3.128  19.220  0.00  0.00    +0.000 C 
ENDBRANCH  13  14
ENDBRANCH   3  13
TORSDOF 5
ENDMDL
MODEL 4
REMARK VINA RESULT:      -6.5      3.033      5.205
REMARK  Name = 
REMARK  8 active torsions:
REMARK  status: ('A' for Active; 'I' for Inactive)
REMARK    1  A    between atoms: C_1  and  O_2
REMARK    2  A    between atoms: O_2  and  C_3
REMARK    3  A    between atoms: C_5  and  C_6
REMARK    4  A    between atoms: C_6  and  N_7
REMARK    5  A    between atoms: C_15  and  O_16
REMARK    6  A    between atoms: O_16  and  C_17
REMARK    7  A    between atoms: C_18  and  O_19
REMARK    8  A    between atoms: O_19  and  C_20
REMARK                            x       y       z     vdW  Elec       q    Type
REMARK                         _______ _______ _______ _____ _____    ______ ____
ROOT
ATOM      1  C   UNL     1       4.998   4.757  18.559  0.00  0.00    +0.000 A 
ATOM      2  C   UNL     1       4.625   6.054  18.184  0.00  0.00    +0.000 A 
ATOM      3  C   UNL     1       3.285   6.399  18.021  0.00  0.00    +0.000 A 
ATOM      4  C   UNL     1       2.326   5.392  18.134  0.00  0.00    +0.000 A 
ATOM      5  C   UNL     1       2.673   4.067  18.434  0.00  0.00    +0.000 A 
ATOM      6  C   UNL     1       4.026   3.734  18.668  0.00  0.00    +0.000 A 
ENDROOT
BRANCH   1   8
ATOM      7  C   UNL     1       7.203   4.676  17.679  0.00  0.00    +0.000 C 
ATOM      8  O   UNL     1       6.322   4.458  18.782  0.00  0.00    +0.000 OA
ENDBRANCH   1   8
BRANCH   5   9
ATOM      9  O   UNL     1       1.560   3.265  18.486  0.00  0.00    +0.000 OA
ATOM     10  C   UNL     1       0.875   3.089  19.714  0.00  0.00    +0.000 C 
ENDBRANCH   5   9
BRANCH   6  11
ATOM     11  O   UNL     1       4.299   2.419  18.958  0.00  0.00    +0.000 OA
ATOM     12  C   UNL     1       4.403   2.020  20.317  0.00  0.00    +0.000 C 
ENDBRANCH   6  11
BRANCH   3  13
ATOM     13  C   UNL     1       2.864   7.846  17.885  0.00  0.00    +0.000 C 
BRANCH  13  14
ATOM     14  N   UNL     1       1.681   8.255  18.673  0.00  0.00    +0.000 NA
ATOM     15  C   UNL     1       1.981   8.260  20.108  0.00  0.00    +0.000 C 
ATOM     16  C   UNL     1       0.723   8.209  20.984  0.00  0.00    +0.000 C 
ATOM     17  C   UNL     1       0.053   9.554  21.225  0.00  0.00    +0.000 C 
ATOM     18  C   UNL     1      -0.463  10.228  19.964  0.00  0.00    +0.000 C 
ATOM     19  C   UNL     1       0.661  10.632  19.024  0.00  0.00    +0.000 C 
ATOM     20  C   UNL     1       1.162   9.514  18.110  0.00  0.00    +0.000 C 
ENDBRANCH  13  14
ENDBRANCH   3  13
TORSDOF 5
ENDMDL
MODEL 5
REMARK VINA RESULT:      -6.3      2.883      5.656
REMARK  Name = 
REMARK  8 active torsions:
REMARK  status: ('A' for Active; 'I' for Inactive)
REMARK    1  A    between atoms: C_1  and  O_2
REMARK    2  A    between atoms: O_2  and  C_3
REMARK    3  A    between atoms: C_5  and  C_6
REMARK    4  A    between atoms: C_6  and  N_7
REMARK    5  A    between atoms: C_15  and  O_16
REMARK    6  A    between atoms: O_16  and  C_17
REMARK    7  A    between atoms: C_18  and  O_19
REMARK    8  A    between atoms: O_19  and  C_20
REMARK                            x       y       z     vdW  Elec       q    Type
REMARK                         _______ _______ _______ _____ _____    ______ ____
ROOT
ATOM      1  C   UNL     1       2.049   4.128  18.588  0.00  0.00    +0.000 A 
ATOM      2  C   UNL     1       2.715   4.998  17.717  0.00  0.00    +0.000 A 
ATOM      3  C   UNL     1       2.985   6.316  18.082  0.00  0.00    +0.000 A 
ATOM      4  C   UNL     1       2.478   6.782  19.296  0.00  0.00    +0.000 A 
ATOM      5  C   UNL     1       1.741   5.955  20.158  0.00  0.00    +0.000 A 
ATOM      6  C   UNL     1       1.529   4.601  19.817  0.00  0.00    +0.000 A 
ENDROOT
BRANCH   1   8
ATOM      7  C   UNL     1       3.031   2.091  17.865  0.00  0.00    +0.000 C 
ATOM      8  O   UNL     1       1.856   2.813  18.235  0.00  0.00    +0.000 OA
ENDBRANCH   1   8
BRANCH   5   9
ATOM      9  O   UNL     1       1.348   6.640  21.281  0.00  0.00    +0.000 OA
ATOM     10  C   UNL     1       1.214   8.051  21.235  0.00  0.00    +0.000 C 
ENDBRANCH   5   9
BRANCH   6  11
ATOM     11  O   UNL     1       0.801   3.847  20.705  0.00  0.00    +0.000 OA
ATOM     12  C   UNL     1       1.481   2.931  21.552  0.00  0.00    +0.000 C 
ENDBRANCH   6  11
BRANCH   3  13
ATOM     13  C   UNL     1       3.931   7.172  17.269  0.00  0.00    +0.000 C 
BRANCH  13  14
ATOM     14  N   UNL     1       5.279   6.609  17.036  0.00  0.00    +0.000 NA
ATOM     15  C   UNL     1       5.765   5.899  18.223  0.00  0.00    +0.000 C 
ATOM     16  C   UNL     1       7.286   5.708  18.227  0.00  0.00    +0.000 C 
ATOM     17  C   UNL     1       7.787   4.510  17.433  0.00  0.00    +0.000 C 
ATOM     18  C   UNL     1       7.476   4.574  15.946  0.00  0.00    +0.000 C 
ATOM     19  C   UNL     1       5.985   4.504  15.664  0.00  0.00    +0.000 C 
ATOM     20  C   UNL     1       5.249   5.838  15.780  0.00  0.00    +0.000 C 
ENDBRANCH  13  14
ENDBRANCH   3  13
TORSDOF 5
ENDMDL
MODEL 6
REMARK VINA RESULT:      -6.3      3.206      5.714
REMARK  Name = 
REMARK  8 active torsions:
REMARK  status: ('A' for Active; 'I' for Inactive)
REMARK    1  A    between atoms: C_1  and  O_2
REMARK    2  A    between atoms: O_2  and  C_3
REMARK    3  A    between atoms: C_5  and  C_6
REMARK    4  A    between atoms: C_6  and  N_7
REMARK    5  A    between atoms: C_15  and  O_16
REMARK    6  A    between atoms: O_16  and  C_17
REMARK    7  A    between atoms: C_18  and  O_19
REMARK    8  A    between atoms: O_19  and  C_20
REMARK                            x       y       z     vdW  Elec       q    Type
REMARK                         _______ _______ _______ _____ _____    ______ ____
ROOT
ATOM      1  C   UNL     1       2.536   4.077  18.084  0.00  0.00    +0.000 A 
ATOM      2  C   UNL     1       2.121   5.414  18.044  0.00  0.00    +0.000 A 
ATOM      3  C   UNL     1       3.003   6.451  18.341  0.00  0.00    +0.000 A 
ATOM      4  C   UNL     1       4.284   6.121  18.787  0.00  0.00    +0.000 A 
ATOM      5  C   UNL     1       4.706   4.789  18.910  0.00  0.00    +0.000 A 
ATOM      6  C   UNL     1       3.833   3.742  18.542  0.00  0.00    +0.000 A 
ENDROOT
BRANCH   1   8
ATOM      7  C   UNL     1       0.862   2.538  18.768  0.00  0.00    +0.000 C 
ATOM      8  O   UNL     1       1.669   3.074  17.718  0.00  0.00    +0.000 OA
ENDBRANCH   1   8
BRANCH   5   9
ATOM      9  O   UNL     1       5.998   4.722  19.371  0.00  0.00    +0.000 OA
ATOM     10  C   UNL     1       7.017   5.461  18.720  0.00  0.00    +0.000 C 
ENDBRANCH   5   9
BRANCH   6  11
ATOM     11  O   UNL     1       4.309   2.461  18.685  0.00  0.00    +0.000 OA
ATOM     12  C   UNL     1       4.375   1.892  19.985  0.00  0.00    +0.000 C 
ENDBRANCH   6  11
BRANCH   3  13
ATOM     13  C   UNL     1       2.644   7.889  18.040  0.00  0.00    +0.000 C 
BRANCH  13  14
ATOM     14  N   UNL     1       1.518   8.453  18.815  0.00  0.00    +0.000 NA
ATOM     15  C   UNL     1       1.773   8.363  20.256  0.00  0.00    +0.000 C 
ATOM     16  C   UNL     1       0.498   8.482  21.099  0.00  0.00    +0.000 C 
ATOM     17  C   UNL     1       0.040   9.907  21.376  0.00  0.00    +0.000 C 
ATOM     18  C   UNL     1      -0.327  10.695  20.129  0.00  0.00    +0.000 C 
ATOM     19  C   UNL     1       0.873  10.948  19.231  0.00  0.00    +0.000 C 
ATOM     20  C   UNL     1       1.218   9.796  18.288  0.00  0.00    +0.000 C 
ENDBRANCH  13  14
ENDBRANCH   3  13
TORSDOF 5
ENDMDL
MODEL 7
REMARK VINA RESULT:      -6.2      1.729      3.045
REMARK  Name = 
REMARK  8 active torsions:
REMARK  status: ('A' for Active; 'I' for Inactive)
REMARK    1  A    between atoms: C_1  and  O_2
REMARK    2  A    between atoms: O_2  and  C_3
REMARK    3  A    between atoms: C_5  and  C_6
REMARK    4  A    between atoms: C_6  and  N_7
REMARK    5  A    between atoms: C_15  and  O_16
REMARK    6  A    between atoms: O_16  and  C_17
REMARK    7  A    between atoms: C_18  and  O_19
REMARK    8  A    between atoms: O_19  and  C_20
REMARK                            x       y       z     vdW  Elec       q    Type
REMARK                         _______ _______ _______ _____ _____    ______ ____
ROOT
ATOM      1  C   UNL     1       6.222   4.089  14.208  0.00  0.00    +0.000 A 
ATOM      2  C   UNL     1       5.147   3.572  14.941  0.00  0.00    +0.000 A 
ATOM      3  C   UNL     1       4.879   4.013  16.235  0.00  0.00    +0.000 A 
ATOM      4  C   UNL     1       5.773   4.905  16.827  0.00  0.00    +0.000 A 
ATOM      5  C   UNL     1       6.903   5.385  16.146  0.00  0.00    +0.000 A 
ATOM      6  C   UNL     1       7.134   4.990  14.810  0.00  0.00    +0.000 A 
ENDROOT
BRANCH   1   8
ATOM      7  C   UNL     1       5.263   3.256  12.202  0.00  0.00    +0.000 C 
ATOM      8  O   UNL     1       6.426   3.690  12.908  0.00  0.00    +0.000 OA
ENDBRANCH   1   8
BRANCH   5   9
ATOM      9  O   UNL     1       7.627   6.242  16.937  0.00  0.00    +0.000 OA
ATOM     10  C   UNL     1       7.437   6.236  18.341  0.00  0.00    +0.000 C 
ENDBRANCH   5   9
BRANCH   6  11
ATOM     11  O   UNL     1       8.256   5.496  14.201  0.00  0.00    +0.000 OA
ATOM     12  C   UNL     1       8.213   5.792  12.812  0.00  0.00    +0.000 C 
ENDBRANCH   6  11
BRANCH   3  13
ATOM     13  C   UNL     1       3.577   3.665  16.923  0.00  0.00    +0.000 C 
BRANCH  13  14
ATOM     14  N   UNL     1       3.369   4.262  18.260  0.00  0.00    +0.000 NA
ATOM     15  C   UNL     1       2.389   5.350  18.203  0.00  0.00    +0.000 C 
ATOM     16  C   UNL     1       2.472   6.297  19.407  0.00  0.00    +0.000 C 
ATOM     17  C   UNL     1       1.724   5.828  20.647  0.00  0.00    +0.000 C 
ATOM     18  C   UNL     1       2.242   4.523  21.229  0.00  0.00    +0.000 C 
ATOM     19  C   UNL     1       2.018   3.345  20.296  0.00  0.00    +0.000 C 
ATOM     20  C   UNL     1       3.084   3.176  19.214  0.00  0.00    +0.000 C 
ENDBRANCH  13  14
ENDBRANCH   3  13
TORSDOF 5
ENDMDL
MODEL 8
REMARK VINA RESULT:      -6.2      2.415      4.998
REMARK  Name = 
REMARK  8 active torsions:
REMARK  status: ('A' for Active; 'I' for Inactive)
REMARK    1  A    between atoms: C_1  and  O_2
REMARK    2  A    between atoms: O_2  and  C_3
REMARK    3  A    between atoms: C_5  and  C_6
REMARK    4  A    between atoms: C_6  and  N_7
REMARK    5  A    between atoms: C_15  and  O_16
REMARK    6  A    between atoms: O_16  and  C_17
REMARK    7  A    between atoms: C_18  and  O_19
REMARK    8  A    between atoms: O_19  and  C_20
REMARK                            x       y       z     vdW  Elec       q    Type
REMARK                         _______ _______ _______ _____ _____    ______ ____
ROOT
ATOM      1  C   UNL     1       5.320   6.042  17.106  0.00  0.00    +0.000 A 
ATOM      2  C   UNL     1       4.279   6.604  17.854  0.00  0.00    +0.000 A 
ATOM      3  C   UNL     1       3.300   5.805  18.441  0.00  0.00    +0.000 A 
ATOM      4  C   UNL     1       3.320   4.435  18.174  0.00  0.00    +0.000 A 
ATOM      5  C   UNL     1       4.307   3.851  17.367  0.00  0.00    +0.000 A 
ATOM      6  C   UNL     1       5.338   4.654  16.831  0.00  0.00    +0.000 A 
ENDROOT
BRANCH   1   8
ATOM      7  C   UNL     1       7.391   7.142  17.486  0.00  0.00    +0.000 C 
ATOM      8  O   UNL     1       6.314   6.845  16.596  0.00  0.00    +0.000 OA
ENDBRANCH   1   8
BRANCH   5   9
ATOM      9  O   UNL     1       4.110   2.497  17.250  0.00  0.00    +0.000 OA
ATOM     10  C   UNL     1       3.421   1.795  18.270  0.00  0.00    +0.000 C 
ENDBRANCH   5   9
BRANCH   6  11
ATOM     11  O   UNL     1       6.273   4.019  16.049  0.00  0.00    +0.000 OA
ATOM     12  C   UNL     1       6.089   3.989  14.641  0.00  0.00    +0.000 C 
ENDBRANCH   6  11
BRANCH   3  13
ATOM     13  C   UNL     1       2.340   6.372  19.463  0.00  0.00    +0.000 C 
BRANCH  13  14
ATOM     14  N   UNL     1       2.187   7.843  19.464  0.00  0.00    +0.000 NA
ATOM     15  C   UNL     1       1.619   8.313  18.197  0.00  0.00    +0.000 C 
ATOM     16  C   UNL     1       1.866   9.806  17.946  0.00  0.00    +0.000 C 
ATOM     17  C   UNL     1       0.875  10.745  18.619  0.00  0.00    +0.000 C 
ATOM     18  C   UNL     1       0.880  10.671  20.137  0.00  0.00    +0.000 C 
ATOM     19  C   UNL     1       0.397   9.325  20.652  0.00  0.00    +0.000 C 
ATOM     20  C   UNL     1       1.466   8.234  20.688  0.00  0.00    +0.000 C 
ENDBRANCH  13  14
ENDBRANCH   3  13
TORSDOF 5
ENDMDL
MODEL 9
REMARK VINA RESULT:      -6.2      1.554      2.615
REMARK  Name = 
REMARK  8 active torsions:
REMARK  status: ('A' for Active; 'I' for Inactive)
REMARK    1  A    between atoms: C_1  and  O_2
REMARK    2  A    between atoms: O_2  and  C_3
REMARK    3  A    between atoms: C_5  and  C_6
REMARK    4  A    between atoms: C_6  and  N_7
REMARK    5  A    between atoms: C_15  and  O_16
REMARK    6  A    between atoms: O_16  and  C_17
REMARK    7  A    between atoms: C_18  and  O_19
REMARK    8  A    between atoms: O_19  and  C_20
REMARK                            x       y       z     vdW  Elec       q    Type
REMARK                         _______ _______ _______ _____ _____    ______ ____
ROOT
ATOM      1  C   UNL     1       5.909   4.321  15.161  0.00  0.00    +0.000 A 
ATOM      2  C   UNL     1       4.775   4.316  15.982  0.00  0.00    +0.000 A 
ATOM      3  C   UNL     1       4.553   5.332  16.911  0.00  0.00    +0.000 A 
ATOM      4  C   UNL     1       5.545   6.299  17.081  0.00  0.00    +0.000 A 
ATOM      5  C   UNL     1       6.728   6.289  16.326  0.00  0.00    +0.000 A 
ATOM      6  C   UNL     1       6.918   5.299  15.337  0.00  0.00    +0.000 A 
ENDROOT
BRANCH   1   8
ATOM      7  C   UNL     1       5.390   3.571  12.969  0.00  0.00    +0.000 C 
ATOM      8  O   UNL     1       6.071   3.347  14.204  0.00  0.00    +0.000 OA
ENDBRANCH   1   8
BRANCH   5   9
ATOM      9  O   UNL     1       7.545   7.335  16.677  0.00  0.00    +0.000 OA
ATOM     10  C   UNL     1       7.962   7.481  18.024  0.00  0.00    +0.000 C 
ENDBRANCH   5   9
BRANCH   6  11
ATOM     11  O   UNL     1       8.097   5.347  14.632  0.00  0.00    +0.000 OA
ATOM     12  C   UNL     1       8.065   5.703  13.258  0.00  0.00    +0.000 C 
ENDBRANCH   6  11
BRANCH   3  13
ATOM     13  C   UNL     1       3.215   5.478  17.601  0.00  0.00    +0.000 C 
BRANCH  13  14
ATOM     14  N   UNL     1       2.926   4.499  18.672  0.00  0.00    +0.000 NA
ATOM     15  C   UNL     1       2.300   5.151  19.825  0.00  0.00    +0.000 C 
ATOM     16  C   UNL     1       2.404   4.323  21.112  0.00  0.00    +0.000 C 
ATOM     17  C   UNL     1       1.340   3.247  21.274  0.00  0.00    +0.000 C 
ATOM     18  C   UNL     1       1.373   2.173  20.199  0.00  0.00    +0.000 C 
ATOM     19  C   UNL     1       1.024   2.719  18.825  0.00  0.00    +0.000 C 
ATOM     20  C   UNL     1       2.190   3.368  18.080  0.00  0.00    +0.000 C 
ENDBRANCH  13  14
ENDBRANCH   3  13
TORSDOF 5
ENDMDL
