MODEL 1
REMARK VINA RESULT:      -7.3      0.000      0.000
REMARK  Name = 
REMARK  8 active torsions:
REMARK  status: ('A' for Active; 'I' for Inactive)
REMARK    1  A    between atoms: C_2  and  C_25
REMARK    2  A    between atoms: N_3  and  C_4
REMARK    3  A    between atoms: C_8  and  O_9
REMARK    4  A    between atoms: O_9  and  C_10
REMARK    5  A    between atoms: C_10  and  C_11
REMARK    6  A    between atoms: C_11  and  O_12
REMARK    7  A    between atoms: C_11  and  C_13
REMARK    8  A    between atoms: C_13  and  N_14
REMARK                            x       y       z     vdW  Elec       q    Type
REMARK                         _______ _______ _______ _____ _____    ______ ____
ROOT
ATOM      1  O   UNL     1       3.188   7.610  17.367  0.00  0.00    +0.000 OA
ENDROOT
BRANCH   1   6
ATOM      2  C   UNL     1       1.062   9.221  19.991  0.00  0.00    +0.000 A 
ATOM      3  C   UNL     1       1.062   8.166  20.905  0.00  0.00    +0.000 A 
ATOM      4  C   UNL     1       1.749   6.984  20.631  0.00  0.00    +0.000 A 
ATOM      5  C   UNL     1       2.446   6.851  19.431  0.00  0.00    +0.000 A 
ATOM      6  C   UNL     1       2.452   7.887  18.494  0.00  0.00    +0.000 A 
ATOM      7  C   UNL     1       1.744   9.071  18.773  0.00  0.00    +0.000 A 
BRANCH   2  10
ATOM      8  O   UNL     1      -1.487  10.240  18.881  0.00  0.00    +0.000 OA
ATOM      9  C   UNL     1      -0.796  10.870  19.673  0.00  0.00    +0.000 C 
ATOM     10  N   UNL     1       0.396  10.446  20.247  0.00  0.00    +0.000 N 
ATOM     11  H   UNL     1       0.768  11.059  20.963  0.00  0.00    +0.000 HD
BRANCH   9  12
ATOM     12  C   UNL     1      -1.215  12.192  20.129  0.00  0.00    +0.000 A 
ATOM     13  C   UNL     1      -2.079  12.439  21.169  0.00  0.00    +0.000 A 
ATOM     14  O   UNL     1      -2.244  13.785  21.282  0.00  0.00    +0.000 OA
ATOM     15  C   UNL     1      -1.455  14.291  20.293  0.00  0.00    +0.000 A 
ATOM     16  N   UNL     1      -0.801  13.399  19.576  0.00  0.00    +0.000 NA
ENDBRANCH   9  12
ENDBRANCH   2  10
ENDBRANCH   1   6
BRANCH   1  17
ATOM     17  C   UNL     1       4.501   7.065  17.546  0.00  0.00    +0.000 C 
BRANCH  17  18
ATOM     18  C   UNL     1       4.776   6.000  16.458  0.00  0.00    +0.000 C 
BRANCH  18  19
ATOM     19  O   UNL     1       5.529   6.622  15.406  0.00  0.00    +0.000 OA
ATOM     20  H   UNL     1       5.659   5.942  14.722  0.00  0.00    +0.000 HD
ENDBRANCH  18  19
BRANCH  18  21
ATOM     21  C   UNL     1       5.518   4.758  17.024  0.00  0.00    +0.000 C 
BRANCH  21  22
ATOM     22  N   UNL     1       4.650   3.642  17.462  0.00  0.00    +0.000 NA
ATOM     23  C   UNL     1       3.258   3.845  17.022  0.00  0.00    +0.000 C 
ATOM     24  C   UNL     1       2.382   2.658  17.461  0.00  0.00    +0.000 C 
ATOM     25  C   UNL     1       2.275   2.750  18.958  0.00  0.00    +0.000 A 
ATOM     26  C   UNL     1       1.064   2.544  19.624  0.00  0.00    +0.000 A 
ATOM     27  C   UNL     1       0.946   2.925  20.959  0.00  0.00    +0.000 A 
ATOM     28  C   UNL     1       2.040   3.474  21.628  0.00  0.00    +0.000 A 
ATOM     29  C   UNL     1       3.278   3.584  20.989  0.00  0.00    +0.000 A 
ATOM     30  C   UNL     1       3.410   3.214  19.646  0.00  0.00    +0.000 A 
ATOM     31  C   UNL     1       4.741   3.329  18.910  0.00  0.00    +0.000 C 
ENDBRANCH  21  22
ENDBRANCH  18  21
ENDBRANCH  17  18
ENDBRANCH   1  17
TORSDOF 8
ENDMDL
MODEL 2
REMARK VINA RESULT:      -7.2      1.121      1.164
REMARK  Name = 
REMARK  8 active torsions:
REMARK  status: ('A' for Active; 'I' for Inactive)
REMARK    1  A    between atoms: C_2  and  C_25
REMARK    2  A    between atoms: N_3  and  C_4
REMARK    3  A    between atoms: C_8  and  O_9
REMARK    4  A    between atoms: O_9  and  C_10
REMARK    5  A    between atoms: C_10  and  C_11
REMARK    6  A    between atoms: C_11  and  O_12
REMARK    7  A    between atoms: C_11  and  C_13
REMARK    8  A    between atoms: C_13  and  N_14
REMARK                            x       y       z     vdW  Elec       q    Type
REMARK                         _______ _______ _______ _____ _____    ______ ____
ROOT
ATOM      1  O   UNL     1       3.931   7.416  16.928  0.00  0.00    +0.000 OA
ENDROOT
BRANCH   1   6
ATOM      2  C   UNL     1       1.461   8.909  19.308  0.00  0.00    +0.000 A 
ATOM      3  C   UNL     1       1.475   7.886  20.258  0.00  0.00    +0.000 A 
ATOM      4  C   UNL     1       2.281   6.761  20.084  0.00  0.00    +0.000 A 
ATOM      5  C   UNL     1       3.085   6.655  18.951  0.00  0.00    +0.000 A 
ATOM      6  C   UNL     1       3.081   7.659  17.979  0.00  0.00    +0.000 A 
ATOM      7  C   UNL     1       2.254   8.784  18.157  0.00  0.00    +0.000 A 
BRANCH   2  10
ATOM      8  O   UNL     1       1.279  10.758  21.614  0.00  0.00    +0.000 OA
ATOM      9  C   UNL     1       0.623  10.892  20.588  0.00  0.00    +0.000 C 
ATOM     10  N   UNL     1       0.673  10.077  19.464  0.00  0.00    +0.000 N 
ATOM     11  H   UNL     1       0.138  10.410  18.670  0.00  0.00    +0.000 HD
BRANCH   9  12
ATOM     12  C   UNL     1      -0.301  12.012  20.445  0.00  0.00    +0.000 A 
ATOM     13  C   UNL     1      -1.482  11.986  19.741  0.00  0.00    +0.000 A 
ATOM     14  O   UNL     1      -2.058  13.216  19.818  0.00  0.00    +0.000 OA
ATOM     15  C   UNL     1      -1.185  13.934  20.580  0.00  0.00    +0.000 A 
ATOM     16  N   UNL     1      -0.124  13.274  21.000  0.00  0.00    +0.000 NA
ENDBRANCH   9  12
ENDBRANCH   2  10
ENDBRANCH   1   6
BRANCH   1  17
ATOM     17  C   UNL     1       5.273   7.019  17.233  0.00  0.00    +0.000 C 
BRANCH  17  18
ATOM     18  C   UNL     1       5.585   5.665  16.551  0.00  0.00    +0.000 C 
BRANCH  18  19
ATOM     19  O   UNL     1       6.651   5.874  15.613  0.00  0.00    +0.000 OA
ATOM     20  H   UNL     1       7.209   6.580  15.983  0.00  0.00    +0.000 HD
ENDBRANCH  18  19
BRANCH  18  21
ATOM     21  C   UNL     1       5.947   4.558  17.579  0.00  0.00    +0.000 C 
BRANCH  21  22
ATOM     22  N   UNL     1       4.934   3.493  17.752  0.00  0.00    +0.000 NA
ATOM     23  C   UNL     1       3.689   3.819  17.032  0.00  0.00    +0.000 C 
ATOM     24  C   UNL     1       2.663   2.685  17.200  0.00  0.00    +0.000 C 
ATOM     25  C   UNL     1       2.235   2.719  18.641  0.00  0.00    +0.000 A 
ATOM     26  C   UNL     1       0.896   2.577  19.015  0.00  0.00    +0.000 A 
ATOM     27  C   UNL     1       0.510   2.907  20.312  0.00  0.00    +0.000 A 
ATOM     28  C   UNL     1       1.463   3.343  21.235  0.00  0.00    +0.000 A 
ATOM     29  C   UNL     1       2.816   3.386  20.887  0.00  0.00    +0.000 A 
ATOM     30  C   UNL     1       3.217   3.066  19.585  0.00  0.00    +0.000 A 
ATOM     31  C   UNL     1       4.682   3.112  19.164  0.00  0.00    +0.000 C 
ENDBRANCH  21  22
ENDBRANCH  18  21
ENDBRANCH  17  18
ENDBRANCH   1  17
TORSDOF 8
ENDMDL
MODEL 3
REMARK VINA RESULT:      -7.2      2.133      4.097
REMARK  Name = 
REMARK  8 active torsions:
REMARK  status: ('A' for Active; 'I' for Inactive)
REMARK    1  A    between atoms: C_2  and  C_25
REMARK    2  A    between atoms: N_3  and  C_4
REMARK    3  A    between atoms: C_8  and  O_9
REMARK    4  A    between atoms: O_9  and  C_10
REMARK    5  A    between atoms: C_10  and  C_11
REMARK    6  A    between atoms: C_11  and  O_12
REMARK    7  A    between atoms: C_11  and  C_13
REMARK    8  A    between atoms: C_13  and  N_14
REMARK                            x       y       z     vdW  Elec       q    Type
REMARK                         _______ _______ _______ _____ _____    ______ ____
ROOT
ATOM      1  O   UNL     1       2.432   6.512  20.089  0.00  0.00    +0.000 OA
ENDROOT
BRANCH   1   6
ATOM      2  C   UNL     1       0.747   9.846  19.889  0.00  0.00    +0.000 A 
ATOM      3  C   UNL     1       1.106  10.158  18.577  0.00  0.00    +0.000 A 
ATOM      4  C   UNL     1       1.877   9.278  17.818  0.00  0.00    +0.000 A 
ATOM      5  C   UNL     1       2.294   8.069  18.374  0.00  0.00    +0.000 A 
ATOM      6  C   UNL     1       1.958   7.737  19.689  0.00  0.00    +0.000 A 
ATOM      7  C   UNL     1       1.192   8.639  20.450  0.00  0.00    +0.000 A 
BRANCH   2  10
ATOM      8  O   UNL     1       1.484  12.358  21.272  0.00  0.00    +0.000 OA
ATOM      9  C   UNL     1       0.363  11.866  21.319  0.00  0.00    +0.000 C 
ATOM     10  N   UNL     1      -0.056  10.706  20.680  0.00  0.00    +0.000 N 
ATOM     11  H   UNL     1      -1.049  10.515  20.747  0.00  0.00    +0.000 HD
BRANCH   9  12
ATOM     12  C   UNL     1      -0.699  12.521  22.075  0.00  0.00    +0.000 A 
ATOM     13  C   UNL     1      -1.536  11.903  22.973  0.00  0.00    +0.000 A 
ATOM     14  O   UNL     1      -2.406  12.828  23.460  0.00  0.00    +0.000 OA
ATOM     15  C   UNL     1      -2.043  13.978  22.826  0.00  0.00    +0.000 A 
ATOM     16  N   UNL     1      -1.023  13.871  21.998  0.00  0.00    +0.000 NA
ENDBRANCH   9  12
ENDBRANCH   2  10
ENDBRANCH   1   6
BRANCH   1  17
ATOM     17  C   UNL     1       1.500   5.593  20.671  0.00  0.00    +0.000 C 
BRANCH  17  18
ATOM     18  C   UNL     1       1.695   4.189  20.052  0.00  0.00    +0.000 C 
BRANCH  18  19
ATOM     19  O   UNL     1       0.505   3.425  20.296  0.00  0.00    +0.000 OA
ATOM     20  H   UNL     1       0.265   3.580  21.225  0.00  0.00    +0.000 HD
ENDBRANCH  18  19
BRANCH  18  21
ATOM     21  C   UNL     1       2.022   4.255  18.535  0.00  0.00    +0.000 C 
BRANCH  21  22
ATOM     22  N   UNL     1       3.440   4.026  18.177  0.00  0.00    +0.000 NA
ATOM     23  C   UNL     1       4.291   3.973  19.379  0.00  0.00    +0.000 C 
ATOM     24  C   UNL     1       5.754   3.704  18.986  0.00  0.00    +0.000 C 
ATOM     25  C   UNL     1       6.235   4.946  18.290  0.00  0.00    +0.000 A 
ATOM     26  C   UNL     1       7.496   5.492  18.545  0.00  0.00    +0.000 A 
ATOM     27  C   UNL     1       7.782   6.784  18.112  0.00  0.00    +0.000 A 
ATOM     28  C   UNL     1       6.824   7.511  17.401  0.00  0.00    +0.000 A 
ATOM     29  C   UNL     1       5.602   6.925  17.061  0.00  0.00    +0.000 A 
ATOM     30  C   UNL     1       5.298   5.630  17.495  0.00  0.00    +0.000 A 
ATOM     31  C   UNL     1       3.971   4.961  17.154  0.00  0.00    +0.000 C 
ENDBRANCH  21  22
ENDBRANCH  18  21
ENDBRANCH  17  18
ENDBRANCH   1  17
TORSDOF 8
ENDMDL
MODEL 4
REMARK VINA RESULT:      -7.2      2.210      8.826
REMARK  Name = 
REMARK  8 active torsions:
REMARK  status: ('A' for Active; 'I' for Inactive)
REMARK    1  A    between atoms: C_2  and  C_25
REMARK    2  A    between atoms: N_3  and  C_4
REMARK    3  A    between atoms: C_8  and  O_9
REMARK    4  A    between atoms: O_9  and  C_10
REMARK    5  A    between atoms: C_10  and  C_11
REMARK    6  A    between atoms: C_11  and  O_12
REMARK    7  A    between atoms: C_11  and  C_13
REMARK    8  A    between atoms: C_13  and  N_14
REMARK                            x       y       z     vdW  Elec       q    Type
REMARK                         _______ _______ _______ _____ _____    ______ ____
ROOT
ATOM      1  O   UNL     1       1.215   6.619  21.106  0.00  0.00    +0.000 OA
ENDROOT
BRANCH   1   6
ATOM      2  C   UNL     1       2.992   4.384  18.689  0.00  0.00    +0.000 A 
ATOM      3  C   UNL     1       2.258   3.223  18.934  0.00  0.00    +0.000 A 
ATOM      4  C   UNL     1       1.224   3.215  19.870  0.00  0.00    +0.000 A 
ATOM      5  C   UNL     1       0.916   4.381  20.568  0.00  0.00    +0.000 A 
ATOM      6  C   UNL     1       1.643   5.554  20.351  0.00  0.00    +0.000 A 
ATOM      7  C   UNL     1       2.694   5.548  19.415  0.00  0.00    +0.000 A 
BRANCH   2  10
ATOM      8  O   UNL     1       4.112   6.720  17.255  0.00  0.00    +0.000 OA
ATOM      9  C   UNL     1       4.498   5.570  17.077  0.00  0.00    +0.000 C 
ATOM     10  N   UNL     1       4.033   4.434  17.728  0.00  0.00    +0.000 N 
ATOM     11  H   UNL     1       4.550   3.585  17.528  0.00  0.00    +0.000 HD
BRANCH   9  12
ATOM     12  C   UNL     1       5.570   5.290  16.127  0.00  0.00    +0.000 A 
ATOM     13  C   UNL     1       6.864   5.741  16.230  0.00  0.00    +0.000 A 
ATOM     14  O   UNL     1       7.563   5.295  15.152  0.00  0.00    +0.000 OA
ATOM     15  C   UNL     1       6.643   4.582  14.443  0.00  0.00    +0.000 A 
ATOM     16  N   UNL     1       5.438   4.525  14.974  0.00  0.00    +0.000 NA
ENDBRANCH   9  12
ENDBRANCH   2  10
ENDBRANCH   1   6
BRANCH   1  17
ATOM     17  C   UNL     1       1.590   7.934  20.678  0.00  0.00    +0.000 C 
BRANCH  17  18
ATOM     18  C   UNL     1       0.448   8.930  20.992  0.00  0.00    +0.000 C 
BRANCH  18  19
ATOM     19  O   UNL     1      -0.062   8.626  22.299  0.00  0.00    +0.000 OA
ATOM     20  H   UNL     1      -0.763   7.964  22.172  0.00  0.00    +0.000 HD
ENDBRANCH  18  19
BRANCH  18  21
ATOM     21  C   UNL     1       0.916  10.409  20.900  0.00  0.00    +0.000 C 
BRANCH  21  22
ATOM     22  N   UNL     1       0.060  11.298  20.082  0.00  0.00    +0.000 NA
ATOM     23  C   UNL     1      -1.260  11.491  20.708  0.00  0.00    +0.000 C 
ATOM     24  C   UNL     1      -2.120  12.443  19.857  0.00  0.00    +0.000 C 
ATOM     25  C   UNL     1      -2.454  11.692  18.599  0.00  0.00    +0.000 A 
ATOM     26  C   UNL     1      -3.736  11.717  18.045  0.00  0.00    +0.000 A 
ATOM     27  C   UNL     1      -4.075  10.786  17.065  0.00  0.00    +0.000 A 
ATOM     28  C   UNL     1      -3.127   9.862  16.622  0.00  0.00    +0.000 A 
ATOM     29  C   UNL     1      -1.817   9.906  17.105  0.00  0.00    +0.000 A 
ATOM     30  C   UNL     1      -1.464  10.829  18.095  0.00  0.00    +0.000 A 
ATOM     31  C   UNL     1      -0.048  10.901  18.656  0.00  0.00    +0.000 C 
ENDBRANCH  21  22
ENDBRANCH  18  21
ENDBRANCH  17  18
ENDBRANCH   1  17
TORSDOF 8
ENDMDL
MODEL 5
REMARK VINA RESULT:      -7.1      2.361      9.568
REMARK  Name = 
REMARK  8 active torsions:
REMARK  status: ('A' for Active; 'I' for Inactive)
REMARK    1  A    between atoms: C_2  and  C_25
REMARK    2  A    between atoms: N_3  and  C_4
REMARK    3  A    between atoms: C_8  and  O_9
REMARK    4  A    between atoms: O_9  and  C_10
REMARK    5  A    between atoms: C_10  and  C_11
REMARK    6  A    between atoms: C_11  and  O_12
REMARK    7  A    between atoms: C_11  and  C_13
REMARK    8  A    between atoms: C_13  and  N_14
REMARK                            x       y       z     vdW  Elec       q    Type
REMARK                         _______ _______ _______ _____ _____    ______ ____
ROOT
ATOM      1  O   UNL     1       1.540   6.387  20.958  0.00  0.00    +0.000 OA
ENDROOT
BRANCH   1   6
ATOM      2  C   UNL     1       3.698   4.218  18.804  0.00  0.00    +0.000 A 
ATOM      3  C   UNL     1       3.585   3.044  19.549  0.00  0.00    +0.000 A 
ATOM      4  C   UNL     1       2.817   3.007  20.713  0.00  0.00    +0.000 A 
ATOM      5  C   UNL     1       2.152   4.155  21.139  0.00  0.00    +0.000 A 
ATOM      6  C   UNL     1       2.258   5.348  20.419  0.00  0.00    +0.000 A 
ATOM      7  C   UNL     1       3.046   5.378  19.253  0.00  0.00    +0.000 A 
BRANCH   2  10
ATOM      8  O   UNL     1       6.616   4.554  18.430  0.00  0.00    +0.000 OA
ATOM      9  C   UNL     1       5.823   4.464  17.501  0.00  0.00    +0.000 C 
ATOM     10  N   UNL     1       4.448   4.285  17.604  0.00  0.00    +0.000 N 
ATOM     11  H   UNL     1       3.971   4.123  16.724  0.00  0.00    +0.000 HD
BRANCH   9  12
ATOM     12  C   UNL     1       6.295   4.509  16.121  0.00  0.00    +0.000 A 
ATOM     13  C   UNL     1       5.882   3.674  15.110  0.00  0.00    +0.000 A 
ATOM     14  O   UNL     1       6.555   4.006  13.975  0.00  0.00    +0.000 OA
ATOM     15  C   UNL     1       7.349   5.043  14.362  0.00  0.00    +0.000 A 
ATOM     16  N   UNL     1       7.234   5.405  15.624  0.00  0.00    +0.000 NA
ENDBRANCH   9  12
ENDBRANCH   2  10
ENDBRANCH   1   6
BRANCH   1  17
ATOM     17  C   UNL     1       1.833   7.711  20.496  0.00  0.00    +0.000 C 
BRANCH  17  18
ATOM     18  C   UNL     1       1.108   8.747  21.387  0.00  0.00    +0.000 C 
BRANCH  18  19
ATOM     19  O   UNL     1       2.013   9.157  22.423  0.00  0.00    +0.000 OA
ATOM     20  H   UNL     1       2.358  10.027  22.158  0.00  0.00    +0.000 HD
ENDBRANCH  18  19
BRANCH  18  21
ATOM     21  C   UNL     1       0.593   9.966  20.573  0.00  0.00    +0.000 C 
BRANCH  21  22
ATOM     22  N   UNL     1      -0.029  11.048  21.369  0.00  0.00    +0.000 NA
ATOM     23  C   UNL     1      -0.858  10.500  22.457  0.00  0.00    +0.000 C 
ATOM     24  C   UNL     1      -1.468  11.641  23.290  0.00  0.00    +0.000 C 
ATOM     25  C   UNL     1      -2.481  12.309  22.402  0.00  0.00    +0.000 A 
ATOM     26  C   UNL     1      -3.739  12.690  22.877  0.00  0.00    +0.000 A 
ATOM     27  C   UNL     1      -4.739  13.027  21.968  0.00  0.00    +0.000 A 
ATOM     28  C   UNL     1      -4.471  13.015  20.598  0.00  0.00    +0.000 A 
ATOM     29  C   UNL     1      -3.185  12.733  20.132  0.00  0.00    +0.000 A 
ATOM     30  C   UNL     1      -2.172  12.384  21.033  0.00  0.00    +0.000 A 
ATOM     31  C   UNL     1      -0.758  12.058  20.562  0.00  0.00    +0.000 C 
ENDBRANCH  21  22
ENDBRANCH  18  21
ENDBRANCH  17  18
ENDBRANCH   1  17
TORSDOF 8
ENDMDL
MODEL 6
REMARK VINA RESULT:      -7.1      6.563      7.645
REMARK  Name = 
REMARK  8 active torsions:
REMARK  status: ('A' for Active; 'I' for Inactive)
REMARK    1  A    between atoms: C_2  and  C_25
REMARK    2  A    between atoms: N_3  and  C_4
REMARK    3  A    between atoms: C_8  and  O_9
REMARK    4  A    between atoms: O_9  and  C_10
REMARK    5  A    between atoms: C_10  and  C_11
REMARK    6  A    between atoms: C_11  and  O_12
REMARK    7  A    between atoms: C_11  and  C_13
REMARK    8  A    between atoms: C_13  and  N_14
REMARK                            x       y       z     vdW  Elec       q    Type
REMARK                         _______ _______ _______ _____ _____    ______ ____
ROOT
ATOM      1  O   UNL     1       8.194   9.190  17.274  0.00  0.00    +0.000 OA
ENDROOT
BRANCH   1   6
ATOM      2  C   UNL     1       9.216  12.444  18.813  0.00  0.00    +0.000 A 
ATOM      3  C   UNL     1       9.628  11.944  20.049  0.00  0.00    +0.000 A 
ATOM      4  C   UNL     1       9.556  10.580  20.329  0.00  0.00    +0.000 A 
ATOM      5  C   UNL     1       9.069   9.701  19.363  0.00  0.00    +0.000 A 
ATOM      6  C   UNL     1       8.639  10.176  18.121  0.00  0.00    +0.000 A 
ATOM      7  C   UNL     1       8.702  11.556  17.854  0.00  0.00    +0.000 A 
BRANCH   2  10
ATOM      8  O   UNL     1      11.603  14.094  18.222  0.00  0.00    +0.000 OA
ATOM      9  C   UNL     1      10.462  14.539  18.236  0.00  0.00    +0.000 C 
ATOM     10  N   UNL     1       9.299  13.820  18.485  0.00  0.00    +0.000 N 
ATOM     11  H   UNL     1       8.438  14.338  18.346  0.00  0.00    +0.000 HD
BRANCH   9  12
ATOM     12  C   UNL     1      10.216  15.947  17.944  0.00  0.00    +0.000 A 
ATOM     13  C   UNL     1      10.883  16.695  17.003  0.00  0.00    +0.000 A 
ATOM     14  O   UNL     1      10.394  17.964  17.034  0.00  0.00    +0.000 OA
ATOM     15  C   UNL     1       9.438  17.918  18.003  0.00  0.00    +0.000 A 
ATOM     16  N   UNL     1       9.267  16.743  18.577  0.00  0.00    +0.000 NA
ENDBRANCH   9  12
ENDBRANCH   2  10
ENDBRANCH   1   6
BRANCH   1  17
ATOM     17  C   UNL     1       7.665   7.995  17.862  0.00  0.00    +0.000 C 
BRANCH  17  18
ATOM     18  C   UNL     1       6.798   7.243  16.824  0.00  0.00    +0.000 C 
BRANCH  18  19
ATOM     19  O   UNL     1       7.460   6.012  16.499  0.00  0.00    +0.000 OA
ATOM     20  H   UNL     1       6.816   5.476  16.004  0.00  0.00    +0.000 HD
ENDBRANCH  18  19
BRANCH  18  21
ATOM     21  C   UNL     1       5.354   6.989  17.337  0.00  0.00    +0.000 C 
BRANCH  21  22
ATOM     22  N   UNL     1       5.078   5.614  17.812  0.00  0.00    +0.000 NA
ATOM     23  C   UNL     1       4.223   4.883  16.859  0.00  0.00    +0.000 C 
ATOM     24  C   UNL     1       3.976   3.448  17.358  0.00  0.00    +0.000 C 
ATOM     25  C   UNL     1       3.095   3.573  18.569  0.00  0.00    +0.000 A 
ATOM     26  C   UNL     1       2.009   2.720  18.781  0.00  0.00    +0.000 A 
ATOM     27  C   UNL     1       1.058   3.051  19.744  0.00  0.00    +0.000 A 
ATOM     28  C   UNL     1       1.212   4.208  20.510  0.00  0.00    +0.000 A 
ATOM     29  C   UNL     1       2.352   5.004  20.365  0.00  0.00    +0.000 A 
ATOM     30  C   UNL     1       3.312   4.689  19.397  0.00  0.00    +0.000 A 
ATOM     31  C   UNL     1       4.562   5.539  19.201  0.00  0.00    +0.000 C 
ENDBRANCH  21  22
ENDBRANCH  18  21
ENDBRANCH  17  18
ENDBRANCH   1  17
TORSDOF 8
ENDMDL
MODEL 7
REMARK VINA RESULT:      -7.1      5.415      6.674
REMARK  Name = 
REMARK  8 active torsions:
REMARK  status: ('A' for Active; 'I' for Inactive)
REMARK    1  A    between atoms: C_2  and  C_25
REMARK    2  A    between atoms: N_3  and  C_4
REMARK    3  A    between atoms: C_8  and  O_9
REMARK    4  A    between atoms: O_9  and  C_10
REMARK    5  A    between atoms: C_10  and  C_11
REMARK    6  A    between atoms: C_11  and  O_12
REMARK    7  A    between atoms: C_11  and  C_13
REMARK    8  A    between atoms: C_13  and  N_14
REMARK                            x       y       z     vdW  Elec       q    Type
REMARK                         _______ _______ _______ _____ _____    ______ ____
ROOT
ATOM      1  O   UNL     1       5.600   6.454  16.263  0.00  0.00    +0.000 OA
ENDROOT
BRANCH   1   6
ATOM      2  C   UNL     1       8.161   8.522  18.040  0.00  0.00    +0.000 A 
ATOM      3  C   UNL     1       8.553   7.568  18.981  0.00  0.00    +0.000 A 
ATOM      4  C   UNL     1       7.970   6.301  18.997  0.00  0.00    +0.000 A 
ATOM      5  C   UNL     1       6.987   5.980  18.063  0.00  0.00    +0.000 A 
ATOM      6  C   UNL     1       6.568   6.921  17.119  0.00  0.00    +0.000 A 
ATOM      7  C   UNL     1       7.152   8.201  17.119  0.00  0.00    +0.000 A 
BRANCH   2  10
ATOM      8  O   UNL     1       9.165  10.237  20.236  0.00  0.00    +0.000 OA
ATOM      9  C   UNL     1       9.183  10.571  19.058  0.00  0.00    +0.000 C 
ATOM     10  N   UNL     1       8.749   9.811  17.978  0.00  0.00    +0.000 N 
ATOM     11  H   UNL     1       8.945  10.211  17.068  0.00  0.00    +0.000 HD
BRANCH   9  12
ATOM     12  C   UNL     1       9.727  11.867  18.666  0.00  0.00    +0.000 A 
ATOM     13  C   UNL     1      10.794  12.496  19.262  0.00  0.00    +0.000 A 
ATOM     14  O   UNL     1      10.994  13.689  18.640  0.00  0.00    +0.000 OA
ATOM     15  C   UNL     1      10.025  13.720  17.682  0.00  0.00    +0.000 A 
ATOM     16  N   UNL     1       9.244  12.659  17.631  0.00  0.00    +0.000 NA
ENDBRANCH   9  12
ENDBRANCH   2  10
ENDBRANCH   1   6
BRANCH   1  17
ATOM     17  C   UNL     1       6.028   5.728  15.105  0.00  0.00    +0.000 C 
BRANCH  17  18
ATOM     18  C   UNL     1       5.376   4.324  15.098  0.00  0.00    +0.000 C 
BRANCH  18  19
ATOM     19  O   UNL     1       6.157   3.474  14.246  0.00  0.00    +0.000 OA
ATOM     20  H   UNL     1       6.751   2.971  14.829  0.00  0.00    +0.000 HD
ENDBRANCH  18  19
BRANCH  18  21
ATOM     21  C   UNL     1       5.250   3.727  16.527  0.00  0.00    +0.000 C 
BRANCH  21  22
ATOM     22  N   UNL     1       3.872   3.419  16.970  0.00  0.00    +0.000 NA
ATOM     23  C   UNL     1       3.143   4.647  17.336  0.00  0.00    +0.000 C 
ATOM     24  C   UNL     1       1.704   4.306  17.763  0.00  0.00    +0.000 C 
ATOM     25  C   UNL     1       1.818   3.583  19.075  0.00  0.00    +0.000 A 
ATOM     26  C   UNL     1       0.960   3.855  20.144  0.00  0.00    +0.000 A 
ATOM     27  C   UNL     1       1.283   3.386  21.415  0.00  0.00    +0.000 A 
ATOM     28  C   UNL     1       2.436   2.624  21.607  0.00  0.00    +0.000 A 
ATOM     29  C   UNL     1       3.237   2.268  20.519  0.00  0.00    +0.000 A 
ATOM     30  C   UNL     1       2.931   2.738  19.237  0.00  0.00    +0.000 A 
ATOM     31  C   UNL     1       3.787   2.381  18.027  0.00  0.00    +0.000 C 
ENDBRANCH  21  22
ENDBRANCH  18  21
ENDBRANCH  17  18
ENDBRANCH   1  17
TORSDOF 8
ENDMDL
MODEL 8
REMARK VINA RESULT:      -7.1      2.185      4.012
REMARK  Name = 
REMARK  8 active torsions:
REMARK  status: ('A' for Active; 'I' for Inactive)
REMARK    1  A    between atoms: C_2  and  C_25
REMARK    2  A    between atoms: N_3  and  C_4
REMARK    3  A    between atoms: C_8  and  O_9
REMARK    4  A    between atoms: O_9  and  C_10
REMARK    5  A    between atoms: C_10  and  C_11
REMARK    6  A    between atoms: C_11  and  O_12
REMARK    7  A    between atoms: C_11  and  C_13
REMARK    8  A    between atoms: C_13  and  N_14
REMARK                            x       y       z     vdW  Elec       q    Type
REMARK                         _______ _______ _______ _____ _____    ______ ____
ROOT
ATOM      1  O   UNL     1       1.951   6.140  21.120  0.00  0.00    +0.000 OA
ENDROOT
BRANCH   1   6
ATOM      2  C   UNL     1       0.613   9.518  20.228  0.00  0.00    +0.000 A 
ATOM      3  C   UNL     1       1.158   9.602  18.946  0.00  0.00    +0.000 A 
ATOM      4  C   UNL     1       1.933   8.564  18.429  0.00  0.00    +0.000 A 
ATOM      5  C   UNL     1       2.167   7.426  19.200  0.00  0.00    +0.000 A 
ATOM      6  C   UNL     1       1.643   7.321  20.491  0.00  0.00    +0.000 A 
ATOM      7  C   UNL     1       0.873   8.380  21.008  0.00  0.00    +0.000 A 
BRANCH   2  10
ATOM      8  O   UNL     1       1.399  12.145  21.345  0.00  0.00    +0.000 OA
ATOM      9  C   UNL     1       0.240  11.750  21.301  0.00  0.00    +0.000 C 
ATOM     10  N   UNL     1      -0.200  10.542  20.775  0.00  0.00    +0.000 N 
ATOM     11  H   UNL     1      -1.208  10.438  20.728  0.00  0.00    +0.000 HD
BRANCH   9  12
ATOM     12  C   UNL     1      -0.844  12.586  21.806  0.00  0.00    +0.000 A 
ATOM     13  C   UNL     1      -0.686  13.730  22.552  0.00  0.00    +0.000 A 
ATOM     14  O   UNL     1      -1.918  14.222  22.853  0.00  0.00    +0.000 OA
ATOM     15  C   UNL     1      -2.771  13.340  22.260  0.00  0.00    +0.000 A 
ATOM     16  N   UNL     1      -2.199  12.349  21.606  0.00  0.00    +0.000 NA
ENDBRANCH   9  12
ENDBRANCH   2  10
ENDBRANCH   1   6
BRANCH   1  17
ATOM     17  C   UNL     1       1.265   4.957  20.692  0.00  0.00    +0.000 C 
BRANCH  17  18
ATOM     18  C   UNL     1       1.944   3.709  21.304  0.00  0.00    +0.000 C 
BRANCH  18  19
ATOM     19  O   UNL     1       0.936   2.709  21.511  0.00  0.00    +0.000 OA
ATOM     20  H   UNL     1       1.312   2.065  22.136  0.00  0.00    +0.000 HD
ENDBRANCH  18  19
BRANCH  18  21
ATOM     21  C   UNL     1       3.099   3.170  20.415  0.00  0.00    +0.000 C 
BRANCH  21  22
ATOM     22  N   UNL     1       3.304   3.885  19.134  0.00  0.00    +0.000 NA
ATOM     23  C   UNL     1       3.273   2.952  17.993  0.00  0.00    +0.000 C 
ATOM     24  C   UNL     1       3.456   3.719  16.672  0.00  0.00    +0.000 C 
ATOM     25  C   UNL     1       4.878   4.207  16.667  0.00  0.00    +0.000 A 
ATOM     26  C   UNL     1       5.679   4.131  15.524  0.00  0.00    +0.000 A 
ATOM     27  C   UNL     1       7.055   4.314  15.640  0.00  0.00    +0.000 A 
ATOM     28  C   UNL     1       7.618   4.604  16.884  0.00  0.00    +0.000 A 
ATOM     29  C   UNL     1       6.803   4.780  18.005  0.00  0.00    +0.000 A 
ATOM     30  C   UNL     1       5.420   4.592  17.906  0.00  0.00    +0.000 A 
ATOM     31  C   UNL     1       4.499   4.763  19.109  0.00  0.00    +0.000 C 
ENDBRANCH  21  22
ENDBRANCH  18  21
ENDBRANCH  17  18
ENDBRANCH   1  17
TORSDOF 8
ENDMDL
MODEL 9
REMARK VINA RESULT:      -7.0      6.244      7.272
REMARK  Name = 
REMARK  8 active torsions:
REMARK  status: ('A' for Active; 'I' for Inactive)
REMARK    1  A    between atoms: C_2  and  C_25
REMARK    2  A    between atoms: N_3  and  C_4
REMARK    3  A    between atoms: C_8  and  O_9
REMARK    4  A    between atoms: O_9  and  C_10
REMARK    5  A    between atoms: C_10  and  C_11
REMARK    6  A    between atoms: C_11  and  O_12
REMARK    7  A    between atoms: C_11  and  C_13
REMARK    8  A    between atoms: C_13  and  N_14
REMARK                            x       y       z     vdW  Elec       q    Type
REMARK                         _______ _______ _______ _____ _____    ______ ____
ROOT
ATOM      1  O   UNL     1       9.196   9.829  17.843  0.00  0.00    +0.000 OA
ENDROOT
BRANCH   1   6
ATOM      2  C   UNL     1       9.806  11.664  21.046  0.00  0.00    +0.000 A 
ATOM      3  C   UNL     1      10.887  12.435  20.617  0.00  0.00    +0.000 A 
ATOM      4  C   UNL     1      11.370  12.325  19.313  0.00  0.00    +0.000 A 
ATOM      5  C   UNL     1      10.765  11.438  18.425  0.00  0.00    +0.000 A 
ATOM      6  C   UNL     1       9.689  10.646  18.832  0.00  0.00    +0.000 A 
ATOM      7  C   UNL     1       9.218  10.753  20.154  0.00  0.00    +0.000 A 
BRANCH   2  10
ATOM      8  O   UNL     1       7.490  13.236  22.013  0.00  0.00    +0.000 OA
ATOM      9  C   UNL     1       8.188  12.543  22.744  0.00  0.00    +0.000 C 
ATOM     10  N   UNL     1       9.273  11.767  22.356  0.00  0.00    +0.000 N 
ATOM     11  H   UNL     1       9.659  11.177  23.084  0.00  0.00    +0.000 HD
BRANCH   9  12
ATOM     12  C   UNL     1       7.896  12.450  24.171  0.00  0.00    +0.000 A 
ATOM     13  C   UNL     1       7.035  11.548  24.750  0.00  0.00    +0.000 A 
ATOM     14  O   UNL     1       7.007  11.779  26.091  0.00  0.00    +0.000 OA
ATOM     15  C   UNL     1       7.869  12.821  26.257  0.00  0.00    +0.000 A 
ATOM     16  N   UNL     1       8.446  13.261  25.157  0.00  0.00    +0.000 NA
ENDBRANCH   9  12
ENDBRANCH   2  10
ENDBRANCH   1   6
BRANCH   1  17
ATOM     17  C   UNL     1       7.854   9.349  17.981  0.00  0.00    +0.000 C 
BRANCH  17  18
ATOM     18  C   UNL     1       7.800   7.842  17.635  0.00  0.00    +0.000 C 
BRANCH  18  19
ATOM     19  O   UNL     1       8.237   7.104  18.786  0.00  0.00    +0.000 OA
ATOM     20  H   UNL     1       8.227   6.165  18.530  0.00  0.00    +0.000 HD
ENDBRANCH  18  19
BRANCH  18  21
ATOM     21  C   UNL     1       6.384   7.392  17.181  0.00  0.00    +0.000 C 
BRANCH  21  22
ATOM     22  N   UNL     1       6.049   5.975  17.446  0.00  0.00    +0.000 NA
ATOM     23  C   UNL     1       5.491   5.326  16.246  0.00  0.00    +0.000 C 
ATOM     24  C   UNL     1       5.180   3.847  16.536  0.00  0.00    +0.000 C 
ATOM     25  C   UNL     1       4.017   3.843  17.489  0.00  0.00    +0.000 A 
ATOM     26  C   UNL     1       2.946   2.959  17.341  0.00  0.00    +0.000 A 
ATOM     27  C   UNL     1       1.770   3.184  18.054  0.00  0.00    +0.000 A 
ATOM     28  C   UNL     1       1.683   4.266  18.933  0.00  0.00    +0.000 A 
ATOM     29  C   UNL     1       2.791   5.087  19.155  0.00  0.00    +0.000 A 
ATOM     30  C   UNL     1       3.975   4.879  18.440  0.00  0.00    +0.000 A 
ATOM     31  C   UNL     1       5.202   5.761  18.646  0.00  0.00    +0.000 C 
ENDBRANCH  21  22
ENDBRANCH  18  21
ENDBRANCH  17  18
ENDBRANCH   1  17
TORSDOF 8
ENDMDL
