MODEL 1
REMARK VINA RESULT:      -6.0      0.000      0.000
REMARK  Name = 
REMARK  7 active torsions:
REMARK  status: ('A' for Active; 'I' for Inactive)
REMARK    1  A    between atoms: C_1  and  C_2
REMARK    2  A    between atoms: C_2  and  C_3
REMARK    3  A    between atoms: C_3  and  C_4
REMARK    4  A    between atoms: C_4  and  C_5
REMARK    5  A    between atoms: C_5  and  C_6
REMARK    6  A    between atoms: C_6  and  C_7
REMARK    7  A    between atoms: C_7  and  C_8
REMARK                            x       y       z     vdW  Elec       q    Type
REMARK                         _______ _______ _______ _____ _____    ______ ____
ROOT
ATOM      1  C   UNL     1       6.166   4.822  14.353  0.00  0.00    +0.000 C 
ENDROOT
BRANCH   1   2
ATOM      2  C   UNL     1       6.395   4.468  15.827  0.00  0.00    +0.000 C 
ATOM      3  O   UNL     1       7.660   4.958  16.310  0.00  0.00    +0.000 OA
ATOM      4  O   UNL     1       7.576   6.424  16.313  0.00  0.00    +0.000 OA
ATOM      5  C   UNL     1       6.922   6.784  17.536  0.00  0.00    +0.000 C 
ATOM      6  C   UNL     1       5.580   6.129  17.624  0.00  0.00    +0.000 C 
ATOM      7  O   UNL     1       4.757   6.255  16.460  0.00  0.00    +0.000 OA
ATOM      8  C   UNL     1       5.295   4.949  16.735  0.00  0.00    +0.000 C 
ENDBRANCH   1   2
BRANCH   1   9
ATOM      9  C   UNL     1       5.199   3.852  13.668  0.00  0.00    +0.000 C 
BRANCH   9  10
ATOM     10  C   UNL     1       5.813   3.269  12.395  0.00  0.00    +0.000 C 
BRANCH  10  11
ATOM     11  C   UNL     1       4.733   2.839  11.403  0.00  0.00    +0.000 C 
BRANCH  11  12
ATOM     12  C   UNL     1       3.985   4.048  10.837  0.00  0.00    +0.000 C 
BRANCH  12  14
ATOM     13  C   UNL     1       2.284   4.829   9.150  0.00  0.00    +0.000 C 
ATOM     14  C   UNL     1       3.020   3.630   9.728  0.00  0.00    +0.000 C 
ENDBRANCH  12  14
ENDBRANCH  11  12
ENDBRANCH  10  11
ENDBRANCH   9  10
ENDBRANCH   1   9
TORSDOF 6
ENDMDL
MODEL 2
REMARK VINA RESULT:      -5.9      4.318      5.993
REMARK  Name = 
REMARK  7 active torsions:
REMARK  status: ('A' for Active; 'I' for Inactive)
REMARK    1  A    between atoms: C_1  and  C_2
REMARK    2  A    between atoms: C_2  and  C_3
REMARK    3  A    between atoms: C_3  and  C_4
REMARK    4  A    between atoms: C_4  and  C_5
REMARK    5  A    between atoms: C_5  and  C_6
REMARK    6  A    between atoms: C_6  and  C_7
REMARK    7  A    between atoms: C_7  and  C_8
REMARK                            x       y       z     vdW  Elec       q    Type
REMARK                         _______ _______ _______ _____ _____    ______ ____
ROOT
ATOM      1  C   UNL     1       4.952   4.264  17.125  0.00  0.00    +0.000 C 
ENDROOT
BRANCH   1   2
ATOM      2  C   UNL     1       5.157   5.594  17.860  0.00  0.00    +0.000 C 
ATOM      3  O   UNL     1       5.474   5.398  19.252  0.00  0.00    +0.000 OA
ATOM      4  O   UNL     1       6.798   4.766  19.301  0.00  0.00    +0.000 OA
ATOM      5  C   UNL     1       7.753   5.829  19.189  0.00  0.00    +0.000 C 
ATOM      6  C   UNL     1       7.529   6.602  17.929  0.00  0.00    +0.000 C 
ATOM      7  O   UNL     1       7.387   5.814  16.741  0.00  0.00    +0.000 OA
ATOM      8  C   UNL     1       6.203   6.471  17.229  0.00  0.00    +0.000 C 
ENDBRANCH   1   2
BRANCH   1   9
ATOM      9  C   UNL     1       4.021   3.317  17.886  0.00  0.00    +0.000 C 
BRANCH   9  10
ATOM     10  C   UNL     1       2.621   3.309  17.272  0.00  0.00    +0.000 C 
BRANCH  10  11
ATOM     11  C   UNL     1       1.776   4.467  17.802  0.00  0.00    +0.000 C 
BRANCH  11  12
ATOM     12  C   UNL     1       1.766   4.495  19.331  0.00  0.00    +0.000 C 
BRANCH  12  14
ATOM     13  C   UNL     1       1.448   2.864  21.226  0.00  0.00    +0.000 C 
ATOM     14  C   UNL     1       0.903   3.368  19.899  0.00  0.00    +0.000 C 
ENDBRANCH  12  14
ENDBRANCH  11  12
ENDBRANCH  10  11
ENDBRANCH   9  10
ENDBRANCH   1   9
TORSDOF 6
ENDMDL
MODEL 3
REMARK VINA RESULT:      -5.8      4.511      6.260
REMARK  Name = 
REMARK  7 active torsions:
REMARK  status: ('A' for Active; 'I' for Inactive)
REMARK    1  A    between atoms: C_1  and  C_2
REMARK    2  A    between atoms: C_2  and  C_3
REMARK    3  A    between atoms: C_3  and  C_4
REMARK    4  A    between atoms: C_4  and  C_5
REMARK    5  A    between atoms: C_5  and  C_6
REMARK    6  A    between atoms: C_6  and  C_7
REMARK    7  A    between atoms: C_7  and  C_8
REMARK                            x       y       z     vdW  Elec       q    Type
REMARK                         _______ _______ _______ _____ _____    ______ ____
ROOT
ATOM      1  C   UNL     1       4.443   4.256  17.459  0.00  0.00    +0.000 C 
ENDROOT
BRANCH   1   2
ATOM      2  C   UNL     1       4.828   5.587  18.116  0.00  0.00    +0.000 C 
ATOM      3  O   UNL     1       5.408   5.397  19.421  0.00  0.00    +0.000 OA
ATOM      4  O   UNL     1       6.696   4.724  19.220  0.00  0.00    +0.000 OA
ATOM      5  C   UNL     1       7.641   5.754  18.903  0.00  0.00    +0.000 C 
ATOM      6  C   UNL     1       7.196   6.519  17.698  0.00  0.00    +0.000 C 
ATOM      7  O   UNL     1       6.799   5.722  16.576  0.00  0.00    +0.000 OA
ATOM      8  C   UNL     1       5.754   6.423  17.275  0.00  0.00    +0.000 C 
ENDBRANCH   1   2
BRANCH   1   9
ATOM      9  C   UNL     1       2.935   3.999  17.509  0.00  0.00    +0.000 C 
BRANCH   9  10
ATOM     10  C   UNL     1       2.632   2.501  17.550  0.00  0.00    +0.000 C 
BRANCH  10  11
ATOM     11  C   UNL     1       2.087   2.082  18.915  0.00  0.00    +0.000 C 
BRANCH  11  12
ATOM     12  C   UNL     1       0.852   2.899  19.296  0.00  0.00    +0.000 C 
BRANCH  12  14
ATOM     13  C   UNL     1       1.796   2.783  21.630  0.00  0.00    +0.000 C 
ATOM     14  C   UNL     1       1.068   3.647  20.611  0.00  0.00    +0.000 C 
ENDBRANCH  12  14
ENDBRANCH  11  12
ENDBRANCH  10  11
ENDBRANCH   9  10
ENDBRANCH   1   9
TORSDOF 6
ENDMDL
MODEL 4
REMARK VINA RESULT:      -5.8      3.967      5.739
REMARK  Name = 
REMARK  7 active torsions:
REMARK  status: ('A' for Active; 'I' for Inactive)
REMARK    1  A    between atoms: C_1  and  C_2
REMARK    2  A    between atoms: C_2  and  C_3
REMARK    3  A    between atoms: C_3  and  C_4
REMARK    4  A    between atoms: C_4  and  C_5
REMARK    5  A    between atoms: C_5  and  C_6
REMARK    6  A    between atoms: C_6  and  C_7
REMARK    7  A    between atoms: C_7  and  C_8
REMARK                            x       y       z     vdW  Elec       q    Type
REMARK                         _______ _______ _______ _____ _____    ______ ____
ROOT
ATOM      1  C   UNL     1       5.145   5.275  16.643  0.00  0.00    +0.000 C 
ENDROOT
BRANCH   1   2
ATOM      2  C   UNL     1       6.668   5.134  16.740  0.00  0.00    +0.000 C 
ATOM      3  O   UNL     1       7.353   6.278  16.195  0.00  0.00    +0.000 OA
ATOM      4  O   UNL     1       7.052   7.413  17.076  0.00  0.00    +0.000 OA
ATOM      5  C   UNL     1       7.976   7.328  18.168  0.00  0.00    +0.000 C 
ATOM      6  C   UNL     1       7.845   6.009  18.861  0.00  0.00    +0.000 C 
ATOM      7  O   UNL     1       6.508   5.618  19.192  0.00  0.00    +0.000 OA
ATOM      8  C   UNL     1       7.156   4.881  18.140  0.00  0.00    +0.000 C 
ENDBRANCH   1   2
BRANCH   1   9
ATOM      9  C   UNL     1       4.439   3.918  16.588  0.00  0.00    +0.000 C 
BRANCH   9  10
ATOM     10  C   UNL     1       3.812   3.568  17.938  0.00  0.00    +0.000 C 
BRANCH  10  11
ATOM     11  C   UNL     1       2.579   4.427  18.217  0.00  0.00    +0.000 C 
BRANCH  11  12
ATOM     12  C   UNL     1       1.400   3.572  18.685  0.00  0.00    +0.000 C 
BRANCH  12  14
ATOM     13  C   UNL     1       1.787   3.287  21.159  0.00  0.00    +0.000 C 
ATOM     14  C   UNL     1       0.950   3.973  20.090  0.00  0.00    +0.000 C 
ENDBRANCH  12  14
ENDBRANCH  11  12
ENDBRANCH  10  11
ENDBRANCH   9  10
ENDBRANCH   1   9
TORSDOF 6
ENDMDL
MODEL 5
REMARK VINA RESULT:      -5.7      1.969      2.457
REMARK  Name = 
REMARK  7 active torsions:
REMARK  status: ('A' for Active; 'I' for Inactive)
REMARK    1  A    between atoms: C_1  and  C_2
REMARK    2  A    between atoms: C_2  and  C_3
REMARK    3  A    between atoms: C_3  and  C_4
REMARK    4  A    between atoms: C_4  and  C_5
REMARK    5  A    between atoms: C_5  and  C_6
REMARK    6  A    between atoms: C_6  and  C_7
REMARK    7  A    between atoms: C_7  and  C_8
REMARK                            x       y       z     vdW  Elec       q    Type
REMARK                         _______ _______ _______ _____ _____    ______ ____
ROOT
ATOM      1  C   UNL     1       5.682   5.213  15.699  0.00  0.00    +0.000 C 
ENDROOT
BRANCH   1   2
ATOM      2  C   UNL     1       6.307   4.375  16.820  0.00  0.00    +0.000 C 
ATOM      3  O   UNL     1       7.711   4.653  16.983  0.00  0.00    +0.000 OA
ATOM      4  O   UNL     1       7.817   6.031  17.479  0.00  0.00    +0.000 OA
ATOM      5  C   UNL     1       7.622   5.962  18.897  0.00  0.00    +0.000 C 
ATOM      6  C   UNL     1       6.302   5.335  19.213  0.00  0.00    +0.000 C 
ATOM      7  O   UNL     1       5.182   5.862  18.492  0.00  0.00    +0.000 OA
ATOM      8  C   UNL     1       5.610   4.533  18.143  0.00  0.00    +0.000 C 
ENDBRANCH   1   2
BRANCH   1   9
ATOM      9  C   UNL     1       5.550   4.427  14.391  0.00  0.00    +0.000 C 
BRANCH   9  10
ATOM     10  C   UNL     1       6.870   4.419  13.618  0.00  0.00    +0.000 C 
BRANCH  10  11
ATOM     11  C   UNL     1       6.672   3.918  12.188  0.00  0.00    +0.000 C 
BRANCH  11  12
ATOM     12  C   UNL     1       5.389   3.095  12.059  0.00  0.00    +0.000 C 
BRANCH  12  14
ATOM     13  C   UNL     1       7.132   1.543  11.108  0.00  0.00    +0.000 C 
ATOM     14  C   UNL     1       5.645   1.785  11.314  0.00  0.00    +0.000 C 
ENDBRANCH  12  14
ENDBRANCH  11  12
ENDBRANCH  10  11
ENDBRANCH   9  10
ENDBRANCH   1   9
TORSDOF 6
ENDMDL
MODEL 6
REMARK VINA RESULT:      -5.7      4.430      6.380
REMARK  Name = 
REMARK  7 active torsions:
REMARK  status: ('A' for Active; 'I' for Inactive)
REMARK    1  A    between atoms: C_1  and  C_2
REMARK    2  A    between atoms: C_2  and  C_3
REMARK    3  A    between atoms: C_3  and  C_4
REMARK    4  A    between atoms: C_4  and  C_5
REMARK    5  A    between atoms: C_5  and  C_6
REMARK    6  A    between atoms: C_6  and  C_7
REMARK    7  A    between atoms: C_7  and  C_8
REMARK                            x       y       z     vdW  Elec       q    Type
REMARK                         _______ _______ _______ _____ _____    ______ ____
ROOT
ATOM      1  C   UNL     1       3.804   5.425  18.476  0.00  0.00    +0.000 C 
ENDROOT
BRANCH   1   2
ATOM      2  C   UNL     1       4.557   5.157  17.168  0.00  0.00    +0.000 C 
ATOM      3  O   UNL     1       4.987   6.377  16.533  0.00  0.00    +0.000 OA
ATOM      4  O   UNL     1       6.006   6.974  17.405  0.00  0.00    +0.000 OA
ATOM      5  C   UNL     1       7.241   6.321  17.083  0.00  0.00    +0.000 C 
ATOM      6  C   UNL     1       7.115   4.843  17.271  0.00  0.00    +0.000 C 
ATOM      7  O   UNL     1       6.539   4.428  18.515  0.00  0.00    +0.000 OA
ATOM      8  C   UNL     1       5.737   4.239  17.335  0.00  0.00    +0.000 C 
ENDBRANCH   1   2
BRANCH   1   9
ATOM      9  C   UNL     1       2.286   5.458  18.276  0.00  0.00    +0.000 C 
BRANCH   9  10
ATOM     10  C   UNL     1       1.781   4.147  17.673  0.00  0.00    +0.000 C 
BRANCH  10  11
ATOM     11  C   UNL     1       1.852   3.006  18.688  0.00  0.00    +0.000 C 
BRANCH  11  12
ATOM     12  C   UNL     1       0.749   3.128  19.741  0.00  0.00    +0.000 C 
BRANCH  12  14
ATOM     13  C   UNL     1       2.795   2.724  21.156  0.00  0.00    +0.000 C 
ATOM     14  C   UNL     1       1.332   3.140  21.154  0.00  0.00    +0.000 C 
ENDBRANCH  12  14
ENDBRANCH  11  12
ENDBRANCH  10  11
ENDBRANCH   9  10
ENDBRANCH   1   9
TORSDOF 6
ENDMDL
MODEL 7
REMARK VINA RESULT:      -5.6      4.385      6.306
REMARK  Name = 
REMARK  7 active torsions:
REMARK  status: ('A' for Active; 'I' for Inactive)
REMARK    1  A    between atoms: C_1  and  C_2
REMARK    2  A    between atoms: C_2  and  C_3
REMARK    3  A    between atoms: C_3  and  C_4
REMARK    4  A    between atoms: C_4  and  C_5
REMARK    5  A    between atoms: C_5  and  C_6
REMARK    6  A    between atoms: C_6  and  C_7
REMARK    7  A    between atoms: C_7  and  C_8
REMARK                            x       y       z     vdW  Elec       q    Type
REMARK                         _______ _______ _______ _____ _____    ______ ____
ROOT
ATOM      1  C   UNL     1       4.307   3.615  17.177  0.00  0.00    +0.000 C 
ENDROOT
BRANCH   1   2
ATOM      2  C   UNL     1       4.817   4.638  18.198  0.00  0.00    +0.000 C 
ATOM      3  O   UNL     1       6.150   4.330  18.651  0.00  0.00    +0.000 OA
ATOM      4  O   UNL     1       7.043   4.512  17.500  0.00  0.00    +0.000 OA
ATOM      5  C   UNL     1       7.341   5.912  17.443  0.00  0.00    +0.000 C 
ATOM      6  C   UNL     1       6.081   6.710  17.327  0.00  0.00    +0.000 C 
ATOM      7  O   UNL     1       5.160   6.265  16.325  0.00  0.00    +0.000 OA
ATOM      8  C   UNL     1       4.776   6.055  17.696  0.00  0.00    +0.000 C 
ENDBRANCH   1   2
BRANCH   1   9
ATOM      9  C   UNL     1       2.965   3.003  17.589  0.00  0.00    +0.000 C 
BRANCH   9  10
ATOM     10  C   UNL     1       1.868   4.067  17.646  0.00  0.00    +0.000 C 
BRANCH  10  11
ATOM     11  C   UNL     1       1.298   4.203  19.057  0.00  0.00    +0.000 C 
BRANCH  11  12
ATOM     12  C   UNL     1       0.989   2.835  19.667  0.00  0.00    +0.000 C 
BRANCH  12  14
ATOM     13  C   UNL     1       2.696   2.740  21.518  0.00  0.00    +0.000 C 
ATOM     14  C   UNL     1       1.217   2.838  21.178  0.00  0.00    +0.000 C 
ENDBRANCH  12  14
ENDBRANCH  11  12
ENDBRANCH  10  11
ENDBRANCH   9  10
ENDBRANCH   1   9
TORSDOF 6
ENDMDL
MODEL 8
REMARK VINA RESULT:      -5.6      4.545      6.417
REMARK  Name = 
REMARK  7 active torsions:
REMARK  status: ('A' for Active; 'I' for Inactive)
REMARK    1  A    between atoms: C_1  and  C_2
REMARK    2  A    between atoms: C_2  and  C_3
REMARK    3  A    between atoms: C_3  and  C_4
REMARK    4  A    between atoms: C_4  and  C_5
REMARK    5  A    between atoms: C_5  and  C_6
REMARK    6  A    between atoms: C_6  and  C_7
REMARK    7  A    between atoms: C_7  and  C_8
REMARK                            x       y       z     vdW  Elec       q    Type
REMARK                         _______ _______ _______ _____ _____    ______ ____
ROOT
ATOM      1  C   UNL     1       3.433   4.681  17.379  0.00  0.00    +0.000 C 
ENDROOT
BRANCH   1   2
ATOM      2  C   UNL     1       3.730   3.315  18.008  0.00  0.00    +0.000 C 
ATOM      3  O   UNL     1       4.088   3.427  19.399  0.00  0.00    +0.000 OA
ATOM      4  O   UNL     1       2.890   3.885  20.112  0.00  0.00    +0.000 OA
ATOM      5  C   UNL     1       2.104   2.714  20.366  0.00  0.00    +0.000 C 
ATOM      6  C   UNL     1       1.780   2.014  19.085  0.00  0.00    +0.000 C 
ATOM      7  O   UNL     1       1.269   2.849  18.040  0.00  0.00    +0.000 OA
ATOM      8  C   UNL     1       2.600   2.332  17.862  0.00  0.00    +0.000 C 
ENDBRANCH   1   2
BRANCH   1   9
ATOM      9  C   UNL     1       4.694   5.352  16.829  0.00  0.00    +0.000 C 
BRANCH   9  10
ATOM     10  C   UNL     1       5.753   4.314  16.455  0.00  0.00    +0.000 C 
BRANCH  10  11
ATOM     11  C   UNL     1       7.138   4.731  16.948  0.00  0.00    +0.000 C 
BRANCH  11  12
ATOM     12  C   UNL     1       7.103   5.146  18.420  0.00  0.00    +0.000 C 
BRANCH  12  14
ATOM     13  C   UNL     1       7.614   7.466  17.577  0.00  0.00    +0.000 C 
ATOM     14  C   UNL     1       7.902   6.428  18.651  0.00  0.00    +0.000 C 
ENDBRANCH  12  14
ENDBRANCH  11  12
ENDBRANCH  10  11
ENDBRANCH   9  10
ENDBRANCH   1   9
TORSDOF 6
ENDMDL
MODEL 9
REMARK VINA RESULT:      -5.6      4.305      6.716
REMARK  Name = 
REMARK  7 active torsions:
REMARK  status: ('A' for Active; 'I' for Inactive)
REMARK    1  A    between atoms: C_1  and  C_2
REMARK    2  A    between atoms: C_2  and  C_3
REMARK    3  A    between atoms: C_3  and  C_4
REMARK    4  A    between atoms: C_4  and  C_5
REMARK    5  A    between atoms: C_5  and  C_6
REMARK    6  A    between atoms: C_6  and  C_7
REMARK    7  A    between atoms: C_7  and  C_8
REMARK                            x       y       z     vdW  Elec       q    Type
REMARK                         _______ _______ _______ _____ _____    ______ ____
ROOT
ATOM      1  C   UNL     1       3.716   4.447  17.441  0.00  0.00    +0.000 C 
ENDROOT
BRANCH   1   2
ATOM      2  C   UNL     1       4.666   5.620  17.710  0.00  0.00    +0.000 C 
ATOM      3  O   UNL     1       5.562   5.349  18.804  0.00  0.00    +0.000 OA
ATOM      4  O   UNL     1       6.457   4.271  18.365  0.00  0.00    +0.000 OA
ATOM      5  C   UNL     1       7.500   4.899  17.610  0.00  0.00    +0.000 C 
ATOM      6  C   UNL     1       6.925   5.674  16.468  0.00  0.00    +0.000 C 
ATOM      7  O   UNL     1       5.966   4.971  15.669  0.00  0.00    +0.000 OA
ATOM      8  C   UNL     1       5.463   6.032  16.502  0.00  0.00    +0.000 C 
ENDBRANCH   1   2
BRANCH   1   9
ATOM      9  C   UNL     1       2.322   4.684  18.029  0.00  0.00    +0.000 C 
BRANCH   9  10
ATOM     10  C   UNL     1       2.362   5.739  19.135  0.00  0.00    +0.000 C 
BRANCH  10  11
ATOM     11  C   UNL     1       1.877   5.166  20.466  0.00  0.00    +0.000 C 
BRANCH  11  12
ATOM     12  C   UNL     1       0.844   4.059  20.252  0.00  0.00    +0.000 C 
BRANCH  12  14
ATOM     13  C   UNL     1       2.650   2.831  21.510  0.00  0.00    +0.000 C 
ATOM     14  C   UNL     1       1.198   2.809  21.058  0.00  0.00    +0.000 C 
ENDBRANCH  12  14
ENDBRANCH  11  12
ENDBRANCH  10  11
ENDBRANCH   9  10
ENDBRANCH   1   9
TORSDOF 6
ENDMDL
