MODEL 1
REMARK VINA RESULT:      -7.6      0.000      0.000
REMARK  Name = 
REMARK  13 active torsions:
REMARK  status: ('A' for Active; 'I' for Inactive)
REMARK    1  A    between atoms: C_1  and  C_2
REMARK    2  A    between atoms: C_2  and  N_3
REMARK    3  A    between atoms: N_3  and  C_4
REMARK    4  A    between atoms: N_3  and  C_23
REMARK    5  A    between atoms: C_4  and  C_5
REMARK    6  A    between atoms: C_5  and  C_6
REMARK    7  A    between atoms: C_6  and  C_7
REMARK    8  A    between atoms: C_7  and  C_8
REMARK    9  A    between atoms: C_8  and  O_9
REMARK   10  A    between atoms: O_9  and  C_10
REMARK   11  A    between atoms: C_14  and  C_15
REMARK   12  A    between atoms: C_16  and  C_17
REMARK   13  A    between atoms: C_23  and  C_24
REMARK                            x       y       z     vdW  Elec       q    Type
REMARK                         _______ _______ _______ _____ _____    ______ ____
ROOT
ATOM      1  C   UNL     1       4.227   7.467  17.459  0.00  0.00    +0.000 C 
ENDROOT
BRANCH   1   2
ATOM      2  C   UNL     1       4.279   7.000  16.052  0.00  0.00    +0.000 C 
BRANCH   2   3
ATOM      3  C   UNL     1       5.562   6.170  15.882  0.00  0.00    +0.000 C 
BRANCH   3   4
ATOM      4  C   UNL     1       5.172   4.730  16.088  0.00  0.00    +0.000 C 
BRANCH   4   5
ATOM      5  C   UNL     1       5.750   3.975  17.290  0.00  0.00    +0.000 C 
BRANCH   5   6
ATOM      6  N   UNL     1       5.325   4.444  18.646  0.00  0.00    +0.000 NA
BRANCH   6   8
ATOM      7  C   UNL     1       7.632   5.799  18.885  0.00  0.00    +0.000 C 
ATOM      8  C   UNL     1       6.269   5.294  19.450  0.00  0.00    +0.000 C 
ENDBRANCH   6   8
BRANCH   6   9
ATOM      9  C   UNL     1       4.816   3.303  19.428  0.00  0.00    +0.000 C 
BRANCH   9  10
ATOM     10  C   UNL     1       3.305   3.278  19.517  0.00  0.00    +0.000 A 
ATOM     11  C   UNL     1       2.555   2.382  18.737  0.00  0.00    +0.000 A 
ATOM     12  C   UNL     1       1.157   2.374  18.839  0.00  0.00    +0.000 A 
ATOM     13  C   UNL     1       0.509   3.250  19.717  0.00  0.00    +0.000 A 
ATOM     14  C   UNL     1       1.250   4.141  20.494  0.00  0.00    +0.000 A 
ATOM     15  C   UNL     1       2.643   4.157  20.390  0.00  0.00    +0.000 A 
ENDBRANCH   9  10
ENDBRANCH   6   9
ENDBRANCH   5   6
ENDBRANCH   4   5
ENDBRANCH   3   4
ENDBRANCH   2   3
ENDBRANCH   1   2
BRANCH   1  16
ATOM     16  O   UNL     1       3.084   7.021  18.073  0.00  0.00    +0.000 OA
BRANCH  16  17
ATOM     17  C   UNL     1       2.234   7.882  18.665  0.00  0.00    +0.000 A 
ATOM     18  C   UNL     1       1.583   8.875  17.917  0.00  0.00    +0.000 A 
ATOM     19  C   UNL     1       0.722   9.753  18.511  0.00  0.00    +0.000 A 
ATOM     20  C   UNL     1       0.520   9.721  19.897  0.00  0.00    +0.000 A 
ATOM     21  C   UNL     1      -0.290  10.663  20.554  0.00  0.00    +0.000 A 
ATOM     22  C   UNL     1      -1.057  11.735  19.800  0.00  0.00    +0.000 C 
ATOM     23  C   UNL     1      -0.352  10.618  21.965  0.00  0.00    +0.000 A 
ATOM     24  C   UNL     1      -1.136  11.634  22.753  0.00  0.00    +0.000 C 
ATOM     25  C   UNL     1       0.361   9.612  22.650  0.00  0.00    +0.000 A 
ATOM     26  O   UNL     1       0.341   9.561  23.869  0.00  0.00    +0.000 OA
ATOM     27  O   UNL     1       1.073   8.714  21.985  0.00  0.00    +0.000 OA
ATOM     28  C   UNL     1       1.190   8.735  20.665  0.00  0.00    +0.000 A 
ATOM     29  C   UNL     1       2.018   7.798  20.040  0.00  0.00    +0.000 A 
ENDBRANCH  16  17
ENDBRANCH   1  16
TORSDOF 10
ENDMDL
MODEL 2
REMARK VINA RESULT:      -7.3      6.000      7.799
REMARK  Name = 
REMARK  13 active torsions:
REMARK  status: ('A' for Active; 'I' for Inactive)
REMARK    1  A    between atoms: C_1  and  C_2
REMARK    2  A    between atoms: C_2  and  N_3
REMARK    3  A    between atoms: N_3  and  C_4
REMARK    4  A    between atoms: N_3  and  C_23
REMARK    5  A    between atoms: C_4  and  C_5
REMARK    6  A    between atoms: C_5  and  C_6
REMARK    7  A    between atoms: C_6  and  C_7
REMARK    8  A    between atoms: C_7  and  C_8
REMARK    9  A    between atoms: C_8  and  O_9
REMARK   10  A    between atoms: O_9  and  C_10
REMARK   11  A    between atoms: C_14  and  C_15
REMARK   12  A    between atoms: C_16  and  C_17
REMARK   13  A    between atoms: C_23  and  C_24
REMARK                            x       y       z     vdW  Elec       q    Type
REMARK                         _______ _______ _______ _____ _____    ______ ____
ROOT
ATOM      1  C   UNL     1       7.846   8.952  17.915  0.00  0.00    +0.000 C 
ENDROOT
BRANCH   1   2
ATOM      2  C   UNL     1       7.707   7.521  17.549  0.00  0.00    +0.000 C 
BRANCH   2   3
ATOM      3  C   UNL     1       8.086   6.684  18.784  0.00  0.00    +0.000 C 
BRANCH   3   4
ATOM      4  C   UNL     1       7.081   5.565  18.867  0.00  0.00    +0.000 C 
BRANCH   4   5
ATOM      5  C   UNL     1       6.573   4.933  17.567  0.00  0.00    +0.000 C 
BRANCH   5   6
ATOM      6  N   UNL     1       5.174   5.272  17.157  0.00  0.00    +0.000 NA
BRANCH   6   8
ATOM      7  C   UNL     1       3.490   7.323  17.574  0.00  0.00    +0.000 C 
ATOM      8  C   UNL     1       4.329   6.108  18.077  0.00  0.00    +0.000 C 
ENDBRANCH   6   8
BRANCH   6   9
ATOM      9  C   UNL     1       4.471   4.048  16.731  0.00  0.00    +0.000 C 
BRANCH   9  10
ATOM     10  C   UNL     1       3.501   3.535  17.773  0.00  0.00    +0.000 A 
ATOM     11  C   UNL     1       3.964   2.870  18.921  0.00  0.00    +0.000 A 
ATOM     12  C   UNL     1       3.046   2.408  19.874  0.00  0.00    +0.000 A 
ATOM     13  C   UNL     1       1.674   2.612  19.689  0.00  0.00    +0.000 A 
ATOM     14  C   UNL     1       1.210   3.272  18.551  0.00  0.00    +0.000 A 
ATOM     15  C   UNL     1       2.121   3.728  17.595  0.00  0.00    +0.000 A 
ENDBRANCH   9  10
ENDBRANCH   6   9
ENDBRANCH   5   6
ENDBRANCH   4   5
ENDBRANCH   3   4
ENDBRANCH   2   3
ENDBRANCH   1   2
BRANCH   1  16
ATOM     16  O   UNL     1       8.883   9.126  18.797  0.00  0.00    +0.000 OA
BRANCH  16  17
ATOM     17  C   UNL     1       9.314  10.359  19.123  0.00  0.00    +0.000 A 
ATOM     18  C   UNL     1       9.273  10.806  20.453  0.00  0.00    +0.000 A 
ATOM     19  C   UNL     1       9.708  12.056  20.790  0.00  0.00    +0.000 A 
ATOM     20  C   UNL     1      10.144  12.946  19.800  0.00  0.00    +0.000 A 
ATOM     21  C   UNL     1      10.515  14.268  20.099  0.00  0.00    +0.000 A 
ATOM     22  C   UNL     1      10.535  14.801  21.520  0.00  0.00    +0.000 C 
ATOM     23  C   UNL     1      10.842  15.126  19.025  0.00  0.00    +0.000 A 
ATOM     24  C   UNL     1      11.179  16.577  19.247  0.00  0.00    +0.000 C 
ATOM     25  C   UNL     1      10.825  14.614  17.710  0.00  0.00    +0.000 A 
ATOM     26  O   UNL     1      11.084  15.337  16.762  0.00  0.00    +0.000 OA
ATOM     27  O   UNL     1      10.517  13.346  17.481  0.00  0.00    +0.000 OA
ATOM     28  C   UNL     1      10.169  12.512  18.451  0.00  0.00    +0.000 A 
ATOM     29  C   UNL     1       9.786  11.208  18.123  0.00  0.00    +0.000 A 
ENDBRANCH  16  17
ENDBRANCH   1  16
TORSDOF 10
ENDMDL
MODEL 3
REMARK VINA RESULT:      -7.3      1.819      4.138
REMARK  Name = 
REMARK  13 active torsions:
REMARK  status: ('A' for Active; 'I' for Inactive)
REMARK    1  A    between atoms: C_1  and  C_2
REMARK    2  A    between atoms: C_2  and  N_3
REMARK    3  A    between atoms: N_3  and  C_4
REMARK    4  A    between atoms: N_3  and  C_23
REMARK    5  A    between atoms: C_4  and  C_5
REMARK    6  A    between atoms: C_5  and  C_6
REMARK    7  A    between atoms: C_6  and  C_7
REMARK    8  A    between atoms: C_7  and  C_8
REMARK    9  A    between atoms: C_8  and  O_9
REMARK   10  A    between atoms: O_9  and  C_10
REMARK   11  A    between atoms: C_14  and  C_15
REMARK   12  A    between atoms: C_16  and  C_17
REMARK   13  A    between atoms: C_23  and  C_24
REMARK                            x       y       z     vdW  Elec       q    Type
REMARK                         _______ _______ _______ _____ _____    ______ ____
ROOT
ATOM      1  C   UNL     1       2.561   5.065  19.300  0.00  0.00    +0.000 C 
ENDROOT
BRANCH   1   2
ATOM      2  C   UNL     1       2.174   4.269  18.109  0.00  0.00    +0.000 C 
BRANCH   2   3
ATOM      3  C   UNL     1       3.042   2.999  18.093  0.00  0.00    +0.000 C 
BRANCH   3   4
ATOM      4  C   UNL     1       4.202   3.284  17.176  0.00  0.00    +0.000 C 
BRANCH   4   5
ATOM      5  C   UNL     1       5.494   3.850  17.777  0.00  0.00    +0.000 C 
BRANCH   5   6
ATOM      6  N   UNL     1       6.306   4.748  16.898  0.00  0.00    +0.000 NA
BRANCH   6   8
ATOM      7  C   UNL     1       7.735   5.784  18.924  0.00  0.00    +0.000 C 
ATOM      8  C   UNL     1       7.057   5.891  17.524  0.00  0.00    +0.000 C 
ENDBRANCH   6   8
BRANCH   6   9
ATOM      9  C   UNL     1       5.491   5.191  15.753  0.00  0.00    +0.000 C 
BRANCH   9  10
ATOM     10  C   UNL     1       6.056   4.745  14.422  0.00  0.00    +0.000 A 
ATOM     11  C   UNL     1       5.392   3.778  13.649  0.00  0.00    +0.000 A 
ATOM     12  C   UNL     1       5.932   3.383  12.417  0.00  0.00    +0.000 A 
ATOM     13  C   UNL     1       7.123   3.951  11.954  0.00  0.00    +0.000 A 
ATOM     14  C   UNL     1       7.786   4.913  12.719  0.00  0.00    +0.000 A 
ATOM     15  C   UNL     1       7.255   5.304  13.950  0.00  0.00    +0.000 A 
ENDBRANCH   9  10
ENDBRANCH   6   9
ENDBRANCH   5   6
ENDBRANCH   4   5
ENDBRANCH   3   4
ENDBRANCH   2   3
ENDBRANCH   1   2
BRANCH   1  16
ATOM     16  O   UNL     1       2.988   6.314  18.927  0.00  0.00    +0.000 OA
BRANCH  16  17
ATOM     17  C   UNL     1       2.272   7.412  19.237  0.00  0.00    +0.000 A 
ATOM     18  C   UNL     1       2.066   8.425  18.289  0.00  0.00    +0.000 A 
ATOM     19  C   UNL     1       1.342   9.542  18.598  0.00  0.00    +0.000 A 
ATOM     20  C   UNL     1       0.846   9.730  19.894  0.00  0.00    +0.000 A 
ATOM     21  C   UNL     1       0.173  10.905  20.271  0.00  0.00    +0.000 A 
ATOM     22  C   UNL     1      -0.122  12.020  19.284  0.00  0.00    +0.000 C 
ATOM     23  C   UNL     1      -0.200  11.052  21.626  0.00  0.00    +0.000 A 
ATOM     24  C   UNL     1      -0.858  12.309  22.132  0.00  0.00    +0.000 C 
ATOM     25  C   UNL     1       0.075  10.004  22.529  0.00  0.00    +0.000 A 
ATOM     26  O   UNL     1      -0.219  10.111  23.709  0.00  0.00    +0.000 OA
ATOM     27  O   UNL     1       0.667   8.892  22.118  0.00  0.00    +0.000 OA
ATOM     28  C   UNL     1       1.068   8.721  20.866  0.00  0.00    +0.000 A 
ATOM     29  C   UNL     1       1.751   7.551  20.523  0.00  0.00    +0.000 A 
ENDBRANCH  16  17
ENDBRANCH   1  16
TORSDOF 10
ENDMDL
MODEL 4
REMARK VINA RESULT:      -7.1      5.733      9.097
REMARK  Name = 
REMARK  13 active torsions:
REMARK  status: ('A' for Active; 'I' for Inactive)
REMARK    1  A    between atoms: C_1  and  C_2
REMARK    2  A    between atoms: C_2  and  N_3
REMARK    3  A    between atoms: N_3  and  C_4
REMARK    4  A    between atoms: N_3  and  C_23
REMARK    5  A    between atoms: C_4  and  C_5
REMARK    6  A    between atoms: C_5  and  C_6
REMARK    7  A    between atoms: C_6  and  C_7
REMARK    8  A    between atoms: C_7  and  C_8
REMARK    9  A    between atoms: C_8  and  O_9
REMARK   10  A    between atoms: O_9  and  C_10
REMARK   11  A    between atoms: C_14  and  C_15
REMARK   12  A    between atoms: C_16  and  C_17
REMARK   13  A    between atoms: C_23  and  C_24
REMARK                            x       y       z     vdW  Elec       q    Type
REMARK                         _______ _______ _______ _____ _____    ______ ____
ROOT
ATOM      1  C   UNL     1       8.012   8.018  17.745  0.00  0.00    +0.000 C 
ENDROOT
BRANCH   1   2
ATOM      2  C   UNL     1       7.942   9.495  17.868  0.00  0.00    +0.000 C 
BRANCH   2   3
ATOM      3  C   UNL     1       9.093   9.943  18.786  0.00  0.00    +0.000 C 
BRANCH   3   4
ATOM      4  C   UNL     1       9.904  10.940  18.000  0.00  0.00    +0.000 C 
BRANCH   4   5
ATOM      5  C   UNL     1      10.809  11.916  18.761  0.00  0.00    +0.000 C 
BRANCH   5   6
ATOM      6  N   UNL     1      10.215  13.241  19.122  0.00  0.00    +0.000 NA
BRANCH   6   8
ATOM      7  C   UNL     1      11.304  14.434  16.975  0.00  0.00    +0.000 C 
ATOM      8  C   UNL     1      10.229  14.345  18.101  0.00  0.00    +0.000 C 
ENDBRANCH   6   8
BRANCH   6   9
ATOM      9  C   UNL     1      10.754  13.689  20.419  0.00  0.00    +0.000 C 
BRANCH   9  10
ATOM     10  C   UNL     1       9.783  13.483  21.561  0.00  0.00    +0.000 A 
ATOM     11  C   UNL     1       9.498  14.525  22.459  0.00  0.00    +0.000 A 
ATOM     12  C   UNL     1       8.593  14.312  23.507  0.00  0.00    +0.000 A 
ATOM     13  C   UNL     1       7.969  13.069  23.658  0.00  0.00    +0.000 A 
ATOM     14  C   UNL     1       8.249  12.030  22.769  0.00  0.00    +0.000 A 
ATOM     15  C   UNL     1       9.156  12.236  21.727  0.00  0.00    +0.000 A 
ENDBRANCH   9  10
ENDBRANCH   6   9
ENDBRANCH   5   6
ENDBRANCH   4   5
ENDBRANCH   3   4
ENDBRANCH   2   3
ENDBRANCH   1   2
BRANCH   1  16
ATOM     16  O   UNL     1       6.908   7.536  17.089  0.00  0.00    +0.000 OA
BRANCH  16  17
ATOM     17  C   UNL     1       6.167   6.543  17.617  0.00  0.00    +0.000 A 
ATOM     18  C   UNL     1       6.746   5.593  18.472  0.00  0.00    +0.000 A 
ATOM     19  C   UNL     1       6.000   4.582  19.010  0.00  0.00    +0.000 A 
ATOM     20  C   UNL     1       4.651   4.435  18.664  0.00  0.00    +0.000 A 
ATOM     21  C   UNL     1       3.876   3.359  19.129  0.00  0.00    +0.000 A 
ATOM     22  C   UNL     1       4.427   2.321  20.090  0.00  0.00    +0.000 C 
ATOM     23  C   UNL     1       2.554   3.233  18.645  0.00  0.00    +0.000 A 
ATOM     24  C   UNL     1       1.679   2.071  19.032  0.00  0.00    +0.000 C 
ATOM     25  C   UNL     1       2.053   4.210  17.759  0.00  0.00    +0.000 A 
ATOM     26  O   UNL     1       0.923   4.117  17.310  0.00  0.00    +0.000 OA
ATOM     27  O   UNL     1       2.805   5.236  17.387  0.00  0.00    +0.000 OA
ATOM     28  C   UNL     1       4.062   5.379  17.784  0.00  0.00    +0.000 A 
ATOM     29  C   UNL     1       4.815   6.448  17.291  0.00  0.00    +0.000 A 
ENDBRANCH  16  17
ENDBRANCH   1  16
TORSDOF 10
ENDMDL
MODEL 5
REMARK VINA RESULT:      -7.1      2.622      7.208
REMARK  Name = 
REMARK  13 active torsions:
REMARK  status: ('A' for Active; 'I' for Inactive)
REMARK    1  A    between atoms: C_1  and  C_2
REMARK    2  A    between atoms: C_2  and  N_3
REMARK    3  A    between atoms: N_3  and  C_4
REMARK    4  A    between atoms: N_3  and  C_23
REMARK    5  A    between atoms: C_4  and  C_5
REMARK    6  A    between atoms: C_5  and  C_6
REMARK    7  A    between atoms: C_6  and  C_7
REMARK    8  A    between atoms: C_7  and  C_8
REMARK    9  A    between atoms: C_8  and  O_9
REMARK   10  A    between atoms: O_9  and  C_10
REMARK   11  A    between atoms: C_14  and  C_15
REMARK   12  A    between atoms: C_16  and  C_17
REMARK   13  A    between atoms: C_23  and  C_24
REMARK                            x       y       z     vdW  Elec       q    Type
REMARK                         _______ _______ _______ _____ _____    ______ ____
ROOT
ATOM      1  C   UNL     1       1.538   1.772  19.563  0.00  0.00    +0.000 C 
ENDROOT
BRANCH   1   2
ATOM      2  C   UNL     1       1.551   2.689  20.729  0.00  0.00    +0.000 C 
BRANCH   2   3
ATOM      3  C   UNL     1       0.740   3.940  20.348  0.00  0.00    +0.000 C 
BRANCH   3   4
ATOM      4  C   UNL     1       1.629   5.126  20.620  0.00  0.00    +0.000 C 
BRANCH   4   5
ATOM      5  C   UNL     1       1.939   6.092  19.471  0.00  0.00    +0.000 C 
BRANCH   5   6
ATOM      6  N   UNL     1       1.601   7.533  19.694  0.00  0.00    +0.000 NA
BRANCH   6   8
ATOM      7  C   UNL     1       1.985   9.387  17.789  0.00  0.00    +0.000 C 
ATOM      8  C   UNL     1       2.452   8.588  19.044  0.00  0.00    +0.000 C 
ENDBRANCH   6   8
BRANCH   6   9
ATOM      9  C   UNL     1       1.427   7.783  21.136  0.00  0.00    +0.000 C 
BRANCH   9  10
ATOM     10  C   UNL     1       0.535   8.971  21.423  0.00  0.00    +0.000 A 
ATOM     11  C   UNL     1       0.251   9.354  22.744  0.00  0.00    +0.000 A 
ATOM     12  C   UNL     1      -0.575  10.461  22.986  0.00  0.00    +0.000 A 
ATOM     13  C   UNL     1      -1.111  11.186  21.917  0.00  0.00    +0.000 A 
ATOM     14  C   UNL     1      -0.832  10.810  20.602  0.00  0.00    +0.000 A 
ATOM     15  C   UNL     1      -0.015   9.704  20.357  0.00  0.00    +0.000 A 
ENDBRANCH   9  10
ENDBRANCH   6   9
ENDBRANCH   5   6
ENDBRANCH   4   5
ENDBRANCH   3   4
ENDBRANCH   2   3
ENDBRANCH   1   2
BRANCH   1  16
ATOM     16  O   UNL     1       2.795   1.657  19.026  0.00  0.00    +0.000 OA
BRANCH  16  17
ATOM     17  C   UNL     1       3.454   2.739  18.567  0.00  0.00    +0.000 A 
ATOM     18  C   UNL     1       3.084   3.345  17.357  0.00  0.00    +0.000 A 
ATOM     19  C   UNL     1       3.749   4.441  16.885  0.00  0.00    +0.000 A 
ATOM     20  C   UNL     1       4.861   4.945  17.571  0.00  0.00    +0.000 A 
ATOM     21  C   UNL     1       5.622   6.016  17.071  0.00  0.00    +0.000 A 
ATOM     22  C   UNL     1       5.251   6.743  15.792  0.00  0.00    +0.000 C 
ATOM     23  C   UNL     1       6.788   6.389  17.777  0.00  0.00    +0.000 A 
ATOM     24  C   UNL     1       7.701   7.475  17.273  0.00  0.00    +0.000 C 
ATOM     25  C   UNL     1       7.116   5.708  18.968  0.00  0.00    +0.000 A 
ATOM     26  O   UNL     1       8.127   5.996  19.587  0.00  0.00    +0.000 OA
ATOM     27  O   UNL     1       6.340   4.737  19.428  0.00  0.00    +0.000 OA
ATOM     28  C   UNL     1       5.256   4.326  18.785  0.00  0.00    +0.000 A 
ATOM     29  C   UNL     1       4.530   3.247  19.295  0.00  0.00    +0.000 A 
ENDBRANCH  16  17
ENDBRANCH   1  16
TORSDOF 10
ENDMDL
MODEL 6
REMARK VINA RESULT:      -7.0      5.585      8.548
REMARK  Name = 
REMARK  13 active torsions:
REMARK  status: ('A' for Active; 'I' for Inactive)
REMARK    1  A    between atoms: C_1  and  C_2
REMARK    2  A    between atoms: C_2  and  N_3
REMARK    3  A    between atoms: N_3  and  C_4
REMARK    4  A    between atoms: N_3  and  C_23
REMARK    5  A    between atoms: C_4  and  C_5
REMARK    6  A    between atoms: C_5  and  C_6
REMARK    7  A    between atoms: C_6  and  C_7
REMARK    8  A    between atoms: C_7  and  C_8
REMARK    9  A    between atoms: C_8  and  O_9
REMARK   10  A    between atoms: O_9  and  C_10
REMARK   11  A    between atoms: C_14  and  C_15
REMARK   12  A    between atoms: C_16  and  C_17
REMARK   13  A    between atoms: C_23  and  C_24
REMARK                            x       y       z     vdW  Elec       q    Type
REMARK                         _______ _______ _______ _____ _____    ______ ____
ROOT
ATOM      1  C   UNL     1       7.641   7.604  17.499  0.00  0.00    +0.000 C 
ENDROOT
BRANCH   1   2
ATOM      2  C   UNL     1       7.935   9.057  17.448  0.00  0.00    +0.000 C 
BRANCH   2   3
ATOM      3  C   UNL     1       8.783   9.406  18.683  0.00  0.00    +0.000 C 
BRANCH   3   4
ATOM      4  C   UNL     1       9.607  10.611  18.310  0.00  0.00    +0.000 C 
BRANCH   4   5
ATOM      5  C   UNL     1       8.926  11.983  18.262  0.00  0.00    +0.000 C 
BRANCH   5   6
ATOM      6  N   UNL     1       9.585  13.088  19.027  0.00  0.00    +0.000 NA
BRANCH   6   8
ATOM      7  C   UNL     1       9.929  15.425  17.748  0.00  0.00    +0.000 C 
ATOM      8  C   UNL     1      10.460  14.061  18.287  0.00  0.00    +0.000 C 
ENDBRANCH   6   8
BRANCH   6   9
ATOM      9  C   UNL     1      10.263  12.535  20.212  0.00  0.00    +0.000 C 
BRANCH   9  10
ATOM     10  C   UNL     1       9.446  12.679  21.478  0.00  0.00    +0.000 A 
ATOM     11  C   UNL     1       8.728  11.588  21.997  0.00  0.00    +0.000 A 
ATOM     12  C   UNL     1       7.981  11.744  23.173  0.00  0.00    +0.000 A 
ATOM     13  C   UNL     1       7.953  12.978  23.832  0.00  0.00    +0.000 A 
ATOM     14  C   UNL     1       8.665  14.064  23.320  0.00  0.00    +0.000 A 
ATOM     15  C   UNL     1       9.405  13.914  22.145  0.00  0.00    +0.000 A 
ENDBRANCH   9  10
ENDBRANCH   6   9
ENDBRANCH   5   6
ENDBRANCH   4   5
ENDBRANCH   3   4
ENDBRANCH   2   3
ENDBRANCH   1   2
BRANCH   1  16
ATOM     16  O   UNL     1       6.423   7.337  16.927  0.00  0.00    +0.000 OA
BRANCH  16  17
ATOM     17  C   UNL     1       5.501   6.599  17.573  0.00  0.00    +0.000 A 
ATOM     18  C   UNL     1       4.196   7.081  17.757  0.00  0.00    +0.000 A 
ATOM     19  C   UNL     1       3.256   6.337  18.413  0.00  0.00    +0.000 A 
ATOM     20  C   UNL     1       3.597   5.101  18.977  0.00  0.00    +0.000 A 
ATOM     21  C   UNL     1       2.681   4.350  19.733  0.00  0.00    +0.000 A 
ATOM     22  C   UNL     1       1.243   4.792  19.933  0.00  0.00    +0.000 C 
ATOM     23  C   UNL     1       3.142   3.166  20.351  0.00  0.00    +0.000 A 
ATOM     24  C   UNL     1       2.250   2.339  21.239  0.00  0.00    +0.000 C 
ATOM     25  C   UNL     1       4.480   2.764  20.150  0.00  0.00    +0.000 A 
ATOM     26  O   UNL     1       4.911   1.757  20.687  0.00  0.00    +0.000 OA
ATOM     27  O   UNL     1       5.294   3.479  19.387  0.00  0.00    +0.000 OA
ATOM     28  C   UNL     1       4.919   4.615  18.815  0.00  0.00    +0.000 A 
ATOM     29  C   UNL     1       5.856   5.351  18.085  0.00  0.00    +0.000 A 
ENDBRANCH  16  17
ENDBRANCH   1  16
TORSDOF 10
ENDMDL
MODEL 7
REMARK VINA RESULT:      -7.0      1.921      4.292
REMARK  Name = 
REMARK  13 active torsions:
REMARK  status: ('A' for Active; 'I' for Inactive)
REMARK    1  A    between atoms: C_1  and  C_2
REMARK    2  A    between atoms: C_2  and  N_3
REMARK    3  A    between atoms: N_3  and  C_4
REMARK    4  A    between atoms: N_3  and  C_23
REMARK    5  A    between atoms: C_4  and  C_5
REMARK    6  A    between atoms: C_5  and  C_6
REMARK    7  A    between atoms: C_6  and  C_7
REMARK    8  A    between atoms: C_7  and  C_8
REMARK    9  A    between atoms: C_8  and  O_9
REMARK   10  A    between atoms: O_9  and  C_10
REMARK   11  A    between atoms: C_14  and  C_15
REMARK   12  A    between atoms: C_16  and  C_17
REMARK   13  A    between atoms: C_23  and  C_24
REMARK                            x       y       z     vdW  Elec       q    Type
REMARK                         _______ _______ _______ _____ _____    ______ ____
ROOT
ATOM      1  C   UNL     1       2.087   4.510  19.962  0.00  0.00    +0.000 C 
ENDROOT
BRANCH   1   2
ATOM      2  C   UNL     1       2.472   3.318  19.167  0.00  0.00    +0.000 C 
BRANCH   2   3
ATOM      3  C   UNL     1       2.111   3.600  17.698  0.00  0.00    +0.000 C 
BRANCH   3   4
ATOM      4  C   UNL     1       3.326   3.245  16.882  0.00  0.00    +0.000 C 
BRANCH   4   5
ATOM      5  C   UNL     1       4.712   3.396  17.521  0.00  0.00    +0.000 C 
BRANCH   5   6
ATOM      6  N   UNL     1       5.623   4.417  16.915  0.00  0.00    +0.000 NA
BRANCH   6   8
ATOM      7  C   UNL     1       6.529   6.919  17.283  0.00  0.00    +0.000 C 
ATOM      8  C   UNL     1       6.210   5.483  17.799  0.00  0.00    +0.000 C 
ENDBRANCH   6   8
BRANCH   6   9
ATOM      9  C   UNL     1       4.996   4.990  15.711  0.00  0.00    +0.000 C 
BRANCH   9  10
ATOM     10  C   UNL     1       5.729   4.629  14.438  0.00  0.00    +0.000 A 
ATOM     11  C   UNL     1       7.016   5.132  14.183  0.00  0.00    +0.000 A 
ATOM     12  C   UNL     1       7.678   4.780  12.999  0.00  0.00    +0.000 A 
ATOM     13  C   UNL     1       7.065   3.927  12.074  0.00  0.00    +0.000 A 
ATOM     14  C   UNL     1       5.787   3.424  12.324  0.00  0.00    +0.000 A 
ATOM     15  C   UNL     1       5.121   3.778  13.500  0.00  0.00    +0.000 A 
ENDBRANCH   9  10
ENDBRANCH   6   9
ENDBRANCH   5   6
ENDBRANCH   4   5
ENDBRANCH   3   4
ENDBRANCH   2   3
ENDBRANCH   1   2
BRANCH   1  16
ATOM     16  O   UNL     1       2.783   5.615  19.544  0.00  0.00    +0.000 OA
BRANCH  16  17
ATOM     17  C   UNL     1       2.252   6.848  19.645  0.00  0.00    +0.000 A 
ATOM     18  C   UNL     1       2.357   7.764  18.587  0.00  0.00    +0.000 A 
ATOM     19  C   UNL     1       1.821   9.017  18.684  0.00  0.00    +0.000 A 
ATOM     20  C   UNL     1       1.211   9.437  19.872  0.00  0.00    +0.000 A 
ATOM     21  C   UNL     1       0.727  10.747  20.038  0.00  0.00    +0.000 A 
ATOM     22  C   UNL     1       0.770  11.772  18.920  0.00  0.00    +0.000 C 
ATOM     23  C   UNL     1       0.222  11.113  21.306  0.00  0.00    +0.000 A 
ATOM     24  C   UNL     1      -0.248  12.514  21.594  0.00  0.00    +0.000 C 
ATOM     25  C   UNL     1       0.182  10.147  22.333  0.00  0.00    +0.000 A 
ATOM     26  O   UNL     1      -0.231  10.440  23.443  0.00  0.00    +0.000 OA
ATOM     27  O   UNL     1       0.604   8.909  22.116  0.00  0.00    +0.000 OA
ATOM     28  C   UNL     1       1.119   8.526  20.955  0.00  0.00    +0.000 A 
ATOM     29  C   UNL     1       1.610   7.224  20.824  0.00  0.00    +0.000 A 
ENDBRANCH  16  17
ENDBRANCH   1  16
TORSDOF 10
ENDMDL
MODEL 8
REMARK VINA RESULT:      -6.9      5.518      7.476
REMARK  Name = 
REMARK  13 active torsions:
REMARK  status: ('A' for Active; 'I' for Inactive)
REMARK    1  A    between atoms: C_1  and  C_2
REMARK    2  A    between atoms: C_2  and  N_3
REMARK    3  A    between atoms: N_3  and  C_4
REMARK    4  A    between atoms: N_3  and  C_23
REMARK    5  A    between atoms: C_4  and  C_5
REMARK    6  A    between atoms: C_5  and  C_6
REMARK    7  A    between atoms: C_6  and  C_7
REMARK    8  A    between atoms: C_7  and  C_8
REMARK    9  A    between atoms: C_8  and  O_9
REMARK   10  A    between atoms: O_9  and  C_10
REMARK   11  A    between atoms: C_14  and  C_15
REMARK   12  A    between atoms: C_16  and  C_17
REMARK   13  A    between atoms: C_23  and  C_24
REMARK                            x       y       z     vdW  Elec       q    Type
REMARK                         _______ _______ _______ _____ _____    ______ ____
ROOT
ATOM      1  C   UNL     1       7.985   7.971  17.564  0.00  0.00    +0.000 C 
ENDROOT
BRANCH   1   2
ATOM      2  C   UNL     1       8.115   7.057  18.726  0.00  0.00    +0.000 C 
BRANCH   2   3
ATOM      3  C   UNL     1       7.671   5.656  18.271  0.00  0.00    +0.000 C 
BRANCH   3   4
ATOM      4  C   UNL     1       6.287   5.445  18.826  0.00  0.00    +0.000 C 
BRANCH   4   5
ATOM      5  C   UNL     1       5.410   4.344  18.219  0.00  0.00    +0.000 C 
BRANCH   5   6
ATOM      6  N   UNL     1       4.506   4.747  17.096  0.00  0.00    +0.000 NA
BRANCH   6   8
ATOM      7  C   UNL     1       5.658   4.547  14.677  0.00  0.00    +0.000 C 
ATOM      8  C   UNL     1       5.106   5.383  15.873  0.00  0.00    +0.000 C 
ENDBRANCH   6   8
BRANCH   6   9
ATOM      9  C   UNL     1       3.379   5.536  17.625  0.00  0.00    +0.000 C 
BRANCH   9  10
ATOM     10  C   UNL     1       2.445   4.720  18.492  0.00  0.00    +0.000 A 
ATOM     11  C   UNL     1       1.852   3.545  17.999  0.00  0.00    +0.000 A 
ATOM     12  C   UNL     1       0.994   2.802  18.821  0.00  0.00    +0.000 A 
ATOM     13  C   UNL     1       0.731   3.224  20.130  0.00  0.00    +0.000 A 
ATOM     14  C   UNL     1       1.318   4.389  20.623  0.00  0.00    +0.000 A 
ATOM     15  C   UNL     1       2.169   5.136  19.805  0.00  0.00    +0.000 A 
ENDBRANCH   9  10
ENDBRANCH   6   9
ENDBRANCH   5   6
ENDBRANCH   4   5
ENDBRANCH   3   4
ENDBRANCH   2   3
ENDBRANCH   1   2
BRANCH   1  16
ATOM     16  O   UNL     1       7.531   9.201  17.967  0.00  0.00    +0.000 OA
BRANCH  16  17
ATOM     17  C   UNL     1       8.385  10.222  18.170  0.00  0.00    +0.000 A 
ATOM     18  C   UNL     1       9.588  10.024  18.866  0.00  0.00    +0.000 A 
ATOM     19  C   UNL     1      10.457  11.056  19.077  0.00  0.00    +0.000 A 
ATOM     20  C   UNL     1      10.134  12.353  18.659  0.00  0.00    +0.000 A 
ATOM     21  C   UNL     1      10.963  13.453  18.936  0.00  0.00    +0.000 A 
ATOM     22  C   UNL     1      12.297  13.302  19.645  0.00  0.00    +0.000 C 
ATOM     23  C   UNL     1      10.507  14.739  18.569  0.00  0.00    +0.000 A 
ATOM     24  C   UNL     1      11.297  15.980  18.893  0.00  0.00    +0.000 C 
ATOM     25  C   UNL     1       9.269  14.863  17.905  0.00  0.00    +0.000 A 
ATOM     26  O   UNL     1       8.841  15.962  17.593  0.00  0.00    +0.000 OA
ATOM     27  O   UNL     1       8.543  13.791  17.619  0.00  0.00    +0.000 OA
ATOM     28  C   UNL     1       8.911  12.568  17.974  0.00  0.00    +0.000 A 
ATOM     29  C   UNL     1       8.057  11.495  17.703  0.00  0.00    +0.000 A 
ENDBRANCH  16  17
ENDBRANCH   1  16
TORSDOF 10
ENDMDL
MODEL 9
REMARK VINA RESULT:      -6.9      6.441      9.861
REMARK  Name = 
REMARK  13 active torsions:
REMARK  status: ('A' for Active; 'I' for Inactive)
REMARK    1  A    between atoms: C_1  and  C_2
REMARK    2  A    between atoms: C_2  and  N_3
REMARK    3  A    between atoms: N_3  and  C_4
REMARK    4  A    between atoms: N_3  and  C_23
REMARK    5  A    between atoms: C_4  and  C_5
REMARK    6  A    between atoms: C_5  and  C_6
REMARK    7  A    between atoms: C_6  and  C_7
REMARK    8  A    between atoms: C_7  and  C_8
REMARK    9  A    between atoms: C_8  and  O_9
REMARK   10  A    between atoms: O_9  and  C_10
REMARK   11  A    between atoms: C_14  and  C_15
REMARK   12  A    between atoms: C_16  and  C_17
REMARK   13  A    between atoms: C_23  and  C_24
REMARK                            x       y       z     vdW  Elec       q    Type
REMARK                         _______ _______ _______ _____ _____    ______ ____
ROOT
ATOM      1  C   UNL     1       7.926   8.388  17.202  0.00  0.00    +0.000 C 
ENDROOT
BRANCH   1   2
ATOM      2  C   UNL     1       8.558   8.694  18.508  0.00  0.00    +0.000 C 
BRANCH   2   3
ATOM      3  C   UNL     1       8.571  10.223  18.676  0.00  0.00    +0.000 C 
BRANCH   3   4
ATOM      4  C   UNL     1       9.862  10.710  18.072  0.00  0.00    +0.000 C 
BRANCH   4   5
ATOM      5  C   UNL     1      10.817  11.535  18.942  0.00  0.00    +0.000 C 
BRANCH   5   6
ATOM      6  N   UNL     1      10.420  12.951  19.219  0.00  0.00    +0.000 NA
BRANCH   6   8
ATOM      7  C   UNL     1       9.552  12.263  21.666  0.00  0.00    +0.000 C 
ATOM      8  C   UNL     1       9.639  13.256  20.467  0.00  0.00    +0.000 C 
ENDBRANCH   6   8
BRANCH   6   9
ATOM      9  C   UNL     1       9.785  13.532  18.022  0.00  0.00    +0.000 C 
BRANCH   9  10
ATOM     10  C   UNL     1      10.184  14.972  17.786  0.00  0.00    +0.000 A 
ATOM     11  C   UNL     1      11.486  15.299  17.372  0.00  0.00    +0.000 A 
ATOM     12  C   UNL     1      11.831  16.640  17.155  0.00  0.00    +0.000 A 
ATOM     13  C   UNL     1      10.883  17.651  17.343  0.00  0.00    +0.000 A 
ATOM     14  C   UNL     1       9.587  17.332  17.753  0.00  0.00    +0.000 A 
ATOM     15  C   UNL     1       9.241  15.997  17.977  0.00  0.00    +0.000 A 
ENDBRANCH   9  10
ENDBRANCH   6   9
ENDBRANCH   5   6
ENDBRANCH   4   5
ENDBRANCH   3   4
ENDBRANCH   2   3
ENDBRANCH   1   2
BRANCH   1  16
ATOM     16  O   UNL     1       7.851   7.032  17.008  0.00  0.00    +0.000 OA
BRANCH  16  17
ATOM     17  C   UNL     1       6.722   6.354  17.288  0.00  0.00    +0.000 A 
ATOM     18  C   UNL     1       5.483   6.786  16.790  0.00  0.00    +0.000 A 
ATOM     19  C   UNL     1       4.334   6.103  17.072  0.00  0.00    +0.000 A 
ATOM     20  C   UNL     1       4.360   4.991  17.923  0.00  0.00    +0.000 A 
ATOM     21  C   UNL     1       3.187   4.318  18.305  0.00  0.00    +0.000 A 
ATOM     22  C   UNL     1       1.821   4.706  17.768  0.00  0.00    +0.000 C 
ATOM     23  C   UNL     1       3.298   3.272  19.249  0.00  0.00    +0.000 A 
ATOM     24  C   UNL     1       2.085   2.547  19.770  0.00  0.00    +0.000 C 
ATOM     25  C   UNL     1       4.575   2.919  19.733  0.00  0.00    +0.000 A 
ATOM     26  O   UNL     1       4.699   2.033  20.563  0.00  0.00    +0.000 OA
ATOM     27  O   UNL     1       5.660   3.550  19.306  0.00  0.00    +0.000 OA
ATOM     28  C   UNL     1       5.604   4.560  18.449  0.00  0.00    +0.000 A 
ATOM     29  C   UNL     1       6.784   5.223  18.101  0.00  0.00    +0.000 A 
ENDBRANCH  16  17
ENDBRANCH   1  16
TORSDOF 10
ENDMDL
