MODEL 1
REMARK VINA RESULT:      -9.3      0.000      0.000
REMARK  Name = 
REMARK  4 active torsions:
REMARK  status: ('A' for Active; 'I' for Inactive)
REMARK    1  A    between atoms: C_1  and  C_2
REMARK    2  A    between atoms: C_5  and  C_6
REMARK    3  A    between atoms: C_15  and  C_16
REMARK    4  A    between atoms: C_16  and  C_19
REMARK                            x       y       z     vdW  Elec       q    Type
REMARK                         _______ _______ _______ _____ _____    ______ ____
ROOT
ATOM      1  C   UNL     1       5.079   3.944  16.657  0.00  0.00    +0.000 C 
ATOM      2  N   UNL     1       4.758   4.094  15.406  0.00  0.00    +0.000 NA
ATOM      3  C   UNL     1       5.752   4.302  14.422  0.00  0.00    +0.000 A 
ATOM      4  C   UNL     1       5.555   3.628  13.205  0.00  0.00    +0.000 A 
ATOM      5  C   UNL     1       6.468   3.742  12.154  0.00  0.00    +0.000 A 
ATOM      6  C   UNL     1       7.592   4.545  12.301  0.00  0.00    +0.000 A 
ATOM      7  C   UNL     1       7.795   5.238  13.495  0.00  0.00    +0.000 A 
ATOM      8  C   UNL     1       6.893   5.131  14.565  0.00  0.00    +0.000 A 
ATOM      9  N   UNL     1       7.208   5.901  15.708  0.00  0.00    +0.000 NA
ATOM     10  C   UNL     1       7.048   5.400  16.899  0.00  0.00    +0.000 C 
ATOM     11  C   UNL     1       6.513   4.010  17.131  0.00  0.00    +0.000 C 
ENDROOT
BRANCH   1  16
ATOM     12  C   UNL     1       0.928   3.105  20.627  0.00  0.00    +0.000 C 
ATOM     13  C   UNL     1       2.012   3.288  19.606  0.00  0.00    +0.000 A 
ATOM     14  C   UNL     1       3.363   3.308  19.971  0.00  0.00    +0.000 A 
ATOM     15  C   UNL     1       4.355   3.504  19.005  0.00  0.00    +0.000 A 
ATOM     16  C   UNL     1       4.004   3.691  17.663  0.00  0.00    +0.000 A 
ATOM     17  C   UNL     1       2.657   3.645  17.295  0.00  0.00    +0.000 A 
ATOM     18  C   UNL     1       1.668   3.452  18.261  0.00  0.00    +0.000 A 
ENDBRANCH   1  16
BRANCH  10  19
ATOM     19  C   UNL     1       7.398   6.244  18.113  0.00  0.00    +0.000 C 
ATOM     20  F   UNL     1       6.335   6.379  18.961  0.00  0.00    +0.000 F 
ATOM     21  F   UNL     1       8.374   5.641  18.854  0.00  0.00    +0.000 F 
BRANCH  19  22
ATOM     22  C   UNL     1       7.868   7.619  17.660  0.00  0.00    +0.000 C 
ATOM     23  F   UNL     1       6.805   8.454  17.494  0.00  0.00    +0.000 F 
ATOM     24  F   UNL     1       8.644   8.195  18.621  0.00  0.00    +0.000 F 
ENDBRANCH  19  22
ENDBRANCH  10  19
TORSDOF 3
ENDMDL
MODEL 2
REMARK VINA RESULT:      -9.2      4.060      5.457
REMARK  Name = 
REMARK  4 active torsions:
REMARK  status: ('A' for Active; 'I' for Inactive)
REMARK    1  A    between atoms: C_1  and  C_2
REMARK    2  A    between atoms: C_5  and  C_6
REMARK    3  A    between atoms: C_15  and  C_16
REMARK    4  A    between atoms: C_16  and  C_19
REMARK                            x       y       z     vdW  Elec       q    Type
REMARK                         _______ _______ _______ _____ _____    ______ ____
ROOT
ATOM      1  C   UNL     1       2.998   6.243  17.990  0.00  0.00    +0.000 C 
ATOM      2  N   UNL     1       4.158   6.512  17.468  0.00  0.00    +0.000 NA
ATOM      3  C   UNL     1       4.816   5.573  16.640  0.00  0.00    +0.000 A 
ATOM      4  C   UNL     1       5.465   6.104  15.513  0.00  0.00    +0.000 A 
ATOM      5  C   UNL     1       6.145   5.283  14.611  0.00  0.00    +0.000 A 
ATOM      6  C   UNL     1       6.196   3.912  14.830  0.00  0.00    +0.000 A 
ATOM      7  C   UNL     1       5.574   3.368  15.954  0.00  0.00    +0.000 A 
ATOM      8  C   UNL     1       4.880   4.175  16.868  0.00  0.00    +0.000 A 
ATOM      9  N   UNL     1       4.315   3.499  17.973  0.00  0.00    +0.000 NA
ATOM     10  C   UNL     1       3.126   3.819  18.399  0.00  0.00    +0.000 C 
ATOM     11  C   UNL     1       2.306   4.917  17.770  0.00  0.00    +0.000 C 
ENDROOT
BRANCH   1  16
ATOM     12  C   UNL     1       0.218  10.220  21.176  0.00  0.00    +0.000 C 
ATOM     13  C   UNL     1       0.965   9.214  20.351  0.00  0.00    +0.000 A 
ATOM     14  C   UNL     1       1.267   9.454  19.006  0.00  0.00    +0.000 A 
ATOM     15  C   UNL     1       1.944   8.491  18.250  0.00  0.00    +0.000 A 
ATOM     16  C   UNL     1       2.316   7.274  18.830  0.00  0.00    +0.000 A 
ATOM     17  C   UNL     1       2.038   7.045  20.180  0.00  0.00    +0.000 A 
ATOM     18  C   UNL     1       1.361   8.005  20.932  0.00  0.00    +0.000 A 
ENDBRANCH   1  16
BRANCH  10  19
ATOM     19  C   UNL     1       2.536   3.075  19.584  0.00  0.00    +0.000 C 
ATOM     20  F   UNL     1       2.635   1.720  19.435  0.00  0.00    +0.000 F 
ATOM     21  F   UNL     1       3.229   3.361  20.726  0.00  0.00    +0.000 F 
BRANCH  19  22
ATOM     22  C   UNL     1       1.075   3.465  19.754  0.00  0.00    +0.000 C 
ATOM     23  F   UNL     1       0.264   2.522  19.201  0.00  0.00    +0.000 F 
ATOM     24  F   UNL     1       0.746   3.505  21.076  0.00  0.00    +0.000 F 
ENDBRANCH  19  22
ENDBRANCH  10  19
TORSDOF 3
ENDMDL
MODEL 3
REMARK VINA RESULT:      -9.1      4.270      5.618
REMARK  Name = 
REMARK  4 active torsions:
REMARK  status: ('A' for Active; 'I' for Inactive)
REMARK    1  A    between atoms: C_1  and  C_2
REMARK    2  A    between atoms: C_5  and  C_6
REMARK    3  A    between atoms: C_15  and  C_16
REMARK    4  A    between atoms: C_16  and  C_19
REMARK                            x       y       z     vdW  Elec       q    Type
REMARK                         _______ _______ _______ _____ _____    ______ ____
ROOT
ATOM      1  C   UNL     1       2.856   6.610  18.123  0.00  0.00    +0.000 C 
ATOM      2  N   UNL     1       3.976   6.852  17.510  0.00  0.00    +0.000 NA
ATOM      3  C   UNL     1       4.664   5.825  16.822  0.00  0.00    +0.000 A 
ATOM      4  C   UNL     1       5.237   6.192  15.593  0.00  0.00    +0.000 A 
ATOM      5  C   UNL     1       5.936   5.269  14.813  0.00  0.00    +0.000 A 
ATOM      6  C   UNL     1       6.083   3.961  15.257  0.00  0.00    +0.000 A 
ATOM      7  C   UNL     1       5.539   3.583  16.484  0.00  0.00    +0.000 A 
ATOM      8  C   UNL     1       4.827   4.493  17.280  0.00  0.00    +0.000 A 
ATOM      9  N   UNL     1       4.346   3.984  18.508  0.00  0.00    +0.000 NA
ATOM     10  C   UNL     1       3.156   4.303  18.928  0.00  0.00    +0.000 C 
ATOM     11  C   UNL     1       2.244   5.227  18.162  0.00  0.00    +0.000 C 
ENDROOT
BRANCH   1  16
ATOM     12  C   UNL     1       0.205  10.988  20.862  0.00  0.00    +0.000 C 
ATOM     13  C   UNL     1       0.861   9.836  20.159  0.00  0.00    +0.000 A 
ATOM     14  C   UNL     1       1.219   8.670  20.845  0.00  0.00    +0.000 A 
ATOM     15  C   UNL     1       1.850   7.619  20.173  0.00  0.00    +0.000 A 
ATOM     16  C   UNL     1       2.139   7.728  18.808  0.00  0.00    +0.000 A 
ATOM     17  C   UNL     1       1.758   8.881  18.117  0.00  0.00    +0.000 A 
ATOM     18  C   UNL     1       1.130   9.930  18.790  0.00  0.00    +0.000 A 
ENDBRANCH   1  16
BRANCH  10  19
ATOM     19  C   UNL     1       2.657   3.740  20.248  0.00  0.00    +0.000 C 
ATOM     20  F   UNL     1       3.492   2.773  20.735  0.00  0.00    +0.000 F 
ATOM     21  F   UNL     1       2.635   4.711  21.209  0.00  0.00    +0.000 F 
BRANCH  19  22
ATOM     22  C   UNL     1       1.261   3.164  20.062  0.00  0.00    +0.000 C 
ATOM     23  F   UNL     1       1.315   2.007  19.346  0.00  0.00    +0.000 F 
ATOM     24  F   UNL     1       0.723   2.828  21.269  0.00  0.00    +0.000 F 
ENDBRANCH  19  22
ENDBRANCH  10  19
TORSDOF 3
ENDMDL
MODEL 4
REMARK VINA RESULT:      -9.1      4.318      5.774
REMARK  Name = 
REMARK  4 active torsions:
REMARK  status: ('A' for Active; 'I' for Inactive)
REMARK    1  A    between atoms: C_1  and  C_2
REMARK    2  A    between atoms: C_5  and  C_6
REMARK    3  A    between atoms: C_15  and  C_16
REMARK    4  A    between atoms: C_16  and  C_19
REMARK                            x       y       z     vdW  Elec       q    Type
REMARK                         _______ _______ _______ _____ _____    ______ ____
ROOT
ATOM      1  C   UNL     1       2.667   6.607  18.281  0.00  0.00    +0.000 C 
ATOM      2  N   UNL     1       3.893   6.746  17.873  0.00  0.00    +0.000 NA
ATOM      3  C   UNL     1       4.514   5.746  17.088  0.00  0.00    +0.000 A 
ATOM      4  C   UNL     1       5.322   6.209  16.037  0.00  0.00    +0.000 A 
ATOM      5  C   UNL     1       5.984   5.325  15.184  0.00  0.00    +0.000 A 
ATOM      6  C   UNL     1       5.857   3.955  15.377  0.00  0.00    +0.000 A 
ATOM      7  C   UNL     1       5.075   3.475  16.428  0.00  0.00    +0.000 A 
ATOM      8  C   UNL     1       4.396   4.348  17.292  0.00  0.00    +0.000 A 
ATOM      9  N   UNL     1       3.657   3.730  18.326  0.00  0.00    +0.000 NA
ATOM     10  C   UNL     1       2.479   4.181  18.648  0.00  0.00    +0.000 C 
ATOM     11  C   UNL     1       1.852   5.372  17.970  0.00  0.00    +0.000 C 
ENDROOT
BRANCH   1  16
ATOM     12  C   UNL     1       0.068  10.828  21.303  0.00  0.00    +0.000 C 
ATOM     13  C   UNL     1       0.768   9.758  20.518  0.00  0.00    +0.000 A 
ATOM     14  C   UNL     1       1.042   9.914  19.154  0.00  0.00    +0.000 A 
ATOM     15  C   UNL     1       1.675   8.893  18.438  0.00  0.00    +0.000 A 
ATOM     16  C   UNL     1       2.033   7.701  19.078  0.00  0.00    +0.000 A 
ATOM     17  C   UNL     1       1.784   7.556  20.445  0.00  0.00    +0.000 A 
ATOM     18  C   UNL     1       1.150   8.575  21.157  0.00  0.00    +0.000 A 
ENDBRANCH   1  16
BRANCH  10  19
ATOM     19  C   UNL     1       1.699   3.498  19.759  0.00  0.00    +0.000 C 
ATOM     20  F   UNL     1       0.530   4.150  20.034  0.00  0.00    +0.000 F 
ATOM     21  F   UNL     1       1.327   2.238  19.383  0.00  0.00    +0.000 F 
BRANCH  19  22
ATOM     22  C   UNL     1       2.555   3.431  21.016  0.00  0.00    +0.000 C 
ATOM     23  F   UNL     1       2.455   4.591  21.721  0.00  0.00    +0.000 F 
ATOM     24  F   UNL     1       2.099   2.452  21.847  0.00  0.00    +0.000 F 
ENDBRANCH  19  22
ENDBRANCH  10  19
TORSDOF 3
ENDMDL
MODEL 5
REMARK VINA RESULT:      -9.1      4.568      6.030
REMARK  Name = 
REMARK  4 active torsions:
REMARK  status: ('A' for Active; 'I' for Inactive)
REMARK    1  A    between atoms: C_1  and  C_2
REMARK    2  A    between atoms: C_5  and  C_6
REMARK    3  A    between atoms: C_15  and  C_16
REMARK    4  A    between atoms: C_16  and  C_19
REMARK                            x       y       z     vdW  Elec       q    Type
REMARK                         _______ _______ _______ _____ _____    ______ ____
ROOT
ATOM      1  C   UNL     1       2.639   6.924  18.206  0.00  0.00    +0.000 C 
ATOM      2  N   UNL     1       3.824   7.047  17.687  0.00  0.00    +0.000 NA
ATOM      3  C   UNL     1       4.459   5.950  17.060  0.00  0.00    +0.000 A 
ATOM      4  C   UNL     1       5.165   6.244  15.882  0.00  0.00    +0.000 A 
ATOM      5  C   UNL     1       5.829   5.249  15.163  0.00  0.00    +0.000 A 
ATOM      6  C   UNL     1       5.807   3.937  15.620  0.00  0.00    +0.000 A 
ATOM      7  C   UNL     1       5.128   3.627  16.798  0.00  0.00    +0.000 A 
ATOM      8  C   UNL     1       4.449   4.612  17.532  0.00  0.00    +0.000 A 
ATOM      9  N   UNL     1       3.820   4.166  18.716  0.00  0.00    +0.000 NA
ATOM     10  C   UNL     1       2.638   4.607  19.036  0.00  0.00    +0.000 C 
ATOM     11  C   UNL     1       1.890   5.610  18.196  0.00  0.00    +0.000 C 
ENDROOT
BRANCH   1  16
ATOM     12  C   UNL     1      -0.031  11.518  20.542  0.00  0.00    +0.000 C 
ATOM     13  C   UNL     1       0.689  10.350  19.935  0.00  0.00    +0.000 A 
ATOM     14  C   UNL     1       1.080  10.353  18.591  0.00  0.00    +0.000 A 
ATOM     15  C   UNL     1       1.729   9.243  18.041  0.00  0.00    +0.000 A 
ATOM     16  C   UNL     1       1.985   8.115  18.828  0.00  0.00    +0.000 A 
ATOM     17  C   UNL     1       1.619   8.123  20.176  0.00  0.00    +0.000 A 
ATOM     18  C   UNL     1       0.969   9.230  20.723  0.00  0.00    +0.000 A 
ENDBRANCH   1  16
BRANCH  10  19
ATOM     19  C   UNL     1       1.979   4.109  20.312  0.00  0.00    +0.000 C 
ATOM     20  F   UNL     1       2.472   4.742  21.419  0.00  0.00    +0.000 F 
ATOM     21  F   UNL     1       0.642   4.389  20.304  0.00  0.00    +0.000 F 
BRANCH  19  22
ATOM     22  C   UNL     1       2.193   2.608  20.444  0.00  0.00    +0.000 C 
ATOM     23  F   UNL     1       1.703   2.161  21.633  0.00  0.00    +0.000 F 
ATOM     24  F   UNL     1       1.493   1.944  19.482  0.00  0.00    +0.000 F 
ENDBRANCH  19  22
ENDBRANCH  10  19
TORSDOF 3
ENDMDL
MODEL 6
REMARK VINA RESULT:      -9.1      0.692      1.368
REMARK  Name = 
REMARK  4 active torsions:
REMARK  status: ('A' for Active; 'I' for Inactive)
REMARK    1  A    between atoms: C_1  and  C_2
REMARK    2  A    between atoms: C_5  and  C_6
REMARK    3  A    between atoms: C_15  and  C_16
REMARK    4  A    between atoms: C_16  and  C_19
REMARK                            x       y       z     vdW  Elec       q    Type
REMARK                         _______ _______ _______ _____ _____    ______ ____
ROOT
ATOM      1  C   UNL     1       5.092   3.935  16.429  0.00  0.00    +0.000 C 
ATOM      2  N   UNL     1       4.751   3.913  15.174  0.00  0.00    +0.000 NA
ATOM      3  C   UNL     1       5.716   4.101  14.158  0.00  0.00    +0.000 A 
ATOM      4  C   UNL     1       5.579   3.280  13.026  0.00  0.00    +0.000 A 
ATOM      5  C   UNL     1       6.471   3.361  11.956  0.00  0.00    +0.000 A 
ATOM      6  C   UNL     1       7.514   4.278  11.995  0.00  0.00    +0.000 A 
ATOM      7  C   UNL     1       7.657   5.116  13.101  0.00  0.00    +0.000 A 
ATOM      8  C   UNL     1       6.774   5.045  14.190  0.00  0.00    +0.000 A 
ATOM      9  N   UNL     1       7.020   5.964  15.235  0.00  0.00    +0.000 NA
ATOM     10  C   UNL     1       6.915   5.588  16.477  0.00  0.00    +0.000 C 
ATOM     11  C   UNL     1       6.515   4.189  16.871  0.00  0.00    +0.000 C 
ENDROOT
BRANCH   1  16
ATOM     12  C   UNL     1       1.072   3.154  20.544  0.00  0.00    +0.000 C 
ATOM     13  C   UNL     1       2.123   3.322  19.486  0.00  0.00    +0.000 A 
ATOM     14  C   UNL     1       3.484   3.366  19.809  0.00  0.00    +0.000 A 
ATOM     15  C   UNL     1       4.444   3.547  18.809  0.00  0.00    +0.000 A 
ATOM     16  C   UNL     1       4.050   3.697  17.474  0.00  0.00    +0.000 A 
ATOM     17  C   UNL     1       2.694   3.627  17.148  0.00  0.00    +0.000 A 
ATOM     18  C   UNL     1       1.737   3.448  18.148  0.00  0.00    +0.000 A 
ENDBRANCH   1  16
BRANCH  10  19
ATOM     19  C   UNL     1       7.189   6.592  17.584  0.00  0.00    +0.000 C 
ATOM     20  F   UNL     1       8.072   7.557  17.188  0.00  0.00    +0.000 F 
ATOM     21  F   UNL     1       6.048   7.265  17.918  0.00  0.00    +0.000 F 
BRANCH  19  22
ATOM     22  C   UNL     1       7.737   5.867  18.805  0.00  0.00    +0.000 C 
ATOM     23  F   UNL     1       8.692   6.621  19.417  0.00  0.00    +0.000 F 
ATOM     24  F   UNL     1       6.754   5.691  19.733  0.00  0.00    +0.000 F 
ENDBRANCH  19  22
ENDBRANCH  10  19
TORSDOF 3
ENDMDL
MODEL 7
REMARK VINA RESULT:      -8.8      1.413      5.617
REMARK  Name = 
REMARK  4 active torsions:
REMARK  status: ('A' for Active; 'I' for Inactive)
REMARK    1  A    between atoms: C_1  and  C_2
REMARK    2  A    between atoms: C_5  and  C_6
REMARK    3  A    between atoms: C_15  and  C_16
REMARK    4  A    between atoms: C_16  and  C_19
REMARK                            x       y       z     vdW  Elec       q    Type
REMARK                         _______ _______ _______ _____ _____    ______ ____
ROOT
ATOM      1  C   UNL     1       4.840   4.670  16.435  0.00  0.00    +0.000 C 
ATOM      2  N   UNL     1       3.950   3.811  16.835  0.00  0.00    +0.000 NA
ATOM      3  C   UNL     1       3.262   3.996  18.057  0.00  0.00    +0.000 A 
ATOM      4  C   UNL     1       1.894   3.679  18.041  0.00  0.00    +0.000 A 
ATOM      5  C   UNL     1       1.099   3.824  19.179  0.00  0.00    +0.000 A 
ATOM      6  C   UNL     1       1.667   4.281  20.362  0.00  0.00    +0.000 A 
ATOM      7  C   UNL     1       3.028   4.583  20.404  0.00  0.00    +0.000 A 
ATOM      8  C   UNL     1       3.842   4.450  19.269  0.00  0.00    +0.000 A 
ATOM      9  N   UNL     1       5.206   4.770  19.455  0.00  0.00    +0.000 NA
ATOM     10  C   UNL     1       5.852   5.438  18.543  0.00  0.00    +0.000 C 
ATOM     11  C   UNL     1       5.210   5.886  17.255  0.00  0.00    +0.000 C 
ENDROOT
BRANCH   1  16
ATOM     12  C   UNL     1       7.384   3.955  11.266  0.00  0.00    +0.000 C 
ATOM     13  C   UNL     1       6.729   4.105  12.608  0.00  0.00    +0.000 A 
ATOM     14  C   UNL     1       5.458   3.579  12.863  0.00  0.00    +0.000 A 
ATOM     15  C   UNL     1       4.858   3.750  14.114  0.00  0.00    +0.000 A 
ATOM     16  C   UNL     1       5.521   4.460  15.121  0.00  0.00    +0.000 A 
ATOM     17  C   UNL     1       6.801   4.963  14.876  0.00  0.00    +0.000 A 
ATOM     18  C   UNL     1       7.397   4.792  13.626  0.00  0.00    +0.000 A 
ENDBRANCH   1  16
BRANCH  10  19
ATOM     19  C   UNL     1       7.316   5.776  18.767  0.00  0.00    +0.000 C 
ATOM     20  F   UNL     1       7.649   5.741  20.092  0.00  0.00    +0.000 F 
ATOM     21  F   UNL     1       8.122   4.848  18.170  0.00  0.00    +0.000 F 
BRANCH  19  22
ATOM     22  C   UNL     1       7.613   7.158  18.202  0.00  0.00    +0.000 C 
ATOM     23  F   UNL     1       8.677   7.715  18.843  0.00  0.00    +0.000 F 
ATOM     24  F   UNL     1       7.978   7.065  16.892  0.00  0.00    +0.000 F 
ENDBRANCH  19  22
ENDBRANCH  10  19
TORSDOF 3
ENDMDL
MODEL 8
REMARK VINA RESULT:      -8.7      0.685      1.249
REMARK  Name = 
REMARK  4 active torsions:
REMARK  status: ('A' for Active; 'I' for Inactive)
REMARK    1  A    between atoms: C_1  and  C_2
REMARK    2  A    between atoms: C_5  and  C_6
REMARK    3  A    between atoms: C_15  and  C_16
REMARK    4  A    between atoms: C_16  and  C_19
REMARK                            x       y       z     vdW  Elec       q    Type
REMARK                         _______ _______ _______ _____ _____    ______ ____
ROOT
ATOM      1  C   UNL     1       5.049   3.894  16.490  0.00  0.00    +0.000 C 
ATOM      2  N   UNL     1       4.712   3.994  15.239  0.00  0.00    +0.000 NA
ATOM      3  C   UNL     1       5.693   4.169  14.235  0.00  0.00    +0.000 A 
ATOM      4  C   UNL     1       5.487   3.448  13.048  0.00  0.00    +0.000 A 
ATOM      5  C   UNL     1       6.386   3.527  11.983  0.00  0.00    +0.000 A 
ATOM      6  C   UNL     1       7.506   4.342  12.085  0.00  0.00    +0.000 A 
ATOM      7  C   UNL     1       7.718   5.082  13.249  0.00  0.00    +0.000 A 
ATOM      8  C   UNL     1       6.830   5.011  14.333  0.00  0.00    +0.000 A 
ATOM      9  N   UNL     1       7.153   5.826  15.441  0.00  0.00    +0.000 NA
ATOM     10  C   UNL     1       7.011   5.371  16.652  0.00  0.00    +0.000 C 
ATOM     11  C   UNL     1       6.488   3.988  16.945  0.00  0.00    +0.000 C 
ENDROOT
BRANCH   1  16
ATOM     12  C   UNL     1       1.000   3.138  20.580  0.00  0.00    +0.000 C 
ATOM     13  C   UNL     1       2.046   3.298  19.517  0.00  0.00    +0.000 A 
ATOM     14  C   UNL     1       3.338   2.787  19.681  0.00  0.00    +0.000 A 
ATOM     15  C   UNL     1       4.303   2.968  18.686  0.00  0.00    +0.000 A 
ATOM     16  C   UNL     1       3.988   3.673  17.519  0.00  0.00    +0.000 A 
ATOM     17  C   UNL     1       2.690   4.161  17.343  0.00  0.00    +0.000 A 
ATOM     18  C   UNL     1       1.729   3.981  18.338  0.00  0.00    +0.000 A 
ENDBRANCH   1  16
BRANCH  10  19
ATOM     19  C   UNL     1       7.369   6.264  17.828  0.00  0.00    +0.000 C 
ATOM     20  F   UNL     1       8.213   5.637  18.703  0.00  0.00    +0.000 F 
ATOM     21  F   UNL     1       8.049   7.370  17.405  0.00  0.00    +0.000 F 
BRANCH  19  22
ATOM     22  C   UNL     1       6.100   6.683  18.556  0.00  0.00    +0.000 C 
ATOM     23  F   UNL     1       5.068   6.810  17.676  0.00  0.00    +0.000 F 
ATOM     24  F   UNL     1       5.718   5.716  19.437  0.00  0.00    +0.000 F 
ENDBRANCH  19  22
ENDBRANCH  10  19
TORSDOF 3
ENDMDL
MODEL 9
REMARK VINA RESULT:      -8.6      0.766      1.712
REMARK  Name = 
REMARK  4 active torsions:
REMARK  status: ('A' for Active; 'I' for Inactive)
REMARK    1  A    between atoms: C_1  and  C_2
REMARK    2  A    between atoms: C_5  and  C_6
REMARK    3  A    between atoms: C_15  and  C_16
REMARK    4  A    between atoms: C_16  and  C_19
REMARK                            x       y       z     vdW  Elec       q    Type
REMARK                         _______ _______ _______ _____ _____    ______ ____
ROOT
ATOM      1  C   UNL     1       4.950   4.152  16.508  0.00  0.00    +0.000 C 
ATOM      2  N   UNL     1       4.645   4.162  15.245  0.00  0.00    +0.000 NA
ATOM      3  C   UNL     1       5.652   4.246  14.255  0.00  0.00    +0.000 A 
ATOM      4  C   UNL     1       5.461   3.440  13.121  0.00  0.00    +0.000 A 
ATOM      5  C   UNL     1       6.386   3.425  12.076  0.00  0.00    +0.000 A 
ATOM      6  C   UNL     1       7.517   4.228  12.144  0.00  0.00    +0.000 A 
ATOM      7  C   UNL     1       7.715   5.050  13.253  0.00  0.00    +0.000 A 
ATOM      8  C   UNL     1       6.800   5.075  14.317  0.00  0.00    +0.000 A 
ATOM      9  N   UNL     1       7.111   5.967  15.369  0.00  0.00    +0.000 NA
ATOM     10  C   UNL     1       6.933   5.607  16.607  0.00  0.00    +0.000 C 
ATOM     11  C   UNL     1       6.380   4.258  16.990  0.00  0.00    +0.000 C 
ENDROOT
BRANCH   1  16
ATOM     12  C   UNL     1       0.761   3.513  20.475  0.00  0.00    +0.000 C 
ATOM     13  C   UNL     1       1.821   3.697  19.430  0.00  0.00    +0.000 A 
ATOM     14  C   UNL     1       1.716   3.097  18.170  0.00  0.00    +0.000 A 
ATOM     15  C   UNL     1       2.728   3.264  17.219  0.00  0.00    +0.000 A 
ATOM     16  C   UNL     1       3.861   4.026  17.524  0.00  0.00    +0.000 A 
ATOM     17  C   UNL     1       3.954   4.647  18.772  0.00  0.00    +0.000 A 
ATOM     18  C   UNL     1       2.944   4.477  19.720  0.00  0.00    +0.000 A 
ENDBRANCH   1  16
BRANCH  10  19
ATOM     19  C   UNL     1       7.279   6.580  17.721  0.00  0.00    +0.000 C 
ATOM     20  F   UNL     1       8.128   7.563  17.293  0.00  0.00    +0.000 F 
ATOM     21  F   UNL     1       6.161   7.236  18.153  0.00  0.00    +0.000 F 
BRANCH  19  22
ATOM     22  C   UNL     1       7.915   5.825  18.879  0.00  0.00    +0.000 C 
ATOM     23  F   UNL     1       6.974   5.493  19.805  0.00  0.00    +0.000 F 
ATOM     24  F   UNL     1       8.438   4.644  18.443  0.00  0.00    +0.000 F 
ENDBRANCH  19  22
ENDBRANCH  10  19
TORSDOF 3
ENDMDL
