MODEL 1
REMARK VINA RESULT:      -6.3      0.000      0.000
REMARK  Name = 
REMARK  5 active torsions:
REMARK  status: ('A' for Active; 'I' for Inactive)
REMARK    1  A    between atoms: C_2  and  O_3
REMARK    2  A    between atoms: C_2  and  C_4
REMARK    3  A    between atoms: C_4  and  C_5
REMARK    4  A    between atoms: C_5  and  C_6
REMARK    5  A    between atoms: N_12  and  O_13
REMARK                            x       y       z     vdW  Elec       q    Type
REMARK                         _______ _______ _______ _____ _____    ______ ____
ROOT
ATOM      1  C   UNL     1       5.934   5.396  17.876  0.00  0.00    +0.000 C 
ATOM      2  N   UNL     1       5.861   5.409  19.181  0.00  0.00    +0.000 NA
ENDROOT
BRANCH   1   4
ATOM      3  O   UNL     1       7.526   6.060  16.194  0.00  0.00    +0.000 OA
ATOM      4  C   UNL     1       7.212   5.237  17.036  0.00  0.00    +0.000 C 
BRANCH   4   5
ATOM      5  O   UNL     1       7.946   4.158  17.323  0.00  0.00    +0.000 OA
ATOM      6  H   UNL     1       7.475   3.632  18.009  0.00  0.00    +0.000 HD
ENDBRANCH   4   5
ENDBRANCH   1   4
BRANCH   2   7
ATOM      7  O   UNL     1       7.073   5.263  19.854  0.00  0.00    +0.000 OA
ATOM      8  H   UNL     1       6.985   5.912  20.584  0.00  0.00    +0.000 HD
ENDBRANCH   2   7
BRANCH   1   9
ATOM      9  C   UNL     1       4.649   5.528  17.080  0.00  0.00    +0.000 C 
BRANCH   9  10
ATOM     10  C   UNL     1       3.652   4.459  17.452  0.00  0.00    +0.000 A 
ATOM     11  C   UNL     1       2.357   4.807  17.861  0.00  0.00    +0.000 A 
ATOM     12  C   UNL     1       1.454   3.824  18.266  0.00  0.00    +0.000 A 
ATOM     13  C   UNL     1       1.836   2.484  18.271  0.00  0.00    +0.000 A 
ATOM     14  C   UNL     1       3.118   2.125  17.856  0.00  0.00    +0.000 A 
ATOM     15  C   UNL     1       4.022   3.107  17.447  0.00  0.00    +0.000 A 
ENDBRANCH   9  10
ENDBRANCH   1   9
TORSDOF 5
ENDMDL
MODEL 2
REMARK VINA RESULT:      -6.3      0.115      1.606
REMARK  Name = 
REMARK  5 active torsions:
REMARK  status: ('A' for Active; 'I' for Inactive)
REMARK    1  A    between atoms: C_2  and  O_3
REMARK    2  A    between atoms: C_2  and  C_4
REMARK    3  A    between atoms: C_4  and  C_5
REMARK    4  A    between atoms: C_5  and  C_6
REMARK    5  A    between atoms: N_12  and  O_13
REMARK                            x       y       z     vdW  Elec       q    Type
REMARK                         _______ _______ _______ _____ _____    ______ ____
ROOT
ATOM      1  C   UNL     1       5.980   5.311  17.853  0.00  0.00    +0.000 C 
ATOM      2  N   UNL     1       5.867   5.386  19.154  0.00  0.00    +0.000 NA
ENDROOT
BRANCH   1   4
ATOM      3  O   UNL     1       8.056   4.228  17.290  0.00  0.00    +0.000 OA
ATOM      4  C   UNL     1       7.285   5.143  17.060  0.00  0.00    +0.000 C 
BRANCH   4   5
ATOM      5  O   UNL     1       7.482   6.050  16.098  0.00  0.00    +0.000 OA
ATOM      6  H   UNL     1       7.105   5.703  15.258  0.00  0.00    +0.000 HD
ENDBRANCH   4   5
ENDBRANCH   1   4
BRANCH   2   7
ATOM      7  O   UNL     1       7.062   5.302  19.867  0.00  0.00    +0.000 OA
ATOM      8  H   UNL     1       7.622   4.762  19.270  0.00  0.00    +0.000 HD
ENDBRANCH   2   7
BRANCH   1   9
ATOM      9  C   UNL     1       4.716   5.374  17.016  0.00  0.00    +0.000 C 
BRANCH   9  10
ATOM     10  C   UNL     1       3.678   4.392  17.499  0.00  0.00    +0.000 A 
ATOM     11  C   UNL     1       3.952   3.018  17.507  0.00  0.00    +0.000 A 
ATOM     12  C   UNL     1       2.971   2.103  17.893  0.00  0.00    +0.000 A 
ATOM     13  C   UNL     1       1.708   2.551  18.271  0.00  0.00    +0.000 A 
ATOM     14  C   UNL     1       1.428   3.917  18.278  0.00  0.00    +0.000 A 
ATOM     15  C   UNL     1       2.408   4.834  17.894  0.00  0.00    +0.000 A 
ENDBRANCH   9  10
ENDBRANCH   1   9
TORSDOF 5
ENDMDL
MODEL 3
REMARK VINA RESULT:      -6.3      1.174      1.361
REMARK  Name = 
REMARK  5 active torsions:
REMARK  status: ('A' for Active; 'I' for Inactive)
REMARK    1  A    between atoms: C_2  and  O_3
REMARK    2  A    between atoms: C_2  and  C_4
REMARK    3  A    between atoms: C_4  and  C_5
REMARK    4  A    between atoms: C_5  and  C_6
REMARK    5  A    between atoms: N_12  and  O_13
REMARK                            x       y       z     vdW  Elec       q    Type
REMARK                         _______ _______ _______ _____ _____    ______ ____
ROOT
ATOM      1  C   UNL     1       6.679   5.441  18.803  0.00  0.00    +0.000 C 
ATOM      2  N   UNL     1       7.200   5.449  20.002  0.00  0.00    +0.000 NA
ENDROOT
BRANCH   1   4
ATOM      3  O   UNL     1       7.396   5.992  16.571  0.00  0.00    +0.000 OA
ATOM      4  C   UNL     1       7.428   5.188  17.485  0.00  0.00    +0.000 C 
BRANCH   4   5
ATOM      5  O   UNL     1       8.125   4.048  17.441  0.00  0.00    +0.000 OA
ATOM      6  H   UNL     1       8.309   3.758  18.363  0.00  0.00    +0.000 HD
ENDBRANCH   4   5
ENDBRANCH   1   4
BRANCH   2   7
ATOM      7  O   UNL     1       8.571   5.202  20.064  0.00  0.00    +0.000 OA
ATOM      8  H   UNL     1       8.698   4.554  19.339  0.00  0.00    +0.000 HD
ENDBRANCH   2   7
BRANCH   1   9
ATOM      9  C   UNL     1       5.187   5.681  18.664  0.00  0.00    +0.000 C 
BRANCH   9  10
ATOM     10  C   UNL     1       4.434   4.393  18.439  0.00  0.00    +0.000 A 
ATOM     11  C   UNL     1       3.549   4.268  17.359  0.00  0.00    +0.000 A 
ATOM     12  C   UNL     1       2.804   3.101  17.186  0.00  0.00    +0.000 A 
ATOM     13  C   UNL     1       2.932   2.050  18.092  0.00  0.00    +0.000 A 
ATOM     14  C   UNL     1       3.817   2.159  19.163  0.00  0.00    +0.000 A 
ATOM     15  C   UNL     1       4.566   3.325  19.337  0.00  0.00    +0.000 A 
ENDBRANCH   9  10
ENDBRANCH   1   9
TORSDOF 5
ENDMDL
MODEL 4
REMARK VINA RESULT:      -6.3      0.564      1.432
REMARK  Name = 
REMARK  5 active torsions:
REMARK  status: ('A' for Active; 'I' for Inactive)
REMARK    1  A    between atoms: C_2  and  O_3
REMARK    2  A    between atoms: C_2  and  C_4
REMARK    3  A    between atoms: C_4  and  C_5
REMARK    4  A    between atoms: C_5  and  C_6
REMARK    5  A    between atoms: N_12  and  O_13
REMARK                            x       y       z     vdW  Elec       q    Type
REMARK                         _______ _______ _______ _____ _____    ______ ____
ROOT
ATOM      1  C   UNL     1       5.875   4.842  17.701  0.00  0.00    +0.000 C 
ATOM      2  N   UNL     1       5.612   5.009  18.971  0.00  0.00    +0.000 NA
ENDROOT
BRANCH   1   4
ATOM      3  O   UNL     1       7.504   5.637  16.115  0.00  0.00    +0.000 OA
ATOM      4  C   UNL     1       7.263   4.886  17.043  0.00  0.00    +0.000 C 
BRANCH   4   5
ATOM      5  O   UNL     1       8.170   4.067  17.584  0.00  0.00    +0.000 OA
ATOM      6  H   UNL     1       8.580   3.535  16.864  0.00  0.00    +0.000 HD
ENDBRANCH   4   5
ENDBRANCH   1   4
BRANCH   2   7
ATOM      7  O   UNL     1       6.716   5.248  19.787  0.00  0.00    +0.000 OA
ATOM      8  H   UNL     1       7.239   4.425  19.676  0.00  0.00    +0.000 HD
ENDBRANCH   2   7
BRANCH   1   9
ATOM      9  C   UNL     1       4.720   4.555  16.758  0.00  0.00    +0.000 C 
BRANCH   9  10
ATOM     10  C   UNL     1       3.588   3.850  17.462  0.00  0.00    +0.000 A 
ATOM     11  C   UNL     1       3.700   2.494  17.803  0.00  0.00    +0.000 A 
ATOM     12  C   UNL     1       2.630   1.823  18.396  0.00  0.00    +0.000 A 
ATOM     13  C   UNL     1       1.438   2.497  18.652  0.00  0.00    +0.000 A 
ATOM     14  C   UNL     1       1.319   3.848  18.327  0.00  0.00    +0.000 A 
ATOM     15  C   UNL     1       2.389   4.522  17.736  0.00  0.00    +0.000 A 
ENDBRANCH   9  10
ENDBRANCH   1   9
TORSDOF 5
ENDMDL
MODEL 5
REMARK VINA RESULT:      -6.0      1.197      1.910
REMARK  Name = 
REMARK  5 active torsions:
REMARK  status: ('A' for Active; 'I' for Inactive)
REMARK    1  A    between atoms: C_2  and  O_3
REMARK    2  A    between atoms: C_2  and  C_4
REMARK    3  A    between atoms: C_4  and  C_5
REMARK    4  A    between atoms: C_5  and  C_6
REMARK    5  A    between atoms: N_12  and  O_13
REMARK                            x       y       z     vdW  Elec       q    Type
REMARK                         _______ _______ _______ _____ _____    ______ ____
ROOT
ATOM      1  C   UNL     1       6.356   5.680  17.314  0.00  0.00    +0.000 C 
ATOM      2  N   UNL     1       6.305   6.040  16.059  0.00  0.00    +0.000 NA
ENDROOT
BRANCH   1   4
ATOM      3  O   UNL     1       7.863   5.312  19.156  0.00  0.00    +0.000 OA
ATOM      4  C   UNL     1       7.541   5.005  18.022  0.00  0.00    +0.000 C 
BRANCH   4   5
ATOM      5  O   UNL     1       8.156   4.055  17.311  0.00  0.00    +0.000 OA
ATOM      6  H   UNL     1       7.833   3.177  17.617  0.00  0.00    +0.000 HD
ENDBRANCH   4   5
ENDBRANCH   1   4
BRANCH   2   7
ATOM      7  O   UNL     1       7.451   5.776  15.310  0.00  0.00    +0.000 OA
ATOM      8  H   UNL     1       7.394   6.449  14.598  0.00  0.00    +0.000 HD
ENDBRANCH   2   7
BRANCH   1   9
ATOM      9  C   UNL     1       5.150   5.958  18.193  0.00  0.00    +0.000 C 
BRANCH   9  10
ATOM     10  C   UNL     1       4.067   4.927  17.994  0.00  0.00    +0.000 A 
ATOM     11  C   UNL     1       2.723   5.317  17.907  0.00  0.00    +0.000 A 
ATOM     12  C   UNL     1       1.715   4.360  17.788  0.00  0.00    +0.000 A 
ATOM     13  C   UNL     1       2.037   3.005  17.759  0.00  0.00    +0.000 A 
ATOM     14  C   UNL     1       3.371   2.606  17.834  0.00  0.00    +0.000 A 
ATOM     15  C   UNL     1       4.382   3.562  17.950  0.00  0.00    +0.000 A 
ENDBRANCH   9  10
ENDBRANCH   1   9
TORSDOF 5
ENDMDL
MODEL 6
REMARK VINA RESULT:      -6.0      1.366      2.077
REMARK  Name = 
REMARK  5 active torsions:
REMARK  status: ('A' for Active; 'I' for Inactive)
REMARK    1  A    between atoms: C_2  and  O_3
REMARK    2  A    between atoms: C_2  and  C_4
REMARK    3  A    between atoms: C_4  and  C_5
REMARK    4  A    between atoms: C_5  and  C_6
REMARK    5  A    between atoms: N_12  and  O_13
REMARK                            x       y       z     vdW  Elec       q    Type
REMARK                         _______ _______ _______ _____ _____    ______ ____
ROOT
ATOM      1  C   UNL     1       6.679   5.671  16.894  0.00  0.00    +0.000 C 
ATOM      2  N   UNL     1       6.843   6.908  16.503  0.00  0.00    +0.000 NA
ENDROOT
BRANCH   1   4
ATOM      3  O   UNL     1       7.186   5.270  19.214  0.00  0.00    +0.000 OA
ATOM      4  C   UNL     1       7.411   4.977  18.053  0.00  0.00    +0.000 C 
BRANCH   4   5
ATOM      5  O   UNL     1       8.277   4.027  17.686  0.00  0.00    +0.000 OA
ATOM      6  H   UNL     1       9.017   4.011  18.335  0.00  0.00    +0.000 HD
ENDBRANCH   4   5
ENDBRANCH   1   4
BRANCH   2   7
ATOM      7  O   UNL     1       7.777   7.649  17.225  0.00  0.00    +0.000 OA
ATOM      8  H   UNL     1       7.895   7.104  18.031  0.00  0.00    +0.000 HD
ENDBRANCH   2   7
BRANCH   1   9
ATOM      9  C   UNL     1       5.660   4.814  16.165  0.00  0.00    +0.000 C 
BRANCH   9  10
ATOM     10  C   UNL     1       4.347   4.760  16.906  0.00  0.00    +0.000 A 
ATOM     11  C   UNL     1       3.833   5.909  17.522  0.00  0.00    +0.000 A 
ATOM     12  C   UNL     1       2.651   5.847  18.262  0.00  0.00    +0.000 A 
ATOM     13  C   UNL     1       1.974   4.636  18.396  0.00  0.00    +0.000 A 
ATOM     14  C   UNL     1       2.471   3.489  17.779  0.00  0.00    +0.000 A 
ATOM     15  C   UNL     1       3.652   3.550  17.036  0.00  0.00    +0.000 A 
ENDBRANCH   9  10
ENDBRANCH   1   9
TORSDOF 5
ENDMDL
MODEL 7
REMARK VINA RESULT:      -6.0      1.660      2.373
REMARK  Name = 
REMARK  5 active torsions:
REMARK  status: ('A' for Active; 'I' for Inactive)
REMARK    1  A    between atoms: C_2  and  O_3
REMARK    2  A    between atoms: C_2  and  C_4
REMARK    3  A    between atoms: C_4  and  C_5
REMARK    4  A    between atoms: C_5  and  C_6
REMARK    5  A    between atoms: N_12  and  O_13
REMARK                            x       y       z     vdW  Elec       q    Type
REMARK                         _______ _______ _______ _____ _____    ______ ____
ROOT
ATOM      1  C   UNL     1       7.127   6.358  17.596  0.00  0.00    +0.000 C 
ATOM      2  N   UNL     1       7.622   7.565  17.675  0.00  0.00    +0.000 NA
ENDROOT
BRANCH   1   4
ATOM      3  O   UNL     1       7.172   5.262  19.741  0.00  0.00    +0.000 OA
ATOM      4  C   UNL     1       7.419   5.189  18.551  0.00  0.00    +0.000 C 
BRANCH   4   5
ATOM      5  O   UNL     1       7.931   4.100  17.969  0.00  0.00    +0.000 OA
ATOM      6  H   UNL     1       7.227   3.415  17.912  0.00  0.00    +0.000 HD
ENDBRANCH   4   5
ENDBRANCH   1   4
BRANCH   2   7
ATOM      7  O   UNL     1       8.496   7.789  18.737  0.00  0.00    +0.000 OA
ATOM      8  H   UNL     1       8.250   8.695  19.021  0.00  0.00    +0.000 HD
ENDBRANCH   2   7
BRANCH   1   9
ATOM      9  C   UNL     1       6.149   6.051  16.476  0.00  0.00    +0.000 C 
BRANCH   9  10
ATOM     10  C   UNL     1       4.771   5.748  17.008  0.00  0.00    +0.000 A 
ATOM     11  C   UNL     1       4.011   6.754  17.622  0.00  0.00    +0.000 A 
ATOM     12  C   UNL     1       2.762   6.462  18.172  0.00  0.00    +0.000 A 
ATOM     13  C   UNL     1       2.262   5.163  18.118  0.00  0.00    +0.000 A 
ATOM     14  C   UNL     1       3.004   4.157  17.501  0.00  0.00    +0.000 A 
ATOM     15  C   UNL     1       4.252   4.448  16.947  0.00  0.00    +0.000 A 
ENDBRANCH   9  10
ENDBRANCH   1   9
TORSDOF 5
ENDMDL
MODEL 8
REMARK VINA RESULT:      -6.0      1.342      2.275
REMARK  Name = 
REMARK  5 active torsions:
REMARK  status: ('A' for Active; 'I' for Inactive)
REMARK    1  A    between atoms: C_2  and  O_3
REMARK    2  A    between atoms: C_2  and  C_4
REMARK    3  A    between atoms: C_4  and  C_5
REMARK    4  A    between atoms: C_5  and  C_6
REMARK    5  A    between atoms: N_12  and  O_13
REMARK                            x       y       z     vdW  Elec       q    Type
REMARK                         _______ _______ _______ _____ _____    ______ ____
ROOT
ATOM      1  C   UNL     1       6.330   5.429  16.699  0.00  0.00    +0.000 C 
ATOM      2  N   UNL     1       6.567   6.651  16.300  0.00  0.00    +0.000 NA
ENDROOT
BRANCH   1   4
ATOM      3  O   UNL     1       6.655   4.560  18.922  0.00  0.00    +0.000 OA
ATOM      4  C   UNL     1       7.093   4.661  17.790  0.00  0.00    +0.000 C 
BRANCH   4   5
ATOM      5  O   UNL     1       8.240   4.103  17.390  0.00  0.00    +0.000 OA
ATOM      6  H   UNL     1       8.187   3.938  16.421  0.00  0.00    +0.000 HD
ENDBRANCH   4   5
ENDBRANCH   1   4
BRANCH   2   7
ATOM      7  O   UNL     1       7.620   7.300  16.943  0.00  0.00    +0.000 OA
ATOM      8  H   UNL     1       8.370   7.132  16.335  0.00  0.00    +0.000 HD
ENDBRANCH   2   7
BRANCH   1   9
ATOM      9  C   UNL     1       5.183   4.671  16.056  0.00  0.00    +0.000 C 
BRANCH   9  10
ATOM     10  C   UNL     1       3.993   4.575  16.978  0.00  0.00    +0.000 A 
ATOM     11  C   UNL     1       3.309   3.361  17.128  0.00  0.00    +0.000 A 
ATOM     12  C   UNL     1       2.169   3.285  17.931  0.00  0.00    +0.000 A 
ATOM     13  C   UNL     1       1.701   4.421  18.587  0.00  0.00    +0.000 A 
ATOM     14  C   UNL     1       2.379   5.632  18.453  0.00  0.00    +0.000 A 
ATOM     15  C   UNL     1       3.521   5.709  17.653  0.00  0.00    +0.000 A 
ENDBRANCH   9  10
ENDBRANCH   1   9
TORSDOF 5
ENDMDL
MODEL 9
REMARK VINA RESULT:      -5.9      1.032      1.780
REMARK  Name = 
REMARK  5 active torsions:
REMARK  status: ('A' for Active; 'I' for Inactive)
REMARK    1  A    between atoms: C_2  and  O_3
REMARK    2  A    between atoms: C_2  and  C_4
REMARK    3  A    between atoms: C_4  and  C_5
REMARK    4  A    between atoms: C_5  and  C_6
REMARK    5  A    between atoms: N_12  and  O_13
REMARK                            x       y       z     vdW  Elec       q    Type
REMARK                         _______ _______ _______ _____ _____    ______ ____
ROOT
ATOM      1  C   UNL     1       6.182   4.732  17.399  0.00  0.00    +0.000 C 
ATOM      2  N   UNL     1       6.378   4.445  18.660  0.00  0.00    +0.000 NA
ENDROOT
BRANCH   1   4
ATOM      3  O   UNL     1       7.558   5.645  15.646  0.00  0.00    +0.000 OA
ATOM      4  C   UNL     1       6.847   5.870  16.609  0.00  0.00    +0.000 C 
BRANCH   4   5
ATOM      5  O   UNL     1       6.562   7.101  17.045  0.00  0.00    +0.000 OA
ATOM      6  H   UNL     1       6.605   7.721  16.281  0.00  0.00    +0.000 HD
ENDBRANCH   4   5
ENDBRANCH   1   4
BRANCH   2   7
ATOM      7  O   UNL     1       7.283   5.266  19.330  0.00  0.00    +0.000 OA
ATOM      8  H   UNL     1       7.877   5.556  18.605  0.00  0.00    +0.000 HD
ENDBRANCH   2   7
BRANCH   1   9
ATOM      9  C   UNL     1       5.225   3.863  16.603  0.00  0.00    +0.000 C 
BRANCH   9  10
ATOM     10  C   UNL     1       3.900   3.706  17.307  0.00  0.00    +0.000 A 
ATOM     11  C   UNL     1       3.446   2.436  17.689  0.00  0.00    +0.000 A 
ATOM     12  C   UNL     1       2.192   2.282  18.282  0.00  0.00    +0.000 A 
ATOM     13  C   UNL     1       1.379   3.392  18.495  0.00  0.00    +0.000 A 
ATOM     14  C   UNL     1       1.824   4.662  18.128  0.00  0.00    +0.000 A 
ATOM     15  C   UNL     1       3.080   4.819  17.538  0.00  0.00    +0.000 A 
ENDBRANCH   9  10
ENDBRANCH   1   9
TORSDOF 5
ENDMDL
