MODEL 1
REMARK VINA RESULT:      -8.6      0.000      0.000
REMARK  Name = 
REMARK  8 active torsions:
REMARK  status: ('A' for Active; 'I' for Inactive)
REMARK    1  A    between atoms: C_1  and  C_2
REMARK    2  A    between atoms: N_4  and  C_5
REMARK    3  A    between atoms: C_5  and  C_6
REMARK    4  A    between atoms: C_5  and  C_7
REMARK    5  A    between atoms: C_7  and  C_8
REMARK    6  A    between atoms: C_11  and  C_12
REMARK    7  A    between atoms: C_13  and  C_14
REMARK    8  A    between atoms: C_17  and  C_18
REMARK                            x       y       z     vdW  Elec       q    Type
REMARK                         _______ _______ _______ _____ _____    ______ ____
ROOT
ATOM      1  C   UNL     1       8.931   9.595  18.464  0.00  0.00    +0.000 C 
ATOM      2  C   UNL     1       8.251   8.636  18.214  0.00  0.00    +0.000 C 
ENDROOT
BRANCH   1   6
ATOM      3  C   UNL     1      11.219  13.029  19.413  0.00  0.00    +0.000 A 
ATOM      4  C   UNL     1      10.580  12.290  20.415  0.00  0.00    +0.000 A 
ATOM      5  C   UNL     1       9.823  11.166  20.097  0.00  0.00    +0.000 A 
ATOM      6  C   UNL     1       9.710  10.754  18.768  0.00  0.00    +0.000 A 
ATOM      7  C   UNL     1      10.347  11.473  17.760  0.00  0.00    +0.000 A 
ATOM      8  C   UNL     1      11.098  12.610  18.081  0.00  0.00    +0.000 A 
BRANCH   3   9
ATOM      9  C   UNL     1      12.016  14.266  19.765  0.00  0.00    +0.000 C 
BRANCH   9  10
ATOM     10  C   UNL     1      11.273  15.591  19.481  0.00  0.00    +0.000 C 
ATOM     11  C   UNL     1      11.438  16.568  20.648  0.00  0.00    +0.000 C 
BRANCH  10  15
ATOM     12  C   UNL     1       7.815  15.610  17.887  0.00  0.00    +0.000 C 
ATOM     13  C   UNL     1       9.290  15.876  17.980  0.00  0.00    +0.000 C 
ATOM     14  O   UNL     1       9.904  16.456  17.092  0.00  0.00    +0.000 OA
ATOM     15  N   UNL     1       9.860  15.412  19.145  0.00  0.00    +0.000 N 
ATOM     16  H   UNL     1       9.260  15.007  19.851  0.00  0.00    +0.000 HD
ENDBRANCH  10  15
ENDBRANCH   9  10
ENDBRANCH   3   9
ENDBRANCH   1   6
BRANCH   2  17
ATOM     17  C   UNL     1       7.471   7.479  17.921  0.00  0.00    +0.000 A 
ATOM     18  C   UNL     1       6.367   7.553  17.070  0.00  0.00    +0.000 A 
ATOM     19  C   UNL     1       5.590   6.413  16.834  0.00  0.00    +0.000 A 
ATOM     20  C   UNL     1       5.924   5.188  17.431  0.00  0.00    +0.000 A 
ATOM     21  C   UNL     1       7.100   5.108  18.184  0.00  0.00    +0.000 A 
ATOM     22  C   UNL     1       7.836   6.256  18.478  0.00  0.00    +0.000 A 
BRANCH  20  23
ATOM     23  C   UNL     1       5.063   4.003  17.159  0.00  0.00    +0.000 C 
ATOM     24  O   UNL     1       5.236   3.405  16.100  0.00  0.00    +0.000 OA
ATOM     25  N   UNL     1       4.086   3.610  18.066  0.00  0.00    +0.000 N 
ATOM     26  C   UNL     1       3.554   4.261  19.253  0.00  0.00    +0.000 C 
ATOM     27  C   UNL     1       3.190   3.071  20.123  0.00  0.00    +0.000 C 
ATOM     28  C   UNL     1       2.574   2.109  19.112  0.00  0.00    +0.000 C 
ATOM     29  C   UNL     1       3.320   2.398  17.808  0.00  0.00    +0.000 C 
ENDBRANCH  20  23
ENDBRANCH   2  17
TORSDOF 6
ENDMDL
MODEL 2
REMARK VINA RESULT:      -8.4      1.065      1.640
REMARK  Name = 
REMARK  8 active torsions:
REMARK  status: ('A' for Active; 'I' for Inactive)
REMARK    1  A    between atoms: C_1  and  C_2
REMARK    2  A    between atoms: N_4  and  C_5
REMARK    3  A    between atoms: C_5  and  C_6
REMARK    4  A    between atoms: C_5  and  C_7
REMARK    5  A    between atoms: C_7  and  C_8
REMARK    6  A    between atoms: C_11  and  C_12
REMARK    7  A    between atoms: C_13  and  C_14
REMARK    8  A    between atoms: C_17  and  C_18
REMARK                            x       y       z     vdW  Elec       q    Type
REMARK                         _______ _______ _______ _____ _____    ______ ____
ROOT
ATOM      1  C   UNL     1       8.847   9.886  18.295  0.00  0.00    +0.000 C 
ATOM      2  C   UNL     1       8.209   8.887  18.093  0.00  0.00    +0.000 C 
ENDROOT
BRANCH   1   6
ATOM      3  C   UNL     1      10.995  13.481  18.921  0.00  0.00    +0.000 A 
ATOM      4  C   UNL     1       9.967  13.411  17.973  0.00  0.00    +0.000 A 
ATOM      5  C   UNL     1       9.268  12.225  17.766  0.00  0.00    +0.000 A 
ATOM      6  C   UNL     1       9.578  11.092  18.521  0.00  0.00    +0.000 A 
ATOM      7  C   UNL     1      10.593  11.147  19.474  0.00  0.00    +0.000 A 
ATOM      8  C   UNL     1      11.301  12.338  19.672  0.00  0.00    +0.000 A 
BRANCH   3   9
ATOM      9  C   UNL     1      11.768  14.767  19.118  0.00  0.00    +0.000 C 
BRANCH   9  10
ATOM     10  C   UNL     1      11.205  15.964  18.319  0.00  0.00    +0.000 C 
ATOM     11  C   UNL     1      12.333  16.732  17.625  0.00  0.00    +0.000 C 
BRANCH  10  15
ATOM     12  C   UNL     1       8.420  18.108  19.783  0.00  0.00    +0.000 C 
ATOM     13  C   UNL     1       9.045  17.111  18.850  0.00  0.00    +0.000 C 
ATOM     14  O   UNL     1       8.412  16.584  17.943  0.00  0.00    +0.000 OA
ATOM     15  N   UNL     1      10.373  16.865  19.117  0.00  0.00    +0.000 N 
ATOM     16  H   UNL     1      10.829  17.400  19.844  0.00  0.00    +0.000 HD
ENDBRANCH  10  15
ENDBRANCH   9  10
ENDBRANCH   3   9
ENDBRANCH   1   6
BRANCH   2  17
ATOM     17  C   UNL     1       7.471   7.686  17.875  0.00  0.00    +0.000 A 
ATOM     18  C   UNL     1       7.862   6.485  18.469  0.00  0.00    +0.000 A 
ATOM     19  C   UNL     1       7.148   5.311  18.203  0.00  0.00    +0.000 A 
ATOM     20  C   UNL     1       6.027   5.336  17.360  0.00  0.00    +0.000 A 
ATOM     21  C   UNL     1       5.582   6.568  16.871  0.00  0.00    +0.000 A 
ATOM     22  C   UNL     1       6.331   7.726  17.076  0.00  0.00    +0.000 A 
BRANCH  20  23
ATOM     23  C   UNL     1       5.303   4.060  17.098  0.00  0.00    +0.000 C 
ATOM     24  O   UNL     1       5.579   3.449  16.068  0.00  0.00    +0.000 OA
ATOM     25  N   UNL     1       4.334   3.598  17.981  0.00  0.00    +0.000 N 
ATOM     26  C   UNL     1       3.691   4.228  19.123  0.00  0.00    +0.000 C 
ATOM     27  C   UNL     1       3.414   3.035  20.022  0.00  0.00    +0.000 C 
ATOM     28  C   UNL     1       2.940   1.983  19.024  0.00  0.00    +0.000 C 
ATOM     29  C   UNL     1       3.706   2.306  17.739  0.00  0.00    +0.000 C 
ENDBRANCH  20  23
ENDBRANCH   2  17
TORSDOF 6
ENDMDL
MODEL 3
REMARK VINA RESULT:      -8.3      1.676     11.222
REMARK  Name = 
REMARK  8 active torsions:
REMARK  status: ('A' for Active; 'I' for Inactive)
REMARK    1  A    between atoms: C_1  and  C_2
REMARK    2  A    between atoms: N_4  and  C_5
REMARK    3  A    between atoms: C_5  and  C_6
REMARK    4  A    between atoms: C_5  and  C_7
REMARK    5  A    between atoms: C_7  and  C_8
REMARK    6  A    between atoms: C_11  and  C_12
REMARK    7  A    between atoms: C_13  and  C_14
REMARK    8  A    between atoms: C_17  and  C_18
REMARK                            x       y       z     vdW  Elec       q    Type
REMARK                         _______ _______ _______ _____ _____    ______ ____
ROOT
ATOM      1  C   UNL     1       7.825   8.438  17.943  0.00  0.00    +0.000 C 
ATOM      2  C   UNL     1       8.469   9.430  18.155  0.00  0.00    +0.000 C 
ENDROOT
BRANCH   1   6
ATOM      3  C   UNL     1       5.606   4.915  17.170  0.00  0.00    +0.000 A 
ATOM      4  C   UNL     1       5.166   6.161  16.706  0.00  0.00    +0.000 A 
ATOM      5  C   UNL     1       5.896   7.316  16.968  0.00  0.00    +0.000 A 
ATOM      6  C   UNL     1       7.090   7.240  17.687  0.00  0.00    +0.000 A 
ATOM      7  C   UNL     1       7.546   6.007  18.149  0.00  0.00    +0.000 A 
ATOM      8  C   UNL     1       6.805   4.848  17.892  0.00  0.00    +0.000 A 
BRANCH   3   9
ATOM      9  C   UNL     1       4.791   3.668  16.904  0.00  0.00    +0.000 C 
BRANCH   9  10
ATOM     10  C   UNL     1       4.026   3.146  18.140  0.00  0.00    +0.000 C 
ATOM     11  C   UNL     1       3.161   1.937  17.773  0.00  0.00    +0.000 C 
BRANCH  10  15
ATOM     12  C   UNL     1       1.952   5.221  20.567  0.00  0.00    +0.000 C 
ATOM     13  C   UNL     1       2.789   4.059  20.115  0.00  0.00    +0.000 C 
ATOM     14  O   UNL     1       3.036   3.111  20.851  0.00  0.00    +0.000 OA
ATOM     15  N   UNL     1       3.231   4.172  18.816  0.00  0.00    +0.000 N 
ATOM     16  H   UNL     1       2.918   4.959  18.263  0.00  0.00    +0.000 HD
ENDBRANCH  10  15
ENDBRANCH   9  10
ENDBRANCH   3   9
ENDBRANCH   1   6
BRANCH   2  17
ATOM     17  C   UNL     1       9.207  10.622  18.420  0.00  0.00    +0.000 A 
ATOM     18  C   UNL     1      10.291  10.616  19.297  0.00  0.00    +0.000 A 
ATOM     19  C   UNL     1      10.971  11.807  19.576  0.00  0.00    +0.000 A 
ATOM     20  C   UNL     1      10.582  13.007  18.962  0.00  0.00    +0.000 A 
ATOM     21  C   UNL     1       9.571  12.971  17.998  0.00  0.00    +0.000 A 
ATOM     22  C   UNL     1       8.846  11.801  17.771  0.00  0.00    +0.000 A 
BRANCH  20  23
ATOM     23  C   UNL     1      11.328  14.253  19.295  0.00  0.00    +0.000 C 
ATOM     24  O   UNL     1      12.215  14.609  18.523  0.00  0.00    +0.000 OA
ATOM     25  N   UNL     1      11.041  14.967  20.453  0.00  0.00    +0.000 N 
ATOM     26  C   UNL     1      10.213  14.645  21.604  0.00  0.00    +0.000 C 
ATOM     27  C   UNL     1       9.723  16.018  22.029  0.00  0.00    +0.000 C 
ATOM     28  C   UNL     1      10.977  16.871  21.869  0.00  0.00    +0.000 C 
ATOM     29  C   UNL     1      11.731  16.225  20.705  0.00  0.00    +0.000 C 
ENDBRANCH  20  23
ENDBRANCH   2  17
TORSDOF 6
ENDMDL
MODEL 4
REMARK VINA RESULT:      -8.3      1.703     11.412
REMARK  Name = 
REMARK  8 active torsions:
REMARK  status: ('A' for Active; 'I' for Inactive)
REMARK    1  A    between atoms: C_1  and  C_2
REMARK    2  A    between atoms: N_4  and  C_5
REMARK    3  A    between atoms: C_5  and  C_6
REMARK    4  A    between atoms: C_5  and  C_7
REMARK    5  A    between atoms: C_7  and  C_8
REMARK    6  A    between atoms: C_11  and  C_12
REMARK    7  A    between atoms: C_13  and  C_14
REMARK    8  A    between atoms: C_17  and  C_18
REMARK                            x       y       z     vdW  Elec       q    Type
REMARK                         _______ _______ _______ _____ _____    ______ ____
ROOT
ATOM      1  C   UNL     1       7.867   8.303  18.050  0.00  0.00    +0.000 C 
ATOM      2  C   UNL     1       8.517   9.296  18.243  0.00  0.00    +0.000 C 
ENDROOT
BRANCH   1   6
ATOM      3  C   UNL     1       5.584   4.827  17.253  0.00  0.00    +0.000 A 
ATOM      4  C   UNL     1       5.212   6.070  16.726  0.00  0.00    +0.000 A 
ATOM      5  C   UNL     1       5.963   7.211  16.997  0.00  0.00    +0.000 A 
ATOM      6  C   UNL     1       7.110   7.121  17.787  0.00  0.00    +0.000 A 
ATOM      7  C   UNL     1       7.497   5.890  18.312  0.00  0.00    +0.000 A 
ATOM      8  C   UNL     1       6.735   4.746  18.048  0.00  0.00    +0.000 A 
BRANCH   3   9
ATOM      9  C   UNL     1       4.746   3.598  16.977  0.00  0.00    +0.000 C 
BRANCH   9  10
ATOM     10  C   UNL     1       4.063   3.011  18.233  0.00  0.00    +0.000 C 
ATOM     11  C   UNL     1       3.484   1.625  17.940  0.00  0.00    +0.000 C 
BRANCH  10  15
ATOM     12  C   UNL     1       1.529   4.772  20.464  0.00  0.00    +0.000 C 
ATOM     13  C   UNL     1       2.610   3.789  20.117  0.00  0.00    +0.000 C 
ATOM     14  O   UNL     1       3.040   2.981  20.932  0.00  0.00    +0.000 OA
ATOM     15  N   UNL     1       3.048   3.889  18.815  0.00  0.00    +0.000 N 
ATOM     16  H   UNL     1       2.584   4.541  18.196  0.00  0.00    +0.000 HD
ENDBRANCH  10  15
ENDBRANCH   9  10
ENDBRANCH   3   9
ENDBRANCH   1   6
BRANCH   2  17
ATOM     17  C   UNL     1       9.283  10.470  18.505  0.00  0.00    +0.000 A 
ATOM     18  C   UNL     1       9.423  10.963  19.803  0.00  0.00    +0.000 A 
ATOM     19  C   UNL     1      10.141  12.142  20.028  0.00  0.00    +0.000 A 
ATOM     20  C   UNL     1      10.741  12.824  18.959  0.00  0.00    +0.000 A 
ATOM     21  C   UNL     1      10.690  12.252  17.684  0.00  0.00    +0.000 A 
ATOM     22  C   UNL     1       9.916  11.116  17.446  0.00  0.00    +0.000 A 
BRANCH  20  23
ATOM     23  C   UNL     1      11.489  14.081  19.244  0.00  0.00    +0.000 C 
ATOM     24  O   UNL     1      12.333  14.051  20.137  0.00  0.00    +0.000 OA
ATOM     25  N   UNL     1      11.219  15.246  18.537  0.00  0.00    +0.000 N 
ATOM     26  C   UNL     1      10.151  15.586  17.611  0.00  0.00    +0.000 C 
ATOM     27  C   UNL     1      10.845  16.567  16.682  0.00  0.00    +0.000 C 
ATOM     28  C   UNL     1      11.669  17.404  17.655  0.00  0.00    +0.000 C 
ATOM     29  C   UNL     1      12.027  16.434  18.783  0.00  0.00    +0.000 C 
ENDBRANCH  20  23
ENDBRANCH   2  17
TORSDOF 6
ENDMDL
MODEL 5
REMARK VINA RESULT:      -8.3      1.376      1.871
REMARK  Name = 
REMARK  8 active torsions:
REMARK  status: ('A' for Active; 'I' for Inactive)
REMARK    1  A    between atoms: C_1  and  C_2
REMARK    2  A    between atoms: N_4  and  C_5
REMARK    3  A    between atoms: C_5  and  C_6
REMARK    4  A    between atoms: C_5  and  C_7
REMARK    5  A    between atoms: C_7  and  C_8
REMARK    6  A    between atoms: C_11  and  C_12
REMARK    7  A    between atoms: C_13  and  C_14
REMARK    8  A    between atoms: C_17  and  C_18
REMARK                            x       y       z     vdW  Elec       q    Type
REMARK                         _______ _______ _______ _____ _____    ______ ____
ROOT
ATOM      1  C   UNL     1       8.924   9.752  18.518  0.00  0.00    +0.000 C 
ATOM      2  C   UNL     1       8.313   8.746  18.270  0.00  0.00    +0.000 C 
ENDROOT
BRANCH   1   6
ATOM      3  C   UNL     1      11.154  13.252  19.357  0.00  0.00    +0.000 A 
ATOM      4  C   UNL     1      10.407  13.139  18.179  0.00  0.00    +0.000 A 
ATOM      5  C   UNL     1       9.681  11.983  17.905  0.00  0.00    +0.000 A 
ATOM      6  C   UNL     1       9.679  10.927  18.817  0.00  0.00    +0.000 A 
ATOM      7  C   UNL     1      10.411  11.027  19.998  0.00  0.00    +0.000 A 
ATOM      8  C   UNL     1      11.149  12.185  20.267  0.00  0.00    +0.000 A 
BRANCH   3   9
ATOM      9  C   UNL     1      11.964  14.500  19.633  0.00  0.00    +0.000 C 
BRANCH   9  10
ATOM     10  C   UNL     1      11.121  15.695  20.131  0.00  0.00    +0.000 C 
ATOM     11  C   UNL     1      11.867  17.014  19.915  0.00  0.00    +0.000 C 
BRANCH  10  15
ATOM     12  C   UNL     1       9.187  15.164  23.368  0.00  0.00    +0.000 C 
ATOM     13  C   UNL     1       9.409  15.177  21.883  0.00  0.00    +0.000 C 
ATOM     14  O   UNL     1       8.527  14.870  21.091  0.00  0.00    +0.000 OA
ATOM     15  N   UNL     1      10.680  15.565  21.520  0.00  0.00    +0.000 N 
ATOM     16  H   UNL     1      11.320  15.867  22.244  0.00  0.00    +0.000 HD
ENDBRANCH  10  15
ENDBRANCH   9  10
ENDBRANCH   3   9
ENDBRANCH   1   6
BRANCH   2  17
ATOM     17  C   UNL     1       7.566   7.571  17.961  0.00  0.00    +0.000 A 
ATOM     18  C   UNL     1       6.523   7.605  17.035  0.00  0.00    +0.000 A 
ATOM     19  C   UNL     1       5.775   6.450  16.784  0.00  0.00    +0.000 A 
ATOM     20  C   UNL     1       6.080   5.248  17.441  0.00  0.00    +0.000 A 
ATOM     21  C   UNL     1       7.202   5.206  18.275  0.00  0.00    +0.000 A 
ATOM     22  C   UNL     1       7.905   6.371  18.581  0.00  0.00    +0.000 A 
BRANCH  20  23
ATOM     23  C   UNL     1       5.252   4.045  17.149  0.00  0.00    +0.000 C 
ATOM     24  O   UNL     1       5.453   3.459  16.087  0.00  0.00    +0.000 OA
ATOM     25  N   UNL     1       4.273   3.621  18.040  0.00  0.00    +0.000 N 
ATOM     26  C   UNL     1       3.710   4.249  19.225  0.00  0.00    +0.000 C 
ATOM     27  C   UNL     1       3.364   3.044  20.081  0.00  0.00    +0.000 C 
ATOM     28  C   UNL     1       2.784   2.076  19.055  0.00  0.00    +0.000 C 
ATOM     29  C   UNL     1       3.539   2.393  17.763  0.00  0.00    +0.000 C 
ENDBRANCH  20  23
ENDBRANCH   2  17
TORSDOF 6
ENDMDL
MODEL 6
REMARK VINA RESULT:      -8.3      1.079      1.389
REMARK  Name = 
REMARK  8 active torsions:
REMARK  status: ('A' for Active; 'I' for Inactive)
REMARK    1  A    between atoms: C_1  and  C_2
REMARK    2  A    between atoms: N_4  and  C_5
REMARK    3  A    between atoms: C_5  and  C_6
REMARK    4  A    between atoms: C_5  and  C_7
REMARK    5  A    between atoms: C_7  and  C_8
REMARK    6  A    between atoms: C_11  and  C_12
REMARK    7  A    between atoms: C_13  and  C_14
REMARK    8  A    between atoms: C_17  and  C_18
REMARK                            x       y       z     vdW  Elec       q    Type
REMARK                         _______ _______ _______ _____ _____    ______ ____
ROOT
ATOM      1  C   UNL     1       8.865   9.698  18.414  0.00  0.00    +0.000 C 
ATOM      2  C   UNL     1       8.218   8.711  18.184  0.00  0.00    +0.000 C 
ENDROOT
BRANCH   1   6
ATOM      3  C   UNL     1      11.097  13.192  19.274  0.00  0.00    +0.000 A 
ATOM      4  C   UNL     1      10.285  13.118  18.136  0.00  0.00    +0.000 A 
ATOM      5  C   UNL     1       9.558  11.964  17.855  0.00  0.00    +0.000 A 
ATOM      6  C   UNL     1       9.622  10.871  18.720  0.00  0.00    +0.000 A 
ATOM      7  C   UNL     1      10.419  10.932  19.861  0.00  0.00    +0.000 A 
ATOM      8  C   UNL     1      11.157  12.088  20.136  0.00  0.00    +0.000 A 
BRANCH   3   9
ATOM      9  C   UNL     1      11.906  14.439  19.556  0.00  0.00    +0.000 C 
BRANCH   9  10
ATOM     10  C   UNL     1      11.096  15.571  20.227  0.00  0.00    +0.000 C 
ATOM     11  C   UNL     1      10.168  15.009  21.306  0.00  0.00    +0.000 C 
BRANCH  10  15
ATOM     12  C   UNL     1       9.917  18.223  17.763  0.00  0.00    +0.000 C 
ATOM     13  C   UNL     1      10.891  17.506  18.652  0.00  0.00    +0.000 C 
ATOM     14  O   UNL     1      12.048  17.887  18.791  0.00  0.00    +0.000 OA
ATOM     15  N   UNL     1      10.354  16.404  19.281  0.00  0.00    +0.000 N 
ATOM     16  H   UNL     1       9.369  16.208  19.158  0.00  0.00    +0.000 HD
ENDBRANCH  10  15
ENDBRANCH   9  10
ENDBRANCH   3   9
ENDBRANCH   1   6
BRANCH   2  17
ATOM     17  C   UNL     1       7.469   7.535  17.886  0.00  0.00    +0.000 A 
ATOM     18  C   UNL     1       6.379   7.578  17.017  0.00  0.00    +0.000 A 
ATOM     19  C   UNL     1       5.632   6.419  16.776  0.00  0.00    +0.000 A 
ATOM     20  C   UNL     1       5.984   5.206  17.387  0.00  0.00    +0.000 A 
ATOM     21  C   UNL     1       7.149   5.158  18.160  0.00  0.00    +0.000 A 
ATOM     22  C   UNL     1       7.853   6.324  18.458  0.00  0.00    +0.000 A 
BRANCH  20  23
ATOM     23  C   UNL     1       5.156   4.000  17.109  0.00  0.00    +0.000 C 
ATOM     24  O   UNL     1       5.364   3.395  16.060  0.00  0.00    +0.000 OA
ATOM     25  N   UNL     1       4.168   3.594  17.999  0.00  0.00    +0.000 N 
ATOM     26  C   UNL     1       3.597   4.244  19.167  0.00  0.00    +0.000 C 
ATOM     27  C   UNL     1       3.240   3.055  20.042  0.00  0.00    +0.000 C 
ATOM     28  C   UNL     1       2.667   2.070  19.028  0.00  0.00    +0.000 C 
ATOM     29  C   UNL     1       3.434   2.363  17.737  0.00  0.00    +0.000 C 
ENDBRANCH  20  23
ENDBRANCH   2  17
TORSDOF 6
ENDMDL
MODEL 7
REMARK VINA RESULT:      -8.3      1.467      2.163
REMARK  Name = 
REMARK  8 active torsions:
REMARK  status: ('A' for Active; 'I' for Inactive)
REMARK    1  A    between atoms: C_1  and  C_2
REMARK    2  A    between atoms: N_4  and  C_5
REMARK    3  A    between atoms: C_5  and  C_6
REMARK    4  A    between atoms: C_5  and  C_7
REMARK    5  A    between atoms: C_7  and  C_8
REMARK    6  A    between atoms: C_11  and  C_12
REMARK    7  A    between atoms: C_13  and  C_14
REMARK    8  A    between atoms: C_17  and  C_18
REMARK                            x       y       z     vdW  Elec       q    Type
REMARK                         _______ _______ _______ _____ _____    ______ ____
ROOT
ATOM      1  C   UNL     1       8.936   9.666  18.506  0.00  0.00    +0.000 C 
ATOM      2  C   UNL     1       8.283   8.679  18.295  0.00  0.00    +0.000 C 
ENDROOT
BRANCH   1   6
ATOM      3  C   UNL     1      11.243  13.104  19.394  0.00  0.00    +0.000 A 
ATOM      4  C   UNL     1      10.631  12.363  20.413  0.00  0.00    +0.000 A 
ATOM      5  C   UNL     1       9.868  11.238  20.115  0.00  0.00    +0.000 A 
ATOM      6  C   UNL     1       9.720  10.826  18.790  0.00  0.00    +0.000 A 
ATOM      7  C   UNL     1      10.329  11.547  17.765  0.00  0.00    +0.000 A 
ATOM      8  C   UNL     1      11.087  12.684  18.066  0.00  0.00    +0.000 A 
BRANCH   3   9
ATOM      9  C   UNL     1      12.047  14.342  19.726  0.00  0.00    +0.000 C 
BRANCH   9  10
ATOM     10  C   UNL     1      11.187  15.610  19.929  0.00  0.00    +0.000 C 
ATOM     11  C   UNL     1      11.378  16.588  18.768  0.00  0.00    +0.000 C 
BRANCH  10  15
ATOM     12  C   UNL     1      11.096  16.819  23.539  0.00  0.00    +0.000 C 
ATOM     13  C   UNL     1      10.715  15.968  22.361  0.00  0.00    +0.000 C 
ATOM     14  O   UNL     1       9.859  15.095  22.440  0.00  0.00    +0.000 OA
ATOM     15  N   UNL     1      11.413  16.273  21.214  0.00  0.00    +0.000 N 
ATOM     16  H   UNL     1      12.052  17.058  21.228  0.00  0.00    +0.000 HD
ENDBRANCH  10  15
ENDBRANCH   9  10
ENDBRANCH   3   9
ENDBRANCH   1   6
BRANCH   2  17
ATOM     17  C   UNL     1       7.509   7.515  18.012  0.00  0.00    +0.000 A 
ATOM     18  C   UNL     1       7.813   6.289  18.603  0.00  0.00    +0.000 A 
ATOM     19  C   UNL     1       7.067   5.151  18.275  0.00  0.00    +0.000 A 
ATOM     20  C   UNL     1       5.999   5.239  17.369  0.00  0.00    +0.000 A 
ATOM     21  C   UNL     1       5.636   6.497  16.879  0.00  0.00    +0.000 A 
ATOM     22  C   UNL     1       6.420   7.618  17.149  0.00  0.00    +0.000 A 
BRANCH  20  23
ATOM     23  C   UNL     1       5.238   4.000  17.042  0.00  0.00    +0.000 C 
ATOM     24  O   UNL     1       5.510   3.426  15.990  0.00  0.00    +0.000 OA
ATOM     25  N   UNL     1       4.243   3.531  17.890  0.00  0.00    +0.000 N 
ATOM     26  C   UNL     1       3.603   4.132  19.050  0.00  0.00    +0.000 C 
ATOM     27  C   UNL     1       3.275   2.911  19.891  0.00  0.00    +0.000 C 
ATOM     28  C   UNL     1       2.782   1.920  18.842  0.00  0.00    +0.000 C 
ATOM     29  C   UNL     1       3.577   2.272  17.583  0.00  0.00    +0.000 C 
ENDBRANCH  20  23
ENDBRANCH   2  17
TORSDOF 6
ENDMDL
MODEL 8
REMARK VINA RESULT:      -8.2      1.380      1.863
REMARK  Name = 
REMARK  8 active torsions:
REMARK  status: ('A' for Active; 'I' for Inactive)
REMARK    1  A    between atoms: C_1  and  C_2
REMARK    2  A    between atoms: N_4  and  C_5
REMARK    3  A    between atoms: C_5  and  C_6
REMARK    4  A    between atoms: C_5  and  C_7
REMARK    5  A    between atoms: C_7  and  C_8
REMARK    6  A    between atoms: C_11  and  C_12
REMARK    7  A    between atoms: C_13  and  C_14
REMARK    8  A    between atoms: C_17  and  C_18
REMARK                            x       y       z     vdW  Elec       q    Type
REMARK                         _______ _______ _______ _____ _____    ______ ____
ROOT
ATOM      1  C   UNL     1       8.928   9.967  18.298  0.00  0.00    +0.000 C 
ATOM      2  C   UNL     1       8.292   8.960  18.131  0.00  0.00    +0.000 C 
ENDROOT
BRANCH   1   6
ATOM      3  C   UNL     1      11.203  13.462  19.026  0.00  0.00    +0.000 A 
ATOM      4  C   UNL     1      11.504  12.259  19.675  0.00  0.00    +0.000 A 
ATOM      5  C   UNL     1      10.748  11.114  19.437  0.00  0.00    +0.000 A 
ATOM      6  C   UNL     1       9.688  11.154  18.530  0.00  0.00    +0.000 A 
ATOM      7  C   UNL     1       9.381  12.342  17.870  0.00  0.00    +0.000 A 
ATOM      8  C   UNL     1      10.135  13.494  18.119  0.00  0.00    +0.000 A 
BRANCH   3   9
ATOM      9  C   UNL     1      12.012  14.709  19.313  0.00  0.00    +0.000 C 
BRANCH   9  10
ATOM     10  C   UNL     1      11.278  15.742  20.197  0.00  0.00    +0.000 C 
ATOM     11  C   UNL     1      12.207  16.901  20.565  0.00  0.00    +0.000 C 
BRANCH  10  15
ATOM     12  C   UNL     1       8.923  14.508  22.923  0.00  0.00    +0.000 C 
ATOM     13  C   UNL     1       9.304  15.105  21.599  0.00  0.00    +0.000 C 
ATOM     14  O   UNL     1       8.465  15.501  20.799  0.00  0.00    +0.000 OA
ATOM     15  N   UNL     1      10.665  15.163  21.393  0.00  0.00    +0.000 N 
ATOM     16  H   UNL     1      11.282  14.875  22.141  0.00  0.00    +0.000 HD
ENDBRANCH  10  15
ENDBRANCH   9  10
ENDBRANCH   3   9
ENDBRANCH   1   6
BRANCH   2  17
ATOM     17  C   UNL     1       7.542   7.769  17.901  0.00  0.00    +0.000 A 
ATOM     18  C   UNL     1       7.910   6.562  18.497  0.00  0.00    +0.000 A 
ATOM     19  C   UNL     1       7.185   5.398  18.219  0.00  0.00    +0.000 A 
ATOM     20  C   UNL     1       6.076   5.438  17.362  0.00  0.00    +0.000 A 
ATOM     21  C   UNL     1       5.652   6.676  16.870  0.00  0.00    +0.000 A 
ATOM     22  C   UNL     1       6.413   7.825  17.087  0.00  0.00    +0.000 A 
BRANCH  20  23
ATOM     23  C   UNL     1       5.339   4.172  17.088  0.00  0.00    +0.000 C 
ATOM     24  O   UNL     1       5.608   3.569  16.052  0.00  0.00    +0.000 OA
ATOM     25  N   UNL     1       4.368   3.710  17.968  0.00  0.00    +0.000 N 
ATOM     26  C   UNL     1       3.731   4.334  19.117  0.00  0.00    +0.000 C 
ATOM     27  C   UNL     1       3.445   3.135  20.003  0.00  0.00    +0.000 C 
ATOM     28  C   UNL     1       2.960   2.098  18.996  0.00  0.00    +0.000 C 
ATOM     29  C   UNL     1       3.727   2.426  17.713  0.00  0.00    +0.000 C 
ENDBRANCH  20  23
ENDBRANCH   2  17
TORSDOF 6
ENDMDL
MODEL 9
REMARK VINA RESULT:      -8.1      1.683     11.115
REMARK  Name = 
REMARK  8 active torsions:
REMARK  status: ('A' for Active; 'I' for Inactive)
REMARK    1  A    between atoms: C_1  and  C_2
REMARK    2  A    between atoms: N_4  and  C_5
REMARK    3  A    between atoms: C_5  and  C_6
REMARK    4  A    between atoms: C_5  and  C_7
REMARK    5  A    between atoms: C_7  and  C_8
REMARK    6  A    between atoms: C_11  and  C_12
REMARK    7  A    between atoms: C_13  and  C_14
REMARK    8  A    between atoms: C_17  and  C_18
REMARK                            x       y       z     vdW  Elec       q    Type
REMARK                         _______ _______ _______ _____ _____    ______ ____
ROOT
ATOM      1  C   UNL     1       7.627   8.334  17.830  0.00  0.00    +0.000 C 
ATOM      2  C   UNL     1       8.266   9.338  18.000  0.00  0.00    +0.000 C 
ENDROOT
BRANCH   1   6
ATOM      3  C   UNL     1       5.355   4.832  17.119  0.00  0.00    +0.000 A 
ATOM      4  C   UNL     1       4.861   6.095  16.772  0.00  0.00    +0.000 A 
ATOM      5  C   UNL     1       5.609   7.244  17.014  0.00  0.00    +0.000 A 
ATOM      6  C   UNL     1       6.875   7.143  17.593  0.00  0.00    +0.000 A 
ATOM      7  C   UNL     1       7.385   5.893  17.938  0.00  0.00    +0.000 A 
ATOM      8  C   UNL     1       6.626   4.741  17.703  0.00  0.00    +0.000 A 
BRANCH   3   9
ATOM      9  C   UNL     1       4.522   3.592  16.879  0.00  0.00    +0.000 C 
BRANCH   9  10
ATOM     10  C   UNL     1       3.975   2.946  18.171  0.00  0.00    +0.000 C 
ATOM     11  C   UNL     1       3.705   1.454  17.961  0.00  0.00    +0.000 C 
BRANCH  10  15
ATOM     12  C   UNL     1       1.500   5.106  20.097  0.00  0.00    +0.000 C 
ATOM     13  C   UNL     1       2.850   4.603  19.673  0.00  0.00    +0.000 C 
ATOM     14  O   UNL     1       3.888   5.039  20.157  0.00  0.00    +0.000 OA
ATOM     15  N   UNL     1       2.793   3.619  18.710  0.00  0.00    +0.000 N 
ATOM     16  H   UNL     1       1.886   3.274  18.422  0.00  0.00    +0.000 HD
ENDBRANCH  10  15
ENDBRANCH   9  10
ENDBRANCH   3   9
ENDBRANCH   1   6
BRANCH   2  17
ATOM     17  C   UNL     1       9.027  10.522  18.232  0.00  0.00    +0.000 A 
ATOM     18  C   UNL     1       8.678  11.731  17.629  0.00  0.00    +0.000 A 
ATOM     19  C   UNL     1       9.467  12.868  17.837  0.00  0.00    +0.000 A 
ATOM     20  C   UNL     1      10.597  12.807  18.666  0.00  0.00    +0.000 A 
ATOM     21  C   UNL     1      10.861  11.619  19.355  0.00  0.00    +0.000 A 
ATOM     22  C   UNL     1      10.119  10.467  19.095  0.00  0.00    +0.000 A 
BRANCH  20  23
ATOM     23  C   UNL     1      11.412  14.040  18.852  0.00  0.00    +0.000 C 
ATOM     24  O   UNL     1      12.226  14.322  17.975  0.00  0.00    +0.000 OA
ATOM     25  N   UNL     1      11.267  14.825  19.989  0.00  0.00    +0.000 N 
ATOM     26  C   UNL     1      10.551  14.596  21.234  0.00  0.00    +0.000 C 
ATOM     27  C   UNL     1      10.151  16.007  21.627  0.00  0.00    +0.000 C 
ATOM     28  C   UNL     1      11.409  16.803  21.295  0.00  0.00    +0.000 C 
ATOM     29  C   UNL     1      12.019  16.068  20.100  0.00  0.00    +0.000 C 
ENDBRANCH  20  23
ENDBRANCH   2  17
TORSDOF 6
ENDMDL
