MODEL 1
REMARK VINA RESULT:      -7.0      0.000      0.000
REMARK  Name = 
REMARK  7 active torsions:
REMARK  status: ('A' for Active; 'I' for Inactive)
REMARK    1  A    between atoms: C_2  and  C_3
REMARK    2  A    between atoms: C_3  and  C_4
REMARK    3  A    between atoms: C_4  and  C_5
REMARK    4  A    between atoms: N_9  and  C_10
REMARK    5  A    between atoms: C_10  and  C_11
REMARK    6  A    between atoms: C_11  and  C_12
REMARK    7  A    between atoms: C_12  and  C_13
REMARK                            x       y       z     vdW  Elec       q    Type
REMARK                         _______ _______ _______ _____ _____    ______ ____
ROOT
ATOM      1  O   UNL     1       7.517   4.888  16.410  0.00  0.00    +0.000 OA
ATOM      2  C   UNL     1       6.753   5.093  15.474  0.00  0.00    +0.000 C 
ATOM      3  N   UNL     1       5.679   5.945  15.526  0.00  0.00    +0.000 N 
ATOM      4  H   UNL     1       5.119   6.103  14.699  0.00  0.00    +0.000 HD
ENDROOT
BRANCH   2   5
ATOM      5  C   UNL     1       6.922   4.406  14.128  0.00  0.00    +0.000 C 
BRANCH   5   6
ATOM      6  C   UNL     1       5.612   3.788  13.654  0.00  0.00    +0.000 C 
BRANCH   6   7
ATOM      7  C   UNL     1       5.655   3.395  12.188  0.00  0.00    +0.000 C 
ATOM      8  F   UNL     1       4.509   3.682  11.535  0.00  0.00    +0.000 F 
ATOM      9  F   UNL     1       6.644   4.072  11.552  0.00  0.00    +0.000 F 
ATOM     10  F   UNL     1       5.910   2.079  12.033  0.00  0.00    +0.000 F 
ENDBRANCH   6   7
ENDBRANCH   5   6
ENDBRANCH   2   5
BRANCH   3  11
ATOM     11  C   UNL     1       5.327   6.676  16.731  0.00  0.00    +0.000 C 
BRANCH  11  12
ATOM     12  C   UNL     1       4.626   5.773  17.740  0.00  0.00    +0.000 C 
BRANCH  12  13
ATOM     13  C   UNL     1       3.189   6.222  17.986  0.00  0.00    +0.000 C 
BRANCH  13  14
ATOM     14  C   UNL     1       2.372   5.139  18.643  0.00  0.00    +0.000 A 
ATOM     15  C   UNL     1       1.987   4.011  17.921  0.00  0.00    +0.000 A 
ATOM     16  C   UNL     1       1.194   3.052  18.544  0.00  0.00    +0.000 A 
ATOM     17  C   UNL     1       0.821   3.233  19.870  0.00  0.00    +0.000 A 
ATOM     18  C   UNL     1       1.271   4.369  20.524  0.00  0.00    +0.000 A 
ATOM     19  N   UNL     1       2.036   5.320  19.943  0.00  0.00    +0.000 NA
ENDBRANCH  13  14
ENDBRANCH  12  13
ENDBRANCH  11  12
ENDBRANCH   3  11
TORSDOF 7
ENDMDL
MODEL 2
REMARK VINA RESULT:      -6.9      1.525      1.813
REMARK  Name = 
REMARK  7 active torsions:
REMARK  status: ('A' for Active; 'I' for Inactive)
REMARK    1  A    between atoms: C_2  and  C_3
REMARK    2  A    between atoms: C_3  and  C_4
REMARK    3  A    between atoms: C_4  and  C_5
REMARK    4  A    between atoms: N_9  and  C_10
REMARK    5  A    between atoms: C_10  and  C_11
REMARK    6  A    between atoms: C_11  and  C_12
REMARK    7  A    between atoms: C_12  and  C_13
REMARK                            x       y       z     vdW  Elec       q    Type
REMARK                         _______ _______ _______ _____ _____    ______ ____
ROOT
ATOM      1  O   UNL     1       6.930   5.882  15.384  0.00  0.00    +0.000 OA
ATOM      2  C   UNL     1       6.774   4.704  15.686  0.00  0.00    +0.000 C 
ATOM      3  N   UNL     1       6.838   4.221  16.969  0.00  0.00    +0.000 N 
ATOM      4  H   UNL     1       6.650   3.244  17.150  0.00  0.00    +0.000 HD
ENDROOT
BRANCH   2   5
ATOM      5  C   UNL     1       6.487   3.634  14.645  0.00  0.00    +0.000 C 
BRANCH   5   6
ATOM      6  C   UNL     1       5.470   4.120  13.619  0.00  0.00    +0.000 C 
BRANCH   6   7
ATOM      7  C   UNL     1       5.692   3.505  12.248  0.00  0.00    +0.000 C 
ATOM      8  F   UNL     1       4.655   3.707  11.409  0.00  0.00    +0.000 F 
ATOM      9  F   UNL     1       6.781   4.060  11.659  0.00  0.00    +0.000 F 
ATOM     10  F   UNL     1       5.916   2.177  12.328  0.00  0.00    +0.000 F 
ENDBRANCH   6   7
ENDBRANCH   5   6
ENDBRANCH   2   5
BRANCH   3  11
ATOM     11  C   UNL     1       7.131   5.077  18.105  0.00  0.00    +0.000 C 
BRANCH  11  12
ATOM     12  C   UNL     1       5.944   5.158  19.058  0.00  0.00    +0.000 C 
BRANCH  12  13
ATOM     13  C   UNL     1       4.679   5.615  18.337  0.00  0.00    +0.000 C 
BRANCH  13  14
ATOM     14  C   UNL     1       3.652   4.515  18.263  0.00  0.00    +0.000 A 
ATOM     15  C   UNL     1       2.297   4.806  18.404  0.00  0.00    +0.000 A 
ATOM     16  C   UNL     1       1.377   3.761  18.377  0.00  0.00    +0.000 A 
ATOM     17  C   UNL     1       1.830   2.461  18.195  0.00  0.00    +0.000 A 
ATOM     18  C   UNL     1       3.192   2.261  18.034  0.00  0.00    +0.000 A 
ATOM     19  N   UNL     1       4.108   3.255  18.062  0.00  0.00    +0.000 NA
ENDBRANCH  13  14
ENDBRANCH  12  13
ENDBRANCH  11  12
ENDBRANCH   3  11
TORSDOF 7
ENDMDL
MODEL 3
REMARK VINA RESULT:      -6.8      0.713      1.452
REMARK  Name = 
REMARK  7 active torsions:
REMARK  status: ('A' for Active; 'I' for Inactive)
REMARK    1  A    between atoms: C_2  and  C_3
REMARK    2  A    between atoms: C_3  and  C_4
REMARK    3  A    between atoms: C_4  and  C_5
REMARK    4  A    between atoms: N_9  and  C_10
REMARK    5  A    between atoms: C_10  and  C_11
REMARK    6  A    between atoms: C_11  and  C_12
REMARK    7  A    between atoms: C_12  and  C_13
REMARK                            x       y       z     vdW  Elec       q    Type
REMARK                         _______ _______ _______ _____ _____    ______ ____
ROOT
ATOM      1  O   UNL     1       7.491   5.050  16.324  0.00  0.00    +0.000 OA
ATOM      2  C   UNL     1       6.507   4.857  15.619  0.00  0.00    +0.000 C 
ATOM      3  N   UNL     1       5.331   5.558  15.727  0.00  0.00    +0.000 N 
ATOM      4  H   UNL     1       4.576   5.379  15.079  0.00  0.00    +0.000 HD
ENDROOT
BRANCH   2   5
ATOM      5  C   UNL     1       6.487   3.798  14.530  0.00  0.00    +0.000 C 
BRANCH   5   6
ATOM      6  C   UNL     1       5.325   4.015  13.568  0.00  0.00    +0.000 C 
BRANCH   6   7
ATOM      7  C   UNL     1       5.611   3.464  12.182  0.00  0.00    +0.000 C 
ATOM      8  F   UNL     1       5.772   2.125  12.174  0.00  0.00    +0.000 F 
ATOM      9  F   UNL     1       4.574   3.735  11.350  0.00  0.00    +0.000 F 
ATOM     10  F   UNL     1       6.713   4.024  11.641  0.00  0.00    +0.000 F 
ENDBRANCH   6   7
ENDBRANCH   5   6
ENDBRANCH   2   5
BRANCH   3  11
ATOM     11  C   UNL     1       5.136   6.594  16.727  0.00  0.00    +0.000 C 
BRANCH  11  12
ATOM     12  C   UNL     1       4.498   6.030  17.990  0.00  0.00    +0.000 C 
BRANCH  12  13
ATOM     13  C   UNL     1       2.996   6.297  18.025  0.00  0.00    +0.000 C 
BRANCH  13  14
ATOM     14  C   UNL     1       2.245   5.173  18.692  0.00  0.00    +0.000 A 
ATOM     15  C   UNL     1       1.998   5.207  20.063  0.00  0.00    +0.000 A 
ATOM     16  C   UNL     1       1.343   4.131  20.655  0.00  0.00    +0.000 A 
ATOM     17  C   UNL     1       0.939   3.063  19.866  0.00  0.00    +0.000 A 
ATOM     18  C   UNL     1       1.198   3.121  18.506  0.00  0.00    +0.000 A 
ATOM     19  N   UNL     1       1.838   4.149  17.905  0.00  0.00    +0.000 NA
ENDBRANCH  13  14
ENDBRANCH  12  13
ENDBRANCH  11  12
ENDBRANCH   3  11
TORSDOF 7
ENDMDL
MODEL 4
REMARK VINA RESULT:      -6.8      1.300      1.877
REMARK  Name = 
REMARK  7 active torsions:
REMARK  status: ('A' for Active; 'I' for Inactive)
REMARK    1  A    between atoms: C_2  and  C_3
REMARK    2  A    between atoms: C_3  and  C_4
REMARK    3  A    between atoms: C_4  and  C_5
REMARK    4  A    between atoms: N_9  and  C_10
REMARK    5  A    between atoms: C_10  and  C_11
REMARK    6  A    between atoms: C_11  and  C_12
REMARK    7  A    between atoms: C_12  and  C_13
REMARK                            x       y       z     vdW  Elec       q    Type
REMARK                         _______ _______ _______ _____ _____    ______ ____
ROOT
ATOM      1  O   UNL     1       6.083   6.146  15.559  0.00  0.00    +0.000 OA
ATOM      2  C   UNL     1       6.520   5.001  15.552  0.00  0.00    +0.000 C 
ATOM      3  N   UNL     1       6.808   4.278  16.683  0.00  0.00    +0.000 N 
ATOM      4  H   UNL     1       7.119   3.320  16.603  0.00  0.00    +0.000 HD
ENDROOT
BRANCH   2   5
ATOM      5  C   UNL     1       6.794   4.248  14.261  0.00  0.00    +0.000 C 
BRANCH   5   6
ATOM      6  C   UNL     1       5.503   3.721  13.643  0.00  0.00    +0.000 C 
BRANCH   6   7
ATOM      7  C   UNL     1       5.658   3.399  12.167  0.00  0.00    +0.000 C 
ATOM      8  F   UNL     1       6.756   3.960  11.621  0.00  0.00    +0.000 F 
ATOM      9  F   UNL     1       5.780   2.058  11.993  0.00  0.00    +0.000 F 
ATOM     10  F   UNL     1       4.583   3.796  11.455  0.00  0.00    +0.000 F 
ENDBRANCH   6   7
ENDBRANCH   5   6
ENDBRANCH   2   5
BRANCH   3  11
ATOM     11  C   UNL     1       6.643   4.828  18.017  0.00  0.00    +0.000 C 
BRANCH  11  12
ATOM     12  C   UNL     1       5.418   4.244  18.710  0.00  0.00    +0.000 C 
BRANCH  12  13
ATOM     13  C   UNL     1       4.157   5.039  18.379  0.00  0.00    +0.000 C 
BRANCH  13  14
ATOM     14  C   UNL     1       2.915   4.345  18.879  0.00  0.00    +0.000 A 
ATOM     15  C   UNL     1       2.262   4.805  20.020  0.00  0.00    +0.000 A 
ATOM     16  C   UNL     1       1.145   4.115  20.480  0.00  0.00    +0.000 A 
ATOM     17  C   UNL     1       0.701   2.999  19.784  0.00  0.00    +0.000 A 
ATOM     18  C   UNL     1       1.390   2.625  18.642  0.00  0.00    +0.000 A 
ATOM     19  N   UNL     1       2.481   3.272  18.175  0.00  0.00    +0.000 NA
ENDBRANCH  13  14
ENDBRANCH  12  13
ENDBRANCH  11  12
ENDBRANCH   3  11
TORSDOF 7
ENDMDL
MODEL 5
REMARK VINA RESULT:      -6.7      1.113      1.576
REMARK  Name = 
REMARK  7 active torsions:
REMARK  status: ('A' for Active; 'I' for Inactive)
REMARK    1  A    between atoms: C_2  and  C_3
REMARK    2  A    between atoms: C_3  and  C_4
REMARK    3  A    between atoms: C_4  and  C_5
REMARK    4  A    between atoms: N_9  and  C_10
REMARK    5  A    between atoms: C_10  and  C_11
REMARK    6  A    between atoms: C_11  and  C_12
REMARK    7  A    between atoms: C_12  and  C_13
REMARK                            x       y       z     vdW  Elec       q    Type
REMARK                         _______ _______ _______ _____ _____    ______ ____
ROOT
ATOM      1  O   UNL     1       7.546   5.886  15.734  0.00  0.00    +0.000 OA
ATOM      2  C   UNL     1       6.639   5.212  15.260  0.00  0.00    +0.000 C 
ATOM      3  N   UNL     1       5.332   5.274  15.676  0.00  0.00    +0.000 N 
ATOM      4  H   UNL     1       4.626   4.724  15.206  0.00  0.00    +0.000 HD
ENDROOT
BRANCH   2   5
ATOM      5  C   UNL     1       6.875   4.214  14.138  0.00  0.00    +0.000 C 
BRANCH   5   6
ATOM      6  C   UNL     1       5.557   3.700  13.569  0.00  0.00    +0.000 C 
BRANCH   6   7
ATOM      7  C   UNL     1       5.670   3.320  12.103  0.00  0.00    +0.000 C 
ATOM      8  F   UNL     1       6.812   3.758  11.535  0.00  0.00    +0.000 F 
ATOM      9  F   UNL     1       5.663   1.970  11.969  0.00  0.00    +0.000 F 
ATOM     10  F   UNL     1       4.632   3.797  11.383  0.00  0.00    +0.000 F 
ENDBRANCH   6   7
ENDBRANCH   5   6
ENDBRANCH   2   5
BRANCH   3  11
ATOM     11  C   UNL     1       4.904   6.144  16.757  0.00  0.00    +0.000 C 
BRANCH  11  12
ATOM     12  C   UNL     1       4.502   5.340  17.988  0.00  0.00    +0.000 C 
BRANCH  12  13
ATOM     13  C   UNL     1       2.986   5.208  18.098  0.00  0.00    +0.000 C 
BRANCH  13  14
ATOM     14  C   UNL     1       2.588   4.264  19.204  0.00  0.00    +0.000 A 
ATOM     15  C   UNL     1       1.255   4.159  19.595  0.00  0.00    +0.000 A 
ATOM     16  C   UNL     1       0.928   3.312  20.650  0.00  0.00    +0.000 A 
ATOM     17  C   UNL     1       1.932   2.584  21.274  0.00  0.00    +0.000 A 
ATOM     18  C   UNL     1       3.228   2.725  20.805  0.00  0.00    +0.000 A 
ATOM     19  N   UNL     1       3.576   3.543  19.787  0.00  0.00    +0.000 NA
ENDBRANCH  13  14
ENDBRANCH  12  13
ENDBRANCH  11  12
ENDBRANCH   3  11
TORSDOF 7
ENDMDL
MODEL 6
REMARK VINA RESULT:      -6.7      1.631      2.072
REMARK  Name = 
REMARK  7 active torsions:
REMARK  status: ('A' for Active; 'I' for Inactive)
REMARK    1  A    between atoms: C_2  and  C_3
REMARK    2  A    between atoms: C_3  and  C_4
REMARK    3  A    between atoms: C_4  and  C_5
REMARK    4  A    between atoms: N_9  and  C_10
REMARK    5  A    between atoms: C_10  and  C_11
REMARK    6  A    between atoms: C_11  and  C_12
REMARK    7  A    between atoms: C_12  and  C_13
REMARK                            x       y       z     vdW  Elec       q    Type
REMARK                         _______ _______ _______ _____ _____    ______ ____
ROOT
ATOM      1  O   UNL     1       5.470   6.506  15.518  0.00  0.00    +0.000 OA
ATOM      2  C   UNL     1       5.776   5.321  15.590  0.00  0.00    +0.000 C 
ATOM      3  N   UNL     1       6.409   4.751  16.666  0.00  0.00    +0.000 N 
ATOM      4  H   UNL     1       6.587   3.756  16.677  0.00  0.00    +0.000 HD
ENDROOT
BRANCH   2   5
ATOM      5  C   UNL     1       5.478   4.341  14.467  0.00  0.00    +0.000 C 
BRANCH   5   6
ATOM      6  C   UNL     1       6.744   3.976  13.701  0.00  0.00    +0.000 C 
BRANCH   6   7
ATOM      7  C   UNL     1       6.468   3.671  12.239  0.00  0.00    +0.000 C 
ATOM      8  F   UNL     1       7.113   4.506  11.399  0.00  0.00    +0.000 F 
ATOM      9  F   UNL     1       6.888   2.416  11.938  0.00  0.00    +0.000 F 
ATOM     10  F   UNL     1       5.149   3.727  11.959  0.00  0.00    +0.000 F 
ENDBRANCH   6   7
ENDBRANCH   5   6
ENDBRANCH   2   5
BRANCH   3  11
ATOM     11  C   UNL     1       6.807   5.524  17.829  0.00  0.00    +0.000 C 
BRANCH  11  12
ATOM     12  C   UNL     1       6.048   5.081  19.074  0.00  0.00    +0.000 C 
BRANCH  12  13
ATOM     13  C   UNL     1       4.594   5.544  19.036  0.00  0.00    +0.000 C 
BRANCH  13  14
ATOM     14  C   UNL     1       3.661   4.417  18.671  0.00  0.00    +0.000 A 
ATOM     15  C   UNL     1       2.296   4.653  18.525  0.00  0.00    +0.000 A 
ATOM     16  C   UNL     1       1.456   3.582  18.233  0.00  0.00    +0.000 A 
ATOM     17  C   UNL     1       1.999   2.314  18.079  0.00  0.00    +0.000 A 
ATOM     18  C   UNL     1       3.371   2.170  18.213  0.00  0.00    +0.000 A 
ATOM     19  N   UNL     1       4.210   3.190  18.502  0.00  0.00    +0.000 NA
ENDBRANCH  13  14
ENDBRANCH  12  13
ENDBRANCH  11  12
ENDBRANCH   3  11
TORSDOF 7
ENDMDL
MODEL 7
REMARK VINA RESULT:      -6.7      4.688      7.712
REMARK  Name = 
REMARK  7 active torsions:
REMARK  status: ('A' for Active; 'I' for Inactive)
REMARK    1  A    between atoms: C_2  and  C_3
REMARK    2  A    between atoms: C_3  and  C_4
REMARK    3  A    between atoms: C_4  and  C_5
REMARK    4  A    between atoms: N_9  and  C_10
REMARK    5  A    between atoms: C_10  and  C_11
REMARK    6  A    between atoms: C_11  and  C_12
REMARK    7  A    between atoms: C_12  and  C_13
REMARK                            x       y       z     vdW  Elec       q    Type
REMARK                         _______ _______ _______ _____ _____    ______ ____
ROOT
ATOM      1  O   UNL     1       1.435   4.844  17.598  0.00  0.00    +0.000 OA
ATOM      2  C   UNL     1       1.957   3.756  17.812  0.00  0.00    +0.000 C 
ATOM      3  N   UNL     1       3.248   3.438  17.470  0.00  0.00    +0.000 N 
ATOM      4  H   UNL     1       3.629   2.537  17.722  0.00  0.00    +0.000 HD
ENDROOT
BRANCH   2   5
ATOM      5  C   UNL     1       1.210   2.622  18.496  0.00  0.00    +0.000 C 
BRANCH   5   6
ATOM      6  C   UNL     1       1.824   2.294  19.852  0.00  0.00    +0.000 C 
BRANCH   6   7
ATOM      7  C   UNL     1       1.432   3.299  20.922  0.00  0.00    +0.000 C 
ATOM      8  F   UNL     1       1.089   2.714  22.088  0.00  0.00    +0.000 F 
ATOM      9  F   UNL     1       2.477   4.122  21.192  0.00  0.00    +0.000 F 
ATOM     10  F   UNL     1       0.405   4.077  20.522  0.00  0.00    +0.000 F 
ENDBRANCH   6   7
ENDBRANCH   5   6
ENDBRANCH   2   5
BRANCH   3  11
ATOM     11  C   UNL     1       4.119   4.375  16.781  0.00  0.00    +0.000 C 
BRANCH  11  12
ATOM     12  C   UNL     1       5.512   3.790  16.582  0.00  0.00    +0.000 C 
BRANCH  12  13
ATOM     13  C   UNL     1       6.488   4.838  16.055  0.00  0.00    +0.000 C 
BRANCH  13  14
ATOM     14  C   UNL     1       6.739   4.672  14.577  0.00  0.00    +0.000 A 
ATOM     15  C   UNL     1       6.043   3.710  13.848  0.00  0.00    +0.000 A 
ATOM     16  C   UNL     1       6.332   3.552  12.496  0.00  0.00    +0.000 A 
ATOM     17  C   UNL     1       7.291   4.364  11.906  0.00  0.00    +0.000 A 
ATOM     18  C   UNL     1       7.917   5.315  12.695  0.00  0.00    +0.000 A 
ATOM     19  N   UNL     1       7.661   5.487  14.012  0.00  0.00    +0.000 NA
ENDBRANCH  13  14
ENDBRANCH  12  13
ENDBRANCH  11  12
ENDBRANCH   3  11
TORSDOF 7
ENDMDL
MODEL 8
REMARK VINA RESULT:      -6.7      1.106      1.438
REMARK  Name = 
REMARK  7 active torsions:
REMARK  status: ('A' for Active; 'I' for Inactive)
REMARK    1  A    between atoms: C_2  and  C_3
REMARK    2  A    between atoms: C_3  and  C_4
REMARK    3  A    between atoms: C_4  and  C_5
REMARK    4  A    between atoms: N_9  and  C_10
REMARK    5  A    between atoms: C_10  and  C_11
REMARK    6  A    between atoms: C_11  and  C_12
REMARK    7  A    between atoms: C_12  and  C_13
REMARK                            x       y       z     vdW  Elec       q    Type
REMARK                         _______ _______ _______ _____ _____    ______ ____
ROOT
ATOM      1  O   UNL     1       5.585   6.298  15.438  0.00  0.00    +0.000 OA
ATOM      2  C   UNL     1       6.360   5.348  15.419  0.00  0.00    +0.000 C 
ATOM      3  N   UNL     1       6.932   4.797  16.539  0.00  0.00    +0.000 N 
ATOM      4  H   UNL     1       7.524   3.982  16.453  0.00  0.00    +0.000 HD
ENDROOT
BRANCH   2   5
ATOM      5  C   UNL     1       6.775   4.669  14.125  0.00  0.00    +0.000 C 
BRANCH   5   6
ATOM      6  C   UNL     1       5.775   3.592  13.720  0.00  0.00    +0.000 C 
BRANCH   6   7
ATOM      7  C   UNL     1       5.770   3.340  12.223  0.00  0.00    +0.000 C 
ATOM      8  F   UNL     1       5.872   2.031  11.912  0.00  0.00    +0.000 F 
ATOM      9  F   UNL     1       4.606   3.778  11.680  0.00  0.00    +0.000 F 
ATOM     10  F   UNL     1       6.771   3.999  11.603  0.00  0.00    +0.000 F 
ENDBRANCH   6   7
ENDBRANCH   5   6
ENDBRANCH   2   5
BRANCH   3  11
ATOM     11  C   UNL     1       6.688   5.320  17.871  0.00  0.00    +0.000 C 
BRANCH  11  12
ATOM     12  C   UNL     1       5.530   4.595  18.547  0.00  0.00    +0.000 C 
BRANCH  12  13
ATOM     13  C   UNL     1       4.291   5.481  18.636  0.00  0.00    +0.000 C 
BRANCH  13  14
ATOM     14  C   UNL     1       3.086   4.708  19.107  0.00  0.00    +0.000 A 
ATOM     15  C   UNL     1       2.335   3.956  18.206  0.00  0.00    +0.000 A 
ATOM     16  C   UNL     1       1.201   3.291  18.665  0.00  0.00    +0.000 A 
ATOM     17  C   UNL     1       0.857   3.381  20.007  0.00  0.00    +0.000 A 
ATOM     18  C   UNL     1       1.674   4.126  20.842  0.00  0.00    +0.000 A 
ATOM     19  N   UNL     1       2.777   4.787  20.423  0.00  0.00    +0.000 NA
ENDBRANCH  13  14
ENDBRANCH  12  13
ENDBRANCH  11  12
ENDBRANCH   3  11
TORSDOF 7
ENDMDL
MODEL 9
REMARK VINA RESULT:      -6.6      1.838      2.191
REMARK  Name = 
REMARK  7 active torsions:
REMARK  status: ('A' for Active; 'I' for Inactive)
REMARK    1  A    between atoms: C_2  and  C_3
REMARK    2  A    between atoms: C_3  and  C_4
REMARK    3  A    between atoms: C_4  and  C_5
REMARK    4  A    between atoms: N_9  and  C_10
REMARK    5  A    between atoms: C_10  and  C_11
REMARK    6  A    between atoms: C_11  and  C_12
REMARK    7  A    between atoms: C_12  and  C_13
REMARK                            x       y       z     vdW  Elec       q    Type
REMARK                         _______ _______ _______ _____ _____    ______ ____
ROOT
ATOM      1  O   UNL     1       6.013   6.261  15.415  0.00  0.00    +0.000 OA
ATOM      2  C   UNL     1       6.695   5.243  15.411  0.00  0.00    +0.000 C 
ATOM      3  N   UNL     1       7.357   4.752  16.509  0.00  0.00    +0.000 N 
ATOM      4  H   UNL     1       7.861   3.878  16.445  0.00  0.00    +0.000 HD
ENDROOT
BRANCH   2   5
ATOM      5  C   UNL     1       6.882   4.401  14.159  0.00  0.00    +0.000 C 
BRANCH   5   6
ATOM      6  C   UNL     1       5.557   3.817  13.683  0.00  0.00    +0.000 C 
BRANCH   6   7
ATOM      7  C   UNL     1       5.599   3.400  12.223  0.00  0.00    +0.000 C 
ATOM      8  F   UNL     1       5.721   2.065  12.064  0.00  0.00    +0.000 F 
ATOM      9  F   UNL     1       4.449   3.762  11.601  0.00  0.00    +0.000 F 
ATOM     10  F   UNL     1       6.614   3.997  11.564  0.00  0.00    +0.000 F 
ENDBRANCH   6   7
ENDBRANCH   5   6
ENDBRANCH   2   5
BRANCH   3  11
ATOM     11  C   UNL     1       7.330   5.426  17.795  0.00  0.00    +0.000 C 
BRANCH  11  12
ATOM     12  C   UNL     1       5.914   5.853  18.166  0.00  0.00    +0.000 C 
BRANCH  12  13
ATOM     13  C   UNL     1       5.340   4.977  19.276  0.00  0.00    +0.000 C 
BRANCH  13  14
ATOM     14  C   UNL     1       4.366   3.961  18.735  0.00  0.00    +0.000 A 
ATOM     15  C   UNL     1       3.566   4.267  17.637  0.00  0.00    +0.000 A 
ATOM     16  C   UNL     1       2.645   3.323  17.191  0.00  0.00    +0.000 A 
ATOM     17  C   UNL     1       2.558   2.098  17.840  0.00  0.00    +0.000 A 
ATOM     18  C   UNL     1       3.411   1.863  18.906  0.00  0.00    +0.000 A 
ATOM     19  N   UNL     1       4.310   2.762  19.365  0.00  0.00    +0.000 NA
ENDBRANCH  13  14
ENDBRANCH  12  13
ENDBRANCH  11  12
ENDBRANCH   3  11
TORSDOF 7
ENDMDL
