MODEL 1
REMARK VINA RESULT:      -7.6      0.000      0.000
REMARK  Name = 
REMARK  5 active torsions:
REMARK  status: ('A' for Active; 'I' for Inactive)
REMARK    1  A    between atoms: C_2  and  C_4
REMARK    2  A    between atoms: C_4  and  N_5
REMARK    3  A    between atoms: N_5  and  C_6
REMARK    4  A    between atoms: C_6  and  C_7
REMARK    5  A    between atoms: C_14  and  C_16
REMARK                            x       y       z     vdW  Elec       q    Type
REMARK                         _______ _______ _______ _____ _____    ______ ____
ROOT
ATOM      1  N   UNL     1       4.735   4.151  17.756  0.00  0.00    +0.000 N 
ATOM      2  C   UNL     1       3.954   3.006  17.996  0.00  0.00    +0.000 C 
ATOM      3  O   UNL     1       3.921   2.081  17.178  0.00  0.00    +0.000 OA
ENDROOT
BRANCH   2   4
ATOM      4  C   UNL     1       3.031   2.918  19.176  0.00  0.00    +0.000 A 
ATOM      5  C   UNL     1       1.681   3.201  18.978  0.00  0.00    +0.000 A 
ATOM      6  C   UNL     1       0.836   3.220  20.084  0.00  0.00    +0.000 A 
ATOM      7  C   UNL     1       1.362   2.952  21.342  0.00  0.00    +0.000 A 
ATOM      8  C   UNL     1       2.711   2.650  21.441  0.00  0.00    +0.000 A 
ATOM      9  N   UNL     1       3.556   2.606  20.387  0.00  0.00    +0.000 NA
ENDBRANCH   2   4
BRANCH   1  10
ATOM     10  C   UNL     1       5.711   4.085  16.655  0.00  0.00    +0.000 C 
BRANCH  10  12
ATOM     11  N   UNL     1       7.196   6.030  16.249  0.00  0.00    +0.000 N 
ATOM     12  C   UNL     1       7.052   4.818  16.860  0.00  0.00    +0.000 C 
ATOM     13  O   UNL     1       8.006   4.301  17.431  0.00  0.00    +0.000 OA
ATOM     14  H   UNL     1       8.141   6.390  16.220  0.00  0.00    +0.000 HD
ATOM     15  H   UNL     1       6.617   6.203  15.427  0.00  0.00    +0.000 HD
ENDBRANCH  10  12
ENDBRANCH   1  10
BRANCH   1  16
ATOM     16  C   UNL     1       4.879   5.273  18.694  0.00  0.00    +0.000 C 
BRANCH  16  17
ATOM     17  C   UNL     1       3.778   6.314  18.685  0.00  0.00    +0.000 A 
ATOM     18  C   UNL     1       2.860   6.473  19.735  0.00  0.00    +0.000 A 
ATOM     19  C   UNL     1       1.970   7.547  19.744  0.00  0.00    +0.000 A 
ATOM     20  C   UNL     1       1.945   8.437  18.674  0.00  0.00    +0.000 A 
ATOM     21 BR   UNL     1       0.782   9.926  18.719  0.00  0.00    +0.000 Br
ATOM     22  C   UNL     1       2.784   8.247  17.580  0.00  0.00    +0.000 A 
ATOM     23  C   UNL     1       3.696   7.191  17.587  0.00  0.00    +0.000 A 
ENDBRANCH  16  17
ENDBRANCH   1  16
TORSDOF 5
ENDMDL
MODEL 2
REMARK VINA RESULT:      -7.5      2.032      4.439
REMARK  Name = 
REMARK  5 active torsions:
REMARK  status: ('A' for Active; 'I' for Inactive)
REMARK    1  A    between atoms: C_2  and  C_4
REMARK    2  A    between atoms: C_4  and  N_5
REMARK    3  A    between atoms: N_5  and  C_6
REMARK    4  A    between atoms: C_6  and  C_7
REMARK    5  A    between atoms: C_14  and  C_16
REMARK                            x       y       z     vdW  Elec       q    Type
REMARK                         _______ _______ _______ _____ _____    ______ ____
ROOT
ATOM      1  N   UNL     1       3.086   4.746  18.470  0.00  0.00    +0.000 N 
ATOM      2  C   UNL     1       4.208   4.712  17.623  0.00  0.00    +0.000 C 
ATOM      3  O   UNL     1       4.214   4.006  16.609  0.00  0.00    +0.000 OA
ENDROOT
BRANCH   2   4
ATOM      4  C   UNL     1       5.485   5.416  17.982  0.00  0.00    +0.000 A 
ATOM      5  C   UNL     1       5.850   6.536  17.238  0.00  0.00    +0.000 A 
ATOM      6  C   UNL     1       7.080   7.134  17.497  0.00  0.00    +0.000 A 
ATOM      7  C   UNL     1       7.896   6.602  18.488  0.00  0.00    +0.000 A 
ATOM      8  C   UNL     1       7.437   5.504  19.199  0.00  0.00    +0.000 A 
ATOM      9  N   UNL     1       6.244   4.909  18.985  0.00  0.00    +0.000 NA
ENDBRANCH   2   4
BRANCH   1  10
ATOM     10  C   UNL     1       1.840   4.144  17.964  0.00  0.00    +0.000 C 
BRANCH  10  12
ATOM     11  N   UNL     1       2.496   1.759  18.148  0.00  0.00    +0.000 N 
ATOM     12  C   UNL     1       1.534   2.696  18.395  0.00  0.00    +0.000 C 
ATOM     13  O   UNL     1       0.437   2.352  18.822  0.00  0.00    +0.000 OA
ATOM     14  H   UNL     1       2.196   0.797  18.243  0.00  0.00    +0.000 HD
ATOM     15  H   UNL     1       3.151   1.960  17.394  0.00  0.00    +0.000 HD
ENDBRANCH  10  12
ENDBRANCH   1  10
BRANCH   1  16
ATOM     16  C   UNL     1       2.967   5.595  19.664  0.00  0.00    +0.000 C 
BRANCH  16  17
ATOM     17  C   UNL     1       2.289   6.937  19.481  0.00  0.00    +0.000 A 
ATOM     18  C   UNL     1       1.598   7.596  20.509  0.00  0.00    +0.000 A 
ATOM     19  C   UNL     1       1.129   8.898  20.329  0.00  0.00    +0.000 A 
ATOM     20  C   UNL     1       1.291   9.531  19.099  0.00  0.00    +0.000 A 
ATOM     21 BR   UNL     1       0.712  11.316  18.878  0.00  0.00    +0.000 Br
ATOM     22  C   UNL     1       1.893   8.862  18.037  0.00  0.00    +0.000 A 
ATOM     23  C   UNL     1       2.390   7.572  18.229  0.00  0.00    +0.000 A 
ENDBRANCH  16  17
ENDBRANCH   1  16
TORSDOF 5
ENDMDL
MODEL 3
REMARK VINA RESULT:      -7.5      2.875      5.597
REMARK  Name = 
REMARK  5 active torsions:
REMARK  status: ('A' for Active; 'I' for Inactive)
REMARK    1  A    between atoms: C_2  and  C_4
REMARK    2  A    between atoms: C_4  and  N_5
REMARK    3  A    between atoms: N_5  and  C_6
REMARK    4  A    between atoms: C_6  and  C_7
REMARK    5  A    between atoms: C_14  and  C_16
REMARK                            x       y       z     vdW  Elec       q    Type
REMARK                         _______ _______ _______ _____ _____    ______ ____
ROOT
ATOM      1  N   UNL     1       6.325   5.313  17.220  0.00  0.00    +0.000 N 
ATOM      2  C   UNL     1       7.236   4.656  16.373  0.00  0.00    +0.000 C 
ATOM      3  O   UNL     1       8.304   4.217  16.813  0.00  0.00    +0.000 OA
ENDROOT
BRANCH   2   4
ATOM      4  C   UNL     1       7.017   4.582  14.890  0.00  0.00    +0.000 A 
ATOM      5  C   UNL     1       6.070   3.680  14.409  0.00  0.00    +0.000 A 
ATOM      6  C   UNL     1       5.932   3.532  13.032  0.00  0.00    +0.000 A 
ATOM      7  C   UNL     1       6.735   4.287  12.186  0.00  0.00    +0.000 A 
ATOM      8  C   UNL     1       7.629   5.182  12.753  0.00  0.00    +0.000 A 
ATOM      9  N   UNL     1       7.777   5.363  14.083  0.00  0.00    +0.000 NA
ENDBRANCH   2   4
BRANCH   1  10
ATOM     10  C   UNL     1       6.556   5.210  18.671  0.00  0.00    +0.000 C 
BRANCH  10  12
ATOM     11  N   UNL     1       8.383   5.359  20.342  0.00  0.00    +0.000 N 
ATOM     12  C   UNL     1       7.807   5.912  19.235  0.00  0.00    +0.000 C 
ATOM     13  O   UNL     1       8.209   6.989  18.807  0.00  0.00    +0.000 OA
ATOM     14  H   UNL     1       9.061   5.943  20.813  0.00  0.00    +0.000 HD
ATOM     15  H   UNL     1       7.783   4.788  20.936  0.00  0.00    +0.000 HD
ENDBRANCH  10  12
ENDBRANCH   1  10
BRANCH   1  16
ATOM     16  C   UNL     1       5.011   5.818  16.798  0.00  0.00    +0.000 C 
BRANCH  16  17
ATOM     17  C   UNL     1       3.796   5.107  17.359  0.00  0.00    +0.000 A 
ATOM     18  C   UNL     1       3.437   3.798  16.999  0.00  0.00    +0.000 A 
ATOM     19  C   UNL     1       2.402   3.139  17.663  0.00  0.00    +0.000 A 
ATOM     20  C   UNL     1       1.675   3.801  18.648  0.00  0.00    +0.000 A 
ATOM     21 BR   UNL     1       0.316   2.884  19.588  0.00  0.00    +0.000 Br
ATOM     22  C   UNL     1       1.955   5.130  18.957  0.00  0.00    +0.000 A 
ATOM     23  C   UNL     1       3.011   5.777  18.315  0.00  0.00    +0.000 A 
ENDBRANCH  16  17
ENDBRANCH   1  16
TORSDOF 5
ENDMDL
MODEL 4
REMARK VINA RESULT:      -7.4      1.086      1.151
REMARK  Name = 
REMARK  5 active torsions:
REMARK  status: ('A' for Active; 'I' for Inactive)
REMARK    1  A    between atoms: C_2  and  C_4
REMARK    2  A    between atoms: C_4  and  N_5
REMARK    3  A    between atoms: N_5  and  C_6
REMARK    4  A    between atoms: C_6  and  C_7
REMARK    5  A    between atoms: C_14  and  C_16
REMARK                            x       y       z     vdW  Elec       q    Type
REMARK                         _______ _______ _______ _____ _____    ______ ____
ROOT
ATOM      1  N   UNL     1       4.152   5.161  17.528  0.00  0.00    +0.000 N 
ATOM      2  C   UNL     1       3.542   3.903  17.680  0.00  0.00    +0.000 C 
ATOM      3  O   UNL     1       3.516   3.096  16.744  0.00  0.00    +0.000 OA
ENDROOT
BRANCH   2   4
ATOM      4  C   UNL     1       2.785   3.541  18.925  0.00  0.00    +0.000 A 
ATOM      5  C   UNL     1       1.428   3.850  18.983  0.00  0.00    +0.000 A 
ATOM      6  C   UNL     1       0.742   3.610  20.170  0.00  0.00    +0.000 A 
ATOM      7  C   UNL     1       1.427   3.069  21.251  0.00  0.00    +0.000 A 
ATOM      8  C   UNL     1       2.770   2.764  21.092  0.00  0.00    +0.000 A 
ATOM      9  N   UNL     1       3.462   2.968  19.951  0.00  0.00    +0.000 NA
ENDBRANCH   2   4
BRANCH   1  10
ATOM     10  C   UNL     1       4.988   5.367  16.334  0.00  0.00    +0.000 C 
BRANCH  10  12
ATOM     11  N   UNL     1       7.015   4.226  17.196  0.00  0.00    +0.000 N 
ATOM     12  C   UNL     1       6.517   5.306  16.526  0.00  0.00    +0.000 C 
ATOM     13  O   UNL     1       7.258   6.233  16.217  0.00  0.00    +0.000 OA
ATOM     14  H   UNL     1       7.979   4.309  17.492  0.00  0.00    +0.000 HD
ATOM     15  H   UNL     1       6.381   3.749  17.836  0.00  0.00    +0.000 HD
ENDBRANCH  10  12
ENDBRANCH   1  10
BRANCH   1  16
ATOM     16  C   UNL     1       4.279   6.160  18.599  0.00  0.00    +0.000 C 
BRANCH  16  17
ATOM     17  C   UNL     1       3.135   7.141  18.756  0.00  0.00    +0.000 A 
ATOM     18  C   UNL     1       2.344   7.222  19.913  0.00  0.00    +0.000 A 
ATOM     19  C   UNL     1       1.409   8.246  20.063  0.00  0.00    +0.000 A 
ATOM     20  C   UNL     1       1.211   9.163  19.033  0.00  0.00    +0.000 A 
ATOM     21 BR   UNL     1      -0.010  10.586  19.266  0.00  0.00    +0.000 Br
ATOM     22  C   UNL     1       1.920   9.046  17.841  0.00  0.00    +0.000 A 
ATOM     23  C   UNL     1       2.878   8.041  17.705  0.00  0.00    +0.000 A 
ENDBRANCH  16  17
ENDBRANCH   1  16
TORSDOF 5
ENDMDL
MODEL 5
REMARK VINA RESULT:      -7.4      0.188      1.070
REMARK  Name = 
REMARK  5 active torsions:
REMARK  status: ('A' for Active; 'I' for Inactive)
REMARK    1  A    between atoms: C_2  and  C_4
REMARK    2  A    between atoms: C_4  and  N_5
REMARK    3  A    between atoms: N_5  and  C_6
REMARK    4  A    between atoms: C_6  and  C_7
REMARK    5  A    between atoms: C_14  and  C_16
REMARK                            x       y       z     vdW  Elec       q    Type
REMARK                         _______ _______ _______ _____ _____    ______ ____
ROOT
ATOM      1  N   UNL     1       4.706   4.115  17.771  0.00  0.00    +0.000 N 
ATOM      2  C   UNL     1       3.885   2.997  18.008  0.00  0.00    +0.000 C 
ATOM      3  O   UNL     1       3.798   2.089  17.175  0.00  0.00    +0.000 OA
ENDROOT
BRANCH   2   4
ATOM      4  C   UNL     1       2.984   2.924  19.206  0.00  0.00    +0.000 A 
ATOM      5  C   UNL     1       1.646   3.280  19.046  0.00  0.00    +0.000 A 
ATOM      6  C   UNL     1       0.828   3.311  20.172  0.00  0.00    +0.000 A 
ATOM      7  C   UNL     1       1.367   2.984  21.411  0.00  0.00    +0.000 A 
ATOM      8  C   UNL     1       2.700   2.612  21.470  0.00  0.00    +0.000 A 
ATOM      9  N   UNL     1       3.519   2.555  20.397  0.00  0.00    +0.000 NA
ENDBRANCH   2   4
BRANCH   1  10
ATOM     10  C   UNL     1       5.655   4.030  16.648  0.00  0.00    +0.000 C 
BRANCH  10  12
ATOM     11  N   UNL     1       7.161   5.905  16.040  0.00  0.00    +0.000 N 
ATOM     12  C   UNL     1       6.992   4.783  16.799  0.00  0.00    +0.000 C 
ATOM     13  O   UNL     1       7.924   4.345  17.465  0.00  0.00    +0.000 OA
ATOM     14  H   UNL     1       8.108   6.257  15.996  0.00  0.00    +0.000 HD
ATOM     15  H   UNL     1       6.612   5.968  15.184  0.00  0.00    +0.000 HD
ENDBRANCH  10  12
ENDBRANCH   1  10
BRANCH   1  16
ATOM     16  C   UNL     1       4.914   5.213  18.725  0.00  0.00    +0.000 C 
BRANCH  16  17
ATOM     17  C   UNL     1       3.958   6.385  18.635  0.00  0.00    +0.000 A 
ATOM     18  C   UNL     1       3.930   7.273  17.548  0.00  0.00    +0.000 A 
ATOM     19  C   UNL     1       2.926   8.237  17.445  0.00  0.00    +0.000 A 
ATOM     20  C   UNL     1       1.978   8.364  18.456  0.00  0.00    +0.000 A 
ATOM     21 BR   UNL     1       0.584   9.627  18.282  0.00  0.00    +0.000 Br
ATOM     22  C   UNL     1       2.041   7.554  19.587  0.00  0.00    +0.000 A 
ATOM     23  C   UNL     1       3.026   6.569  19.673  0.00  0.00    +0.000 A 
ENDBRANCH  16  17
ENDBRANCH   1  16
TORSDOF 5
ENDMDL
MODEL 6
REMARK VINA RESULT:      -7.4      1.922      4.602
REMARK  Name = 
REMARK  5 active torsions:
REMARK  status: ('A' for Active; 'I' for Inactive)
REMARK    1  A    between atoms: C_2  and  C_4
REMARK    2  A    between atoms: C_4  and  N_5
REMARK    3  A    between atoms: N_5  and  C_6
REMARK    4  A    between atoms: C_6  and  C_7
REMARK    5  A    between atoms: C_14  and  C_16
REMARK                            x       y       z     vdW  Elec       q    Type
REMARK                         _______ _______ _______ _____ _____    ______ ____
ROOT
ATOM      1  N   UNL     1       3.148   4.982  18.472  0.00  0.00    +0.000 N 
ATOM      2  C   UNL     1       4.192   4.850  17.538  0.00  0.00    +0.000 C 
ATOM      3  O   UNL     1       4.095   4.066  16.588  0.00  0.00    +0.000 OA
ENDROOT
BRANCH   2   4
ATOM      4  C   UNL     1       5.510   5.543  17.729  0.00  0.00    +0.000 A 
ATOM      5  C   UNL     1       6.435   4.969  18.599  0.00  0.00    +0.000 A 
ATOM      6  C   UNL     1       7.617   5.657  18.859  0.00  0.00    +0.000 A 
ATOM      7  C   UNL     1       7.837   6.883  18.244  0.00  0.00    +0.000 A 
ATOM      8  C   UNL     1       6.875   7.362  17.369  0.00  0.00    +0.000 A 
ATOM      9  N   UNL     1       5.725   6.715  17.081  0.00  0.00    +0.000 NA
ENDBRANCH   2   4
BRANCH   1  10
ATOM     10  C   UNL     1       1.851   4.378  18.124  0.00  0.00    +0.000 C 
BRANCH  10  12
ATOM     11  N   UNL     1       2.128   1.917  17.987  0.00  0.00    +0.000 N 
ATOM     12  C   UNL     1       1.568   2.961  18.663  0.00  0.00    +0.000 C 
ATOM     13  O   UNL     1       0.777   2.749  19.576  0.00  0.00    +0.000 OA
ATOM     14  H   UNL     1       1.764   1.003  18.225  0.00  0.00    +0.000 HD
ATOM     15  H   UNL     1       2.358   2.074  17.006  0.00  0.00    +0.000 HD
ENDBRANCH  10  12
ENDBRANCH   1  10
BRANCH   1  16
ATOM     16  C   UNL     1       3.153   5.925  19.599  0.00  0.00    +0.000 C 
BRANCH  16  17
ATOM     17  C   UNL     1       2.344   7.195  19.428  0.00  0.00    +0.000 A 
ATOM     18  C   UNL     1       1.600   7.779  20.465  0.00  0.00    +0.000 A 
ATOM     19  C   UNL     1       1.004   9.029  20.294  0.00  0.00    +0.000 A 
ATOM     20  C   UNL     1       1.093   9.680  19.066  0.00  0.00    +0.000 A 
ATOM     21 BR   UNL     1       0.340  11.400  18.859  0.00  0.00    +0.000 Br
ATOM     22  C   UNL     1       1.749   9.077  17.997  0.00  0.00    +0.000 A 
ATOM     23  C   UNL     1       2.372   7.842  18.178  0.00  0.00    +0.000 A 
ENDBRANCH  16  17
ENDBRANCH   1  16
TORSDOF 5
ENDMDL
MODEL 7
REMARK VINA RESULT:      -7.4      1.937      4.483
REMARK  Name = 
REMARK  5 active torsions:
REMARK  status: ('A' for Active; 'I' for Inactive)
REMARK    1  A    between atoms: C_2  and  C_4
REMARK    2  A    between atoms: C_4  and  N_5
REMARK    3  A    between atoms: N_5  and  C_6
REMARK    4  A    between atoms: C_6  and  C_7
REMARK    5  A    between atoms: C_14  and  C_16
REMARK                            x       y       z     vdW  Elec       q    Type
REMARK                         _______ _______ _______ _____ _____    ______ ____
ROOT
ATOM      1  N   UNL     1       3.689   4.469  18.232  0.00  0.00    +0.000 N 
ATOM      2  C   UNL     1       4.847   4.623  17.449  0.00  0.00    +0.000 C 
ATOM      3  O   UNL     1       5.002   3.967  16.413  0.00  0.00    +0.000 OA
ENDROOT
BRANCH   2   4
ATOM      4  C   UNL     1       5.994   5.479  17.903  0.00  0.00    +0.000 A 
ATOM      5  C   UNL     1       6.264   6.647  17.193  0.00  0.00    +0.000 A 
ATOM      6  C   UNL     1       7.386   7.394  17.544  0.00  0.00    +0.000 A 
ATOM      7  C   UNL     1       8.191   6.955  18.588  0.00  0.00    +0.000 A 
ATOM      8  C   UNL     1       7.828   5.798  19.258  0.00  0.00    +0.000 A 
ATOM      9  N   UNL     1       6.738   5.058  18.955  0.00  0.00    +0.000 NA
ENDBRANCH   2   4
BRANCH   1  10
ATOM     10  C   UNL     1       2.566   3.725  17.636  0.00  0.00    +0.000 C 
BRANCH  10  12
ATOM     11  N   UNL     1       1.166   1.900  18.568  0.00  0.00    +0.000 N 
ATOM     12  C   UNL     1       2.387   2.256  18.071  0.00  0.00    +0.000 C 
ATOM     13  O   UNL     1       3.318   1.458  18.099  0.00  0.00    +0.000 OA
ATOM     14  H   UNL     1       1.136   1.004  19.036  0.00  0.00    +0.000 HD
ATOM     15  H   UNL     1       0.600   2.645  18.973  0.00  0.00    +0.000 HD
ENDBRANCH  10  12
ENDBRANCH   1  10
BRANCH   1  16
ATOM     16  C   UNL     1       3.393   5.243  19.445  0.00  0.00    +0.000 C 
BRANCH  16  17
ATOM     17  C   UNL     1       2.768   6.609  19.247  0.00  0.00    +0.000 A 
ATOM     18  C   UNL     1       2.818   7.309  18.031  0.00  0.00    +0.000 A 
ATOM     19  C   UNL     1       2.093   8.488  17.860  0.00  0.00    +0.000 A 
ATOM     20  C   UNL     1       1.360   9.013  18.921  0.00  0.00    +0.000 A 
ATOM     21 BR   UNL     1       0.328  10.575  18.667  0.00  0.00    +0.000 Br
ATOM     22  C   UNL     1       1.369   8.384  20.163  0.00  0.00    +0.000 A 
ATOM     23  C   UNL     1       2.069   7.187  20.323  0.00  0.00    +0.000 A 
ENDBRANCH  16  17
ENDBRANCH   1  16
TORSDOF 5
ENDMDL
MODEL 8
REMARK VINA RESULT:      -7.3      1.473      2.004
REMARK  Name = 
REMARK  5 active torsions:
REMARK  status: ('A' for Active; 'I' for Inactive)
REMARK    1  A    between atoms: C_2  and  C_4
REMARK    2  A    between atoms: C_4  and  N_5
REMARK    3  A    between atoms: N_5  and  C_6
REMARK    4  A    between atoms: C_6  and  C_7
REMARK    5  A    between atoms: C_14  and  C_16
REMARK                            x       y       z     vdW  Elec       q    Type
REMARK                         _______ _______ _______ _____ _____    ______ ____
ROOT
ATOM      1  N   UNL     1       4.763   5.319  18.150  0.00  0.00    +0.000 N 
ATOM      2  C   UNL     1       4.664   4.248  19.057  0.00  0.00    +0.000 C 
ATOM      3  O   UNL     1       5.669   3.807  19.625  0.00  0.00    +0.000 OA
ENDROOT
BRANCH   2   4
ATOM      4  C   UNL     1       3.372   3.514  19.269  0.00  0.00    +0.000 A 
ATOM      5  C   UNL     1       2.817   2.834  18.188  0.00  0.00    +0.000 A 
ATOM      6  C   UNL     1       1.571   2.235  18.348  0.00  0.00    +0.000 A 
ATOM      7  C   UNL     1       0.926   2.331  19.575  0.00  0.00    +0.000 A 
ATOM      8  C   UNL     1       1.567   3.002  20.604  0.00  0.00    +0.000 A 
ATOM      9  N   UNL     1       2.783   3.580  20.489  0.00  0.00    +0.000 NA
ENDBRANCH   2   4
BRANCH   1  10
ATOM     10  C   UNL     1       6.034   6.062  18.118  0.00  0.00    +0.000 C 
BRANCH  10  12
ATOM     11  N   UNL     1       7.726   4.421  17.346  0.00  0.00    +0.000 N 
ATOM     12  C   UNL     1       7.091   5.603  17.095  0.00  0.00    +0.000 C 
ATOM     13  O   UNL     1       7.456   6.309  16.161  0.00  0.00    +0.000 OA
ATOM     14  H   UNL     1       8.550   4.246  16.787  0.00  0.00    +0.000 HD
ATOM     15  H   UNL     1       7.762   4.116  18.319  0.00  0.00    +0.000 HD
ENDBRANCH  10  12
ENDBRANCH   1  10
BRANCH   1  16
ATOM     16  C   UNL     1       3.619   5.945  17.472  0.00  0.00    +0.000 C 
BRANCH  16  17
ATOM     17  C   UNL     1       2.926   7.075  18.206  0.00  0.00    +0.000 A 
ATOM     18  C   UNL     1       2.629   8.311  17.610  0.00  0.00    +0.000 A 
ATOM     19  C   UNL     1       1.853   9.254  18.283  0.00  0.00    +0.000 A 
ATOM     20  C   UNL     1       1.417   8.998  19.580  0.00  0.00    +0.000 A 
ATOM     21 BR   UNL     1       0.312  10.251  20.464  0.00  0.00    +0.000 Br
ATOM     22  C   UNL     1       1.776   7.817  20.223  0.00  0.00    +0.000 A 
ATOM     23  C   UNL     1       2.526   6.861  19.538  0.00  0.00    +0.000 A 
ENDBRANCH  16  17
ENDBRANCH   1  16
TORSDOF 5
ENDMDL
MODEL 9
REMARK VINA RESULT:      -7.3      1.532      2.108
REMARK  Name = 
REMARK  5 active torsions:
REMARK  status: ('A' for Active; 'I' for Inactive)
REMARK    1  A    between atoms: C_2  and  C_4
REMARK    2  A    between atoms: C_4  and  N_5
REMARK    3  A    between atoms: N_5  and  C_6
REMARK    4  A    between atoms: C_6  and  C_7
REMARK    5  A    between atoms: C_14  and  C_16
REMARK                            x       y       z     vdW  Elec       q    Type
REMARK                         _______ _______ _______ _____ _____    ______ ____
ROOT
ATOM      1  N   UNL     1       4.729   5.292  18.167  0.00  0.00    +0.000 N 
ATOM      2  C   UNL     1       4.558   4.224  19.067  0.00  0.00    +0.000 C 
ATOM      3  O   UNL     1       5.525   3.740  19.664  0.00  0.00    +0.000 OA
ENDROOT
BRANCH   2   4
ATOM      4  C   UNL     1       3.231   3.544  19.235  0.00  0.00    +0.000 A 
ATOM      5  C   UNL     1       2.598   3.632  20.474  0.00  0.00    +0.000 A 
ATOM      6  C   UNL     1       1.418   2.922  20.669  0.00  0.00    +0.000 A 
ATOM      7  C   UNL     1       0.908   2.155  19.628  0.00  0.00    +0.000 A 
ATOM      8  C   UNL     1       1.588   2.151  18.421  0.00  0.00    +0.000 A 
ATOM      9  N   UNL     1       2.726   2.841  18.191  0.00  0.00    +0.000 NA
ENDBRANCH   2   4
BRANCH   1  10
ATOM     10  C   UNL     1       6.030   5.982  18.178  0.00  0.00    +0.000 C 
BRANCH  10  12
ATOM     11  N   UNL     1       7.834   4.362  17.654  0.00  0.00    +0.000 N 
ATOM     12  C   UNL     1       7.119   5.444  17.229  0.00  0.00    +0.000 C 
ATOM     13  O   UNL     1       7.436   6.021  16.193  0.00  0.00    +0.000 OA
ATOM     14  H   UNL     1       8.670   4.160  17.121  0.00  0.00    +0.000 HD
ATOM     15  H   UNL     1       7.889   4.214  18.662  0.00  0.00    +0.000 HD
ENDBRANCH  10  12
ENDBRANCH   1  10
BRANCH   1  16
ATOM     16  C   UNL     1       3.634   5.966  17.455  0.00  0.00    +0.000 C 
BRANCH  16  17
ATOM     17  C   UNL     1       2.937   7.094  18.188  0.00  0.00    +0.000 A 
ATOM     18  C   UNL     1       2.634   8.328  17.591  0.00  0.00    +0.000 A 
ATOM     19  C   UNL     1       1.854   9.269  18.264  0.00  0.00    +0.000 A 
ATOM     20  C   UNL     1       1.422   9.013  19.562  0.00  0.00    +0.000 A 
ATOM     21 BR   UNL     1       0.312  10.262  20.446  0.00  0.00    +0.000 Br
ATOM     22  C   UNL     1       1.788   7.834  20.207  0.00  0.00    +0.000 A 
ATOM     23  C   UNL     1       2.541   6.880  19.521  0.00  0.00    +0.000 A 
ENDBRANCH  16  17
ENDBRANCH   1  16
TORSDOF 5
ENDMDL
