MODEL 1
REMARK VINA RESULT:      -8.6      0.000      0.000
REMARK  Name = 
REMARK  4 active torsions:
REMARK  status: ('A' for Active; 'I' for Inactive)
REMARK    1  A    between atoms: C_1  and  C_2
REMARK    2  A    between atoms: C_4  and  C_5
REMARK    3  A    between atoms: N_11  and  S_12
REMARK    4  A    between atoms: S_12  and  C_15
REMARK                            x       y       z     vdW  Elec       q    Type
REMARK                         _______ _______ _______ _____ _____    ______ ____
ROOT
ATOM      1  C   UNL     1       3.608   3.669  18.350  0.00  0.00    +0.000 C 
ATOM      2  C   UNL     1       2.888   2.461  17.688  0.00  0.00    +0.000 C 
ATOM      3  C   UNL     1       1.870   1.708  18.530  0.00  0.00    +0.000 C 
ATOM      4  C   UNL     1       0.708   2.571  18.980  0.00  0.00    +0.000 C 
ATOM      5  C   UNL     1       1.169   3.597  19.995  0.00  0.00    +0.000 C 
ATOM      6  C   UNL     1       1.656   4.918  19.420  0.00  0.00    +0.000 C 
ATOM      7  N   UNL     1       2.708   4.914  18.339  0.00  0.00    +0.000 NA
ENDROOT
BRANCH   1  11
ATOM      8  C   UNL     1       7.082   4.756  14.787  0.00  0.00    +0.000 C 
ATOM      9  C   UNL     1       6.327   4.315  15.970  0.00  0.00    +0.000 A 
ATOM     10  C   UNL     1       5.033   3.903  16.157  0.00  0.00    +0.000 A 
ATOM     11  C   UNL     1       4.884   3.873  17.565  0.00  0.00    +0.000 A 
ATOM     12  N   UNL     1       6.057   4.074  18.183  0.00  0.00    +0.000 NA
ATOM     13  O   UNL     1       6.958   4.379  17.172  0.00  0.00    +0.000 OA
ENDBRANCH   1  11
BRANCH   7  14
ATOM     14  S   UNL     1       3.613   6.444  18.373  0.00  0.00    +0.000 S 
ATOM     15  O   UNL     1       4.558   6.330  19.470  0.00  0.00    +0.000 OA
ATOM     16  O   UNL     1       4.016   6.830  17.047  0.00  0.00    +0.000 OA
BRANCH  14  17
ATOM     17  C   UNL     1       2.415   7.673  18.858  0.00  0.00    +0.000 A 
ATOM     18  C   UNL     1       1.847   8.508  17.885  0.00  0.00    +0.000 A 
ATOM     19  C   UNL     1       0.948   9.505  18.269  0.00  0.00    +0.000 A 
ATOM     20  C   UNL     1       0.587   9.630  19.610  0.00  0.00    +0.000 A 
ATOM     21  C   UNL     1       1.113   8.749  20.564  0.00  0.00    +0.000 A 
ATOM     22  C   UNL     1       2.051   7.787  20.202  0.00  0.00    +0.000 A 
ATOM     23  O   UNL     1       0.771   8.792  21.894  0.00  0.00    +0.000 OA
ATOM     24  C   UNL     1      -0.418   9.564  22.092  0.00  0.00    +0.000 C 
ATOM     25  C   UNL     1      -0.318  10.879  21.338  0.00  0.00    +0.000 C 
ATOM     26  O   UNL     1      -0.279  10.647  19.925  0.00  0.00    +0.000 OA
ENDBRANCH  14  17
ENDBRANCH   7  14
TORSDOF 3
ENDMDL
MODEL 2
REMARK VINA RESULT:      -8.1      0.769      1.542
REMARK  Name = 
REMARK  4 active torsions:
REMARK  status: ('A' for Active; 'I' for Inactive)
REMARK    1  A    between atoms: C_1  and  C_2
REMARK    2  A    between atoms: C_4  and  C_5
REMARK    3  A    between atoms: N_11  and  S_12
REMARK    4  A    between atoms: S_12  and  C_15
REMARK                            x       y       z     vdW  Elec       q    Type
REMARK                         _______ _______ _______ _____ _____    ______ ____
ROOT
ATOM      1  C   UNL     1       3.499   3.617  18.453  0.00  0.00    +0.000 C 
ATOM      2  C   UNL     1       2.772   2.440  17.746  0.00  0.00    +0.000 C 
ATOM      3  C   UNL     1       1.747   1.663  18.558  0.00  0.00    +0.000 C 
ATOM      4  C   UNL     1       0.590   2.517  19.037  0.00  0.00    +0.000 C 
ATOM      5  C   UNL     1       1.055   3.502  20.090  0.00  0.00    +0.000 C 
ATOM      6  C   UNL     1       1.553   4.840  19.564  0.00  0.00    +0.000 C 
ATOM      7  N   UNL     1       2.608   4.868  18.486  0.00  0.00    +0.000 NA
ENDROOT
BRANCH   1  11
ATOM      8  C   UNL     1       6.988   4.811  14.940  0.00  0.00    +0.000 C 
ATOM      9  C   UNL     1       6.227   4.331  16.104  0.00  0.00    +0.000 A 
ATOM     10  C   UNL     1       4.931   3.922  16.273  0.00  0.00    +0.000 A 
ATOM     11  C   UNL     1       4.778   3.842  17.679  0.00  0.00    +0.000 A 
ATOM     12  N   UNL     1       5.951   4.011  18.306  0.00  0.00    +0.000 NA
ATOM     13  O   UNL     1       6.856   4.347  17.309  0.00  0.00    +0.000 OA
ENDBRANCH   1  11
BRANCH   7  14
ATOM     14  S   UNL     1       3.522   6.389  18.578  0.00  0.00    +0.000 S 
ATOM     15  O   UNL     1       4.541   6.188  19.594  0.00  0.00    +0.000 OA
ATOM     16  O   UNL     1       3.835   6.880  17.262  0.00  0.00    +0.000 OA
BRANCH  14  17
ATOM     17  C   UNL     1       2.369   7.577  19.241  0.00  0.00    +0.000 A 
ATOM     18  C   UNL     1       1.964   7.477  20.579  0.00  0.00    +0.000 A 
ATOM     19  C   UNL     1       1.022   8.374  21.086  0.00  0.00    +0.000 A 
ATOM     20  C   UNL     1       0.528   9.392  20.270  0.00  0.00    +0.000 A 
ATOM     21  C   UNL     1       0.988   9.520  18.953  0.00  0.00    +0.000 A 
ATOM     22  C   UNL     1       1.885   8.599  18.420  0.00  0.00    +0.000 A 
ATOM     23  O   UNL     1       0.572  10.521  18.108  0.00  0.00    +0.000 OA
ATOM     24  C   UNL     1      -0.061  11.577  18.838  0.00  0.00    +0.000 C 
ATOM     25  C   UNL     1      -1.073  11.002  19.814  0.00  0.00    +0.000 C 
ATOM     26  O   UNL     1      -0.414  10.223  20.820  0.00  0.00    +0.000 OA
ENDBRANCH  14  17
ENDBRANCH   7  14
TORSDOF 3
ENDMDL
MODEL 3
REMARK VINA RESULT:      -7.2      3.728      8.606
REMARK  Name = 
REMARK  4 active torsions:
REMARK  status: ('A' for Active; 'I' for Inactive)
REMARK    1  A    between atoms: C_1  and  C_2
REMARK    2  A    between atoms: C_4  and  C_5
REMARK    3  A    between atoms: N_11  and  S_12
REMARK    4  A    between atoms: S_12  and  C_15
REMARK                            x       y       z     vdW  Elec       q    Type
REMARK                         _______ _______ _______ _____ _____    ______ ____
ROOT
ATOM      1  C   UNL     1      -1.939  12.120  18.976  0.00  0.00    +0.000 C 
ATOM      2  C   UNL     1      -3.470  11.861  19.038  0.00  0.00    +0.000 C 
ATOM      3  C   UNL     1      -4.154  11.408  17.758  0.00  0.00    +0.000 C 
ATOM      4  C   UNL     1      -3.623  10.090  17.229  0.00  0.00    +0.000 C 
ATOM      5  C   UNL     1      -2.207  10.253  16.717  0.00  0.00    +0.000 C 
ATOM      6  C   UNL     1      -1.108  10.043  17.746  0.00  0.00    +0.000 C 
ATOM      7  N   UNL     1      -1.158  10.799  19.051  0.00  0.00    +0.000 NA
ENDROOT
BRANCH   1  11
ATOM      8  C   UNL     1      -1.141  14.159  23.574  0.00  0.00    +0.000 C 
ATOM      9  C   UNL     1      -1.345  13.871  22.147  0.00  0.00    +0.000 A 
ATOM     10  C   UNL     1      -2.062  12.916  21.475  0.00  0.00    +0.000 A 
ATOM     11  C   UNL     1      -1.626  13.040  20.133  0.00  0.00    +0.000 A 
ATOM     12  N   UNL     1      -0.840  14.115  19.975  0.00  0.00    +0.000 NA
ATOM     13  O   UNL     1      -0.644  14.620  21.254  0.00  0.00    +0.000 OA
ENDBRANCH   1  11
BRANCH   7  14
ATOM     14  S   UNL     1       0.484  10.981  19.706  0.00  0.00    +0.000 S 
ATOM     15  O   UNL     1       1.100  12.064  18.959  0.00  0.00    +0.000 OA
ATOM     16  O   UNL     1       0.469  10.951  21.144  0.00  0.00    +0.000 OA
BRANCH  14  17
ATOM     17  C   UNL     1       1.334   9.486  19.232  0.00  0.00    +0.000 A 
ATOM     18  C   UNL     1       2.041   9.446  18.021  0.00  0.00    +0.000 A 
ATOM     19  C   UNL     1       2.663   8.262  17.623  0.00  0.00    +0.000 A 
ATOM     20  C   UNL     1       2.617   7.144  18.455  0.00  0.00    +0.000 A 
ATOM     21  C   UNL     1       1.962   7.215  19.691  0.00  0.00    +0.000 A 
ATOM     22  C   UNL     1       1.291   8.373  20.074  0.00  0.00    +0.000 A 
ATOM     23  O   UNL     1       1.911   6.164  20.575  0.00  0.00    +0.000 OA
ATOM     24  C   UNL     1       2.891   5.173  20.248  0.00  0.00    +0.000 C 
ATOM     25  C   UNL     1       2.840   4.859  18.763  0.00  0.00    +0.000 C 
ATOM     26  O   UNL     1       3.226   6.004  17.993  0.00  0.00    +0.000 OA
ENDBRANCH  14  17
ENDBRANCH   7  14
TORSDOF 3
ENDMDL
MODEL 4
REMARK VINA RESULT:      -7.1      1.017      1.037
REMARK  Name = 
REMARK  4 active torsions:
REMARK  status: ('A' for Active; 'I' for Inactive)
REMARK    1  A    between atoms: C_1  and  C_2
REMARK    2  A    between atoms: C_4  and  C_5
REMARK    3  A    between atoms: N_11  and  S_12
REMARK    4  A    between atoms: S_12  and  C_15
REMARK                            x       y       z     vdW  Elec       q    Type
REMARK                         _______ _______ _______ _____ _____    ______ ____
ROOT
ATOM      1  C   UNL     1       3.151   3.885  18.379  0.00  0.00    +0.000 C 
ATOM      2  C   UNL     1       2.279   2.746  17.782  0.00  0.00    +0.000 C 
ATOM      3  C   UNL     1       1.465   1.907  18.756  0.00  0.00    +0.000 C 
ATOM      4  C   UNL     1       0.451   2.715  19.541  0.00  0.00    +0.000 C 
ATOM      5  C   UNL     1       1.147   3.637  20.520  0.00  0.00    +0.000 C 
ATOM      6  C   UNL     1       1.515   5.011  19.982  0.00  0.00    +0.000 C 
ATOM      7  N   UNL     1       2.294   5.120  18.695  0.00  0.00    +0.000 NA
ENDROOT
BRANCH   1  11
ATOM      8  C   UNL     1       7.541   4.498  15.870  0.00  0.00    +0.000 C 
ATOM      9  C   UNL     1       6.147   4.464  16.339  0.00  0.00    +0.000 A 
ATOM     10  C   UNL     1       5.576   4.505  17.584  0.00  0.00    +0.000 A 
ATOM     11  C   UNL     1       4.219   4.174  17.348  0.00  0.00    +0.000 A 
ATOM     12  N   UNL     1       3.953   4.119  16.035  0.00  0.00    +0.000 NA
ATOM     13  O   UNL     1       5.179   4.276  15.404  0.00  0.00    +0.000 OA
ENDBRANCH   1  11
BRANCH   7  14
ATOM     14  S   UNL     1       3.209   6.644  18.672  0.00  0.00    +0.000 S 
ATOM     15  O   UNL     1       4.250   6.505  19.675  0.00  0.00    +0.000 OA
ATOM     16  O   UNL     1       3.492   7.052  17.322  0.00  0.00    +0.000 OA
BRANCH  14  17
ATOM     17  C   UNL     1       2.070   7.871  19.286  0.00  0.00    +0.000 A 
ATOM     18  C   UNL     1       1.458   8.759  18.389  0.00  0.00    +0.000 A 
ATOM     19  C   UNL     1       0.606   9.753  18.873  0.00  0.00    +0.000 A 
ATOM     20  C   UNL     1       0.334   9.825  20.239  0.00  0.00    +0.000 A 
ATOM     21  C   UNL     1       0.901   8.894  21.118  0.00  0.00    +0.000 A 
ATOM     22  C   UNL     1       1.794   7.932  20.654  0.00  0.00    +0.000 A 
ATOM     23  O   UNL     1       0.645   8.883  22.467  0.00  0.00    +0.000 OA
ATOM     24  C   UNL     1      -0.513   9.666  22.774  0.00  0.00    +0.000 C 
ATOM     25  C   UNL     1      -0.435  11.011  22.074  0.00  0.00    +0.000 C 
ATOM     26  O   UNL     1      -0.489  10.841  20.652  0.00  0.00    +0.000 OA
ENDBRANCH  14  17
ENDBRANCH   7  14
TORSDOF 3
ENDMDL
MODEL 5
REMARK VINA RESULT:      -7.1      3.779      8.474
REMARK  Name = 
REMARK  4 active torsions:
REMARK  status: ('A' for Active; 'I' for Inactive)
REMARK    1  A    between atoms: C_1  and  C_2
REMARK    2  A    between atoms: C_4  and  C_5
REMARK    3  A    between atoms: N_11  and  S_12
REMARK    4  A    between atoms: S_12  and  C_15
REMARK                            x       y       z     vdW  Elec       q    Type
REMARK                         _______ _______ _______ _____ _____    ______ ____
ROOT
ATOM      1  C   UNL     1      -1.605  12.133  18.833  0.00  0.00    +0.000 C 
ATOM      2  C   UNL     1      -3.135  11.970  19.055  0.00  0.00    +0.000 C 
ATOM      3  C   UNL     1      -3.955  11.427  17.896  0.00  0.00    +0.000 C 
ATOM      4  C   UNL     1      -3.539  10.033  17.468  0.00  0.00    +0.000 C 
ATOM      5  C   UNL     1      -2.170  10.061  16.820  0.00  0.00    +0.000 C 
ATOM      6  C   UNL     1      -0.991   9.896  17.767  0.00  0.00    +0.000 C 
ATOM      7  N   UNL     1      -0.885  10.785  18.982  0.00  0.00    +0.000 NA
ENDROOT
BRANCH   1  11
ATOM      8  C   UNL     1       0.012  16.327  21.228  0.00  0.00    +0.000 C 
ATOM      9  C   UNL     1      -0.399  14.976  20.816  0.00  0.00    +0.000 A 
ATOM     10  C   UNL     1      -0.362  14.308  19.621  0.00  0.00    +0.000 A 
ATOM     11  C   UNL     1      -1.143  13.149  19.852  0.00  0.00    +0.000 A 
ATOM     12  N   UNL     1      -1.472  13.035  21.147  0.00  0.00    +0.000 NA
ATOM     13  O   UNL     1      -1.023  14.204  21.745  0.00  0.00    +0.000 OA
ENDBRANCH   1  11
BRANCH   7  14
ATOM     14  S   UNL     1       0.818  10.939  19.468  0.00  0.00    +0.000 S 
ATOM     15  O   UNL     1       1.421  11.876  18.536  0.00  0.00    +0.000 OA
ATOM     16  O   UNL     1       0.932  11.092  20.894  0.00  0.00    +0.000 OA
BRANCH  14  17
ATOM     17  C   UNL     1       1.538   9.344  19.126  0.00  0.00    +0.000 A 
ATOM     18  C   UNL     1       2.260   9.150  17.940  0.00  0.00    +0.000 A 
ATOM     19  C   UNL     1       2.781   7.889  17.645  0.00  0.00    +0.000 A 
ATOM     20  C   UNL     1       2.619   6.845  18.555  0.00  0.00    +0.000 A 
ATOM     21  C   UNL     1       1.950   7.066  19.766  0.00  0.00    +0.000 A 
ATOM     22  C   UNL     1       1.379   8.305  20.046  0.00  0.00    +0.000 A 
ATOM     23  O   UNL     1       1.788   6.094  20.723  0.00  0.00    +0.000 OA
ATOM     24  C   UNL     1       2.681   4.998  20.494  0.00  0.00    +0.000 C 
ATOM     25  C   UNL     1       2.629   4.579  19.035  0.00  0.00    +0.000 C 
ATOM     26  O   UNL     1       3.130   5.625  18.193  0.00  0.00    +0.000 OA
ENDBRANCH  14  17
ENDBRANCH   7  14
TORSDOF 3
ENDMDL
MODEL 6
REMARK VINA RESULT:      -7.0      6.271      8.629
REMARK  Name = 
REMARK  4 active torsions:
REMARK  status: ('A' for Active; 'I' for Inactive)
REMARK    1  A    between atoms: C_1  and  C_2
REMARK    2  A    between atoms: C_4  and  C_5
REMARK    3  A    between atoms: N_11  and  S_12
REMARK    4  A    between atoms: S_12  and  C_15
REMARK                            x       y       z     vdW  Elec       q    Type
REMARK                         _______ _______ _______ _____ _____    ______ ____
ROOT
ATOM      1  C   UNL     1       0.841  11.242  20.993  0.00  0.00    +0.000 C 
ATOM      2  C   UNL     1       0.893   9.878  20.250  0.00  0.00    +0.000 C 
ATOM      3  C   UNL     1       0.956   8.621  21.102  0.00  0.00    +0.000 C 
ATOM      4  C   UNL     1      -0.246   8.450  22.009  0.00  0.00    +0.000 C 
ATOM      5  C   UNL     1      -0.241   9.498  23.103  0.00  0.00    +0.000 C 
ATOM      6  C   UNL     1      -0.944  10.804  22.764  0.00  0.00    +0.000 C 
ATOM      7  N   UNL     1      -0.581  11.536  21.496  0.00  0.00    +0.000 NA
ENDROOT
BRANCH   1  11
ATOM      8  C   UNL     1       3.515  14.732  18.423  0.00  0.00    +0.000 C 
ATOM      9  C   UNL     1       2.508  13.809  18.968  0.00  0.00    +0.000 A 
ATOM     10  C   UNL     1       2.289  13.290  20.216  0.00  0.00    +0.000 A 
ATOM     11  C   UNL     1       1.325  12.275  20.001  0.00  0.00    +0.000 A 
ATOM     12  N   UNL     1       0.860  12.305  18.744  0.00  0.00    +0.000 NA
ATOM     13  O   UNL     1       1.630  13.256  18.089  0.00  0.00    +0.000 OA
ENDBRANCH   1  11
BRANCH   7  14
ATOM     14  S   UNL     1      -0.924  13.270  21.682  0.00  0.00    +0.000 S 
ATOM     15  O   UNL     1      -0.001  13.758  22.692  0.00  0.00    +0.000 OA
ATOM     16  O   UNL     1      -1.066  13.905  20.400  0.00  0.00    +0.000 OA
BRANCH  14  17
ATOM     17  C   UNL     1      -2.553  13.339  22.405  0.00  0.00    +0.000 A 
ATOM     18  C   UNL     1      -2.743  14.007  23.623  0.00  0.00    +0.000 A 
ATOM     19  C   UNL     1      -4.007  14.018  24.216  0.00  0.00    +0.000 A 
ATOM     20  C   UNL     1      -5.079  13.406  23.568  0.00  0.00    +0.000 A 
ATOM     21  C   UNL     1      -4.891  12.795  22.321  0.00  0.00    +0.000 A 
ATOM     22  C   UNL     1      -3.625  12.731  21.746  0.00  0.00    +0.000 A 
ATOM     23  O   UNL     1      -5.910  12.208  21.611  0.00  0.00    +0.000 OA
ATOM     24  C   UNL     1      -7.186  12.621  22.112  0.00  0.00    +0.000 C 
ATOM     25  C   UNL     1      -7.214  12.507  23.626  0.00  0.00    +0.000 C 
ATOM     26  O   UNL     1      -6.288  13.428  24.216  0.00  0.00    +0.000 OA
ENDBRANCH  14  17
ENDBRANCH   7  14
TORSDOF 3
ENDMDL
MODEL 7
REMARK VINA RESULT:      -7.0      3.723      8.709
REMARK  Name = 
REMARK  4 active torsions:
REMARK  status: ('A' for Active; 'I' for Inactive)
REMARK    1  A    between atoms: C_1  and  C_2
REMARK    2  A    between atoms: C_4  and  C_5
REMARK    3  A    between atoms: N_11  and  S_12
REMARK    4  A    between atoms: S_12  and  C_15
REMARK                            x       y       z     vdW  Elec       q    Type
REMARK                         _______ _______ _______ _____ _____    ______ ____
ROOT
ATOM      1  C   UNL     1      -1.887  12.105  18.941  0.00  0.00    +0.000 C 
ATOM      2  C   UNL     1      -3.424  11.880  18.986  0.00  0.00    +0.000 C 
ATOM      3  C   UNL     1      -4.092  11.363  17.722  0.00  0.00    +0.000 C 
ATOM      4  C   UNL     1      -3.578  10.006  17.284  0.00  0.00    +0.000 C 
ATOM      5  C   UNL     1      -2.149  10.111  16.793  0.00  0.00    +0.000 C 
ATOM      6  C   UNL     1      -1.074   9.943  17.856  0.00  0.00    +0.000 C 
ATOM      7  N   UNL     1      -1.135  10.777  19.111  0.00  0.00    +0.000 NA
ENDROOT
BRANCH   1  11
ATOM      8  C   UNL     1      -1.161  14.410  23.424  0.00  0.00    +0.000 C 
ATOM      9  C   UNL     1      -1.331  14.038  22.012  0.00  0.00    +0.000 A 
ATOM     10  C   UNL     1      -2.059  13.064  21.379  0.00  0.00    +0.000 A 
ATOM     11  C   UNL     1      -1.578  13.088  20.047  0.00  0.00    +0.000 A 
ATOM     12  N   UNL     1      -0.752  14.125  19.847  0.00  0.00    +0.000 NA
ATOM     13  O   UNL     1      -0.578  14.704  21.097  0.00  0.00    +0.000 OA
ENDBRANCH   1  11
BRANCH   7  14
ATOM     14  S   UNL     1       0.497  10.967  19.789  0.00  0.00    +0.000 S 
ATOM     15  O   UNL     1       1.255  11.725  18.809  0.00  0.00    +0.000 OA
ATOM     16  O   UNL     1       0.437  11.345  21.175  0.00  0.00    +0.000 OA
BRANCH  14  17
ATOM     17  C   UNL     1       1.183   9.320  19.799  0.00  0.00    +0.000 A 
ATOM     18  C   UNL     1       0.905   8.461  20.872  0.00  0.00    +0.000 A 
ATOM     19  C   UNL     1       1.483   7.190  20.908  0.00  0.00    +0.000 A 
ATOM     20  C   UNL     1       2.291   6.769  19.853  0.00  0.00    +0.000 A 
ATOM     21  C   UNL     1       2.510   7.612  18.756  0.00  0.00    +0.000 A 
ATOM     22  C   UNL     1       1.985   8.901  18.735  0.00  0.00    +0.000 A 
ATOM     23  O   UNL     1       3.263   7.247  17.667  0.00  0.00    +0.000 OA
ATOM     24  C   UNL     1       3.461   5.829  17.634  0.00  0.00    +0.000 C 
ATOM     25  C   UNL     1       3.896   5.332  19.002  0.00  0.00    +0.000 C 
ATOM     26  O   UNL     1       2.849   5.521  19.962  0.00  0.00    +0.000 OA
ENDBRANCH  14  17
ENDBRANCH   7  14
TORSDOF 3
ENDMDL
MODEL 8
REMARK VINA RESULT:      -6.9      3.798      8.641
REMARK  Name = 
REMARK  4 active torsions:
REMARK  status: ('A' for Active; 'I' for Inactive)
REMARK    1  A    between atoms: C_1  and  C_2
REMARK    2  A    between atoms: C_4  and  C_5
REMARK    3  A    between atoms: N_11  and  S_12
REMARK    4  A    between atoms: S_12  and  C_15
REMARK                            x       y       z     vdW  Elec       q    Type
REMARK                         _______ _______ _______ _____ _____    ______ ____
ROOT
ATOM      1  C   UNL     1      -1.645  12.170  18.890  0.00  0.00    +0.000 C 
ATOM      2  C   UNL     1      -3.183  12.052  19.075  0.00  0.00    +0.000 C 
ATOM      3  C   UNL     1      -3.985  11.483  17.915  0.00  0.00    +0.000 C 
ATOM      4  C   UNL     1      -3.593  10.064  17.555  0.00  0.00    +0.000 C 
ATOM      5  C   UNL     1      -2.206  10.033  16.945  0.00  0.00    +0.000 C 
ATOM      6  C   UNL     1      -1.058   9.878  17.931  0.00  0.00    +0.000 C 
ATOM      7  N   UNL     1      -0.963  10.812  19.112  0.00  0.00    +0.000 NA
ENDROOT
BRANCH   1  11
ATOM      8  C   UNL     1       0.017  16.414  21.162  0.00  0.00    +0.000 C 
ATOM      9  C   UNL     1      -0.418  15.059  20.793  0.00  0.00    +0.000 A 
ATOM     10  C   UNL     1      -0.365  14.340  19.628  0.00  0.00    +0.000 A 
ATOM     11  C   UNL     1      -1.185  13.214  19.881  0.00  0.00    +0.000 A 
ATOM     12  N   UNL     1      -1.557  13.163  21.168  0.00  0.00    +0.000 NA
ATOM     13  O   UNL     1      -1.093  14.344  21.733  0.00  0.00    +0.000 OA
ENDBRANCH   1  11
BRANCH   7  14
ATOM     14  S   UNL     1       0.729  10.944  19.640  0.00  0.00    +0.000 S 
ATOM     15  O   UNL     1       1.444  11.585  18.549  0.00  0.00    +0.000 OA
ATOM     16  O   UNL     1       0.808  11.420  20.995  0.00  0.00    +0.000 OA
BRANCH  14  17
ATOM     17  C   UNL     1       1.318   9.263  19.716  0.00  0.00    +0.000 A 
ATOM     18  C   UNL     1       1.012   8.471  20.832  0.00  0.00    +0.000 A 
ATOM     19  C   UNL     1       1.515   7.172  20.918  0.00  0.00    +0.000 A 
ATOM     20  C   UNL     1       2.278   6.656  19.871  0.00  0.00    +0.000 A 
ATOM     21  C   UNL     1       2.525   7.434  18.733  0.00  0.00    +0.000 A 
ATOM     22  C   UNL     1       2.075   8.749  18.660  0.00  0.00    +0.000 A 
ATOM     23  O   UNL     1       3.236   6.976  17.651  0.00  0.00    +0.000 OA
ATOM     24  C   UNL     1       3.351   5.549  17.681  0.00  0.00    +0.000 C 
ATOM     25  C   UNL     1       3.781   5.090  19.064  0.00  0.00    +0.000 C 
ATOM     26  O   UNL     1       2.765   5.384  20.030  0.00  0.00    +0.000 OA
ENDBRANCH  14  17
ENDBRANCH   7  14
TORSDOF 3
ENDMDL
MODEL 9
REMARK VINA RESULT:      -6.7      3.918      8.974
REMARK  Name = 
REMARK  4 active torsions:
REMARK  status: ('A' for Active; 'I' for Inactive)
REMARK    1  A    between atoms: C_1  and  C_2
REMARK    2  A    between atoms: C_4  and  C_5
REMARK    3  A    between atoms: N_11  and  S_12
REMARK    4  A    between atoms: S_12  and  C_15
REMARK                            x       y       z     vdW  Elec       q    Type
REMARK                         _______ _______ _______ _____ _____    ______ ____
ROOT
ATOM      1  C   UNL     1      -2.035  12.559  20.028  0.00  0.00    +0.000 C 
ATOM      2  C   UNL     1      -3.553  12.256  20.169  0.00  0.00    +0.000 C 
ATOM      3  C   UNL     1      -4.356  12.101  18.887  0.00  0.00    +0.000 C 
ATOM      4  C   UNL     1      -3.877  10.958  18.014  0.00  0.00    +0.000 C 
ATOM      5  C   UNL     1      -2.517  11.271  17.426  0.00  0.00    +0.000 C 
ATOM      6  C   UNL     1      -1.323  10.851  18.269  0.00  0.00    +0.000 C 
ATOM      7  N   UNL     1      -1.250  11.276  19.715  0.00  0.00    +0.000 NA
ENDROOT
BRANCH   1  11
ATOM      8  C   UNL     1      -0.567  15.753  23.713  0.00  0.00    +0.000 C 
ATOM      9  C   UNL     1      -0.933  14.606  22.868  0.00  0.00    +0.000 A 
ATOM     10  C   UNL     1      -0.865  14.376  21.519  0.00  0.00    +0.000 A 
ATOM     11  C   UNL     1      -1.614  13.187  21.336  0.00  0.00    +0.000 A 
ATOM     12  N   UNL     1      -1.953  12.641  22.513  0.00  0.00    +0.000 NA
ATOM     13  O   UNL     1      -1.545  13.555  23.475  0.00  0.00    +0.000 OA
ENDBRANCH   1  11
BRANCH   7  14
ATOM     14  S   UNL     1       0.448  11.338  20.239  0.00  0.00    +0.000 S 
ATOM     15  O   UNL     1       1.050  12.452  19.527  0.00  0.00    +0.000 OA
ATOM     16  O   UNL     1       0.550  11.192  21.666  0.00  0.00    +0.000 OA
BRANCH  14  17
ATOM     17  C   UNL     1       1.185   9.854  19.579  0.00  0.00    +0.000 A 
ATOM     18  C   UNL     1       1.746   9.871  18.295  0.00  0.00    +0.000 A 
ATOM     19  C   UNL     1       2.277   8.697  17.756  0.00  0.00    +0.000 A 
ATOM     20  C   UNL     1       2.287   7.530  18.519  0.00  0.00    +0.000 A 
ATOM     21  C   UNL     1       1.780   7.540  19.825  0.00  0.00    +0.000 A 
ATOM     22  C   UNL     1       1.199   8.690  20.352  0.00  0.00    +0.000 A 
ATOM     23  O   UNL     1       1.794   6.438  20.644  0.00  0.00    +0.000 OA
ATOM     24  C   UNL     1       2.695   5.442  20.146  0.00  0.00    +0.000 C 
ATOM     25  C   UNL     1       2.463   5.225  18.660  0.00  0.00    +0.000 C 
ATOM     26  O   UNL     1       2.798   6.406  17.921  0.00  0.00    +0.000 OA
ENDBRANCH  14  17
ENDBRANCH   7  14
TORSDOF 3
ENDMDL
