MODEL 1
REMARK VINA RESULT:      -6.5      0.000      0.000
REMARK  Name = 
REMARK  2 active torsions:
REMARK  status: ('A' for Active; 'I' for Inactive)
REMARK    1  A    between atoms: C_2  and  C_7
REMARK    2  A    between atoms: N_3  and  C_4
REMARK                            x       y       z     vdW  Elec       q    Type
REMARK                         _______ _______ _______ _____ _____    ______ ____
ROOT
ATOM      1  C   UNL     1       6.256   4.352  15.124  0.00  0.00    +0.000 A 
ATOM      2  C   UNL     1       4.900   4.394  15.472  0.00  0.00    +0.000 A 
ATOM      3  C   UNL     1       4.497   4.601  16.795  0.00  0.00    +0.000 A 
ATOM      4  C   UNL     1       5.499   4.778  17.758  0.00  0.00    +0.000 A 
ATOM      5  S   UNL     1       5.398   5.057  19.455  0.00  0.00    +0.000 S 
ATOM      6  N   UNL     1       7.055   5.130  19.649  0.00  0.00    +0.000 NA
ATOM      7  N   UNL     1       7.717   4.961  18.516  0.00  0.00    +0.000 NA
ATOM      8  C   UNL     1       6.861   4.758  17.439  0.00  0.00    +0.000 A 
ATOM      9  C   UNL     1       7.245   4.546  16.099  0.00  0.00    +0.000 A 
ENDROOT
BRANCH   1  11
ATOM     10  O   UNL     1       7.366   4.927  13.138  0.00  0.00    +0.000 OA
ATOM     11  C   UNL     1       6.601   4.145  13.693  0.00  0.00    +0.000 C 
ATOM     12  N   UNL     1       5.992   3.078  13.061  0.00  0.00    +0.000 N 
ATOM     13  H   UNL     1       5.249   2.570  13.525  0.00  0.00    +0.000 HD
BRANCH  12  14
ATOM     14  C   UNL     1       6.244   2.792  11.684  0.00  0.00    +0.000 C 
ATOM     15  C   UNL     1       7.432   1.955  11.299  0.00  0.00    +0.000 C 
ATOM     16  C   UNL     1       6.046   1.411  11.121  0.00  0.00    +0.000 C 
ENDBRANCH  12  14
ENDBRANCH   1  11
TORSDOF 2
ENDMDL
MODEL 2
REMARK VINA RESULT:      -6.2      3.846      6.383
REMARK  Name = 
REMARK  2 active torsions:
REMARK  status: ('A' for Active; 'I' for Inactive)
REMARK    1  A    between atoms: C_2  and  C_7
REMARK    2  A    between atoms: N_3  and  C_4
REMARK                            x       y       z     vdW  Elec       q    Type
REMARK                         _______ _______ _______ _____ _____    ______ ____
ROOT
ATOM      1  C   UNL     1       4.376   4.801  17.848  0.00  0.00    +0.000 A 
ATOM      2  C   UNL     1       3.904   3.852  16.934  0.00  0.00    +0.000 A 
ATOM      3  C   UNL     1       4.555   3.630  15.716  0.00  0.00    +0.000 A 
ATOM      4  C   UNL     1       5.704   4.385  15.450  0.00  0.00    +0.000 A 
ATOM      5  S   UNL     1       6.759   4.392  14.087  0.00  0.00    +0.000 S 
ATOM      6  N   UNL     1       7.755   5.568  14.732  0.00  0.00    +0.000 NA
ATOM      7  N   UNL     1       7.365   5.979  15.927  0.00  0.00    +0.000 NA
ATOM      8  C   UNL     1       6.210   5.330  16.349  0.00  0.00    +0.000 A 
ATOM      9  C   UNL     1       5.536   5.537  17.570  0.00  0.00    +0.000 A 
ENDROOT
BRANCH   1  11
ATOM     10  O   UNL     1       3.612   6.061  19.675  0.00  0.00    +0.000 OA
ATOM     11  C   UNL     1       3.637   4.963  19.128  0.00  0.00    +0.000 C 
ATOM     12  N   UNL     1       3.042   3.828  19.644  0.00  0.00    +0.000 N 
ATOM     13  H   UNL     1       3.235   2.924  19.234  0.00  0.00    +0.000 HD
BRANCH  12  14
ATOM     14  C   UNL     1       2.315   3.868  20.873  0.00  0.00    +0.000 C 
ATOM     15  C   UNL     1       1.052   3.066  21.021  0.00  0.00    +0.000 C 
ATOM     16  C   UNL     1       2.276   2.683  21.799  0.00  0.00    +0.000 C 
ENDBRANCH  12  14
ENDBRANCH   1  11
TORSDOF 2
ENDMDL
MODEL 3
REMARK VINA RESULT:      -6.2      3.266      4.232
REMARK  Name = 
REMARK  2 active torsions:
REMARK  status: ('A' for Active; 'I' for Inactive)
REMARK    1  A    between atoms: C_2  and  C_7
REMARK    2  A    between atoms: N_3  and  C_4
REMARK                            x       y       z     vdW  Elec       q    Type
REMARK                         _______ _______ _______ _____ _____    ______ ____
ROOT
ATOM      1  C   UNL     1       3.772   4.615  17.938  0.00  0.00    +0.000 A 
ATOM      2  C   UNL     1       2.400   4.895  17.933  0.00  0.00    +0.000 A 
ATOM      3  C   UNL     1       1.555   4.397  18.930  0.00  0.00    +0.000 A 
ATOM      4  C   UNL     1       2.134   3.619  19.940  0.00  0.00    +0.000 A 
ATOM      5  S   UNL     1       1.433   2.850  21.314  0.00  0.00    +0.000 S 
ATOM      6  N   UNL     1       2.892   2.231  21.844  0.00  0.00    +0.000 NA
ATOM      7  N   UNL     1       3.907   2.558  21.061  0.00  0.00    +0.000 NA
ATOM      8  C   UNL     1       3.503   3.335  19.982  0.00  0.00    +0.000 A 
ATOM      9  C   UNL     1       4.336   3.846  18.965  0.00  0.00    +0.000 A 
ENDROOT
BRANCH   1  11
ATOM     10  O   UNL     1       5.014   6.348  16.956  0.00  0.00    +0.000 OA
ATOM     11  C   UNL     1       4.605   5.197  16.852  0.00  0.00    +0.000 C 
ATOM     12  N   UNL     1       4.837   4.390  15.755  0.00  0.00    +0.000 N 
ATOM     13  H   UNL     1       4.340   3.514  15.655  0.00  0.00    +0.000 HD
BRANCH  12  14
ATOM     14  C   UNL     1       5.616   4.851  14.649  0.00  0.00    +0.000 C 
ATOM     15  C   UNL     1       7.112   4.708  14.676  0.00  0.00    +0.000 C 
ATOM     16  C   UNL     1       6.300   3.889  13.717  0.00  0.00    +0.000 C 
ENDBRANCH  12  14
ENDBRANCH   1  11
TORSDOF 2
ENDMDL
MODEL 4
REMARK VINA RESULT:      -6.1      4.132      5.677
REMARK  Name = 
REMARK  2 active torsions:
REMARK  status: ('A' for Active; 'I' for Inactive)
REMARK    1  A    between atoms: C_2  and  C_7
REMARK    2  A    between atoms: N_3  and  C_4
REMARK                            x       y       z     vdW  Elec       q    Type
REMARK                         _______ _______ _______ _____ _____    ______ ____
ROOT
ATOM      1  C   UNL     1       4.942   4.407  18.206  0.00  0.00    +0.000 A 
ATOM      2  C   UNL     1       4.256   3.923  17.086  0.00  0.00    +0.000 A 
ATOM      3  C   UNL     1       2.982   3.357  17.205  0.00  0.00    +0.000 A 
ATOM      4  C   UNL     1       2.414   3.303  18.484  0.00  0.00    +0.000 A 
ATOM      5  S   UNL     1       0.892   2.696  19.018  0.00  0.00    +0.000 S 
ATOM      6  N   UNL     1       1.176   3.094  20.616  0.00  0.00    +0.000 NA
ATOM      7  N   UNL     1       2.352   3.668  20.805  0.00  0.00    +0.000 NA
ATOM      8  C   UNL     1       3.067   3.793  19.620  0.00  0.00    +0.000 A 
ATOM      9  C   UNL     1       4.351   4.358  19.477  0.00  0.00    +0.000 A 
ENDROOT
BRANCH   1  11
ATOM     10  O   UNL     1       7.287   4.323  18.160  0.00  0.00    +0.000 OA
ATOM     11  C   UNL     1       6.284   5.009  17.993  0.00  0.00    +0.000 C 
ATOM     12  N   UNL     1       6.311   6.346  17.645  0.00  0.00    +0.000 N 
ATOM     13  H   UNL     1       5.463   6.897  17.683  0.00  0.00    +0.000 HD
BRANCH  12  14
ATOM     14  C   UNL     1       7.548   7.029  17.426  0.00  0.00    +0.000 C 
ATOM     15  C   UNL     1       7.617   8.521  17.592  0.00  0.00    +0.000 C 
ATOM     16  C   UNL     1       8.325   7.627  18.566  0.00  0.00    +0.000 C 
ENDBRANCH  12  14
ENDBRANCH   1  11
TORSDOF 2
ENDMDL
MODEL 5
REMARK VINA RESULT:      -6.1      4.625      7.019
REMARK  Name = 
REMARK  2 active torsions:
REMARK  status: ('A' for Active; 'I' for Inactive)
REMARK    1  A    between atoms: C_2  and  C_7
REMARK    2  A    between atoms: N_3  and  C_4
REMARK                            x       y       z     vdW  Elec       q    Type
REMARK                         _______ _______ _______ _____ _____    ______ ____
ROOT
ATOM      1  C   UNL     1       3.465   6.382  17.944  0.00  0.00    +0.000 A 
ATOM      2  C   UNL     1       3.101   5.044  17.749  0.00  0.00    +0.000 A 
ATOM      3  C   UNL     1       3.897   4.178  16.993  0.00  0.00    +0.000 A 
ATOM      4  C   UNL     1       5.078   4.696  16.446  0.00  0.00    +0.000 A 
ATOM      5  S   UNL     1       6.296   3.953  15.479  0.00  0.00    +0.000 S 
ATOM      6  N   UNL     1       7.214   5.344  15.379  0.00  0.00    +0.000 NA
ATOM      7  N   UNL     1       6.681   6.364  16.030  0.00  0.00    +0.000 NA
ATOM      8  C   UNL     1       5.477   6.024  16.635  0.00  0.00    +0.000 A 
ATOM      9  C   UNL     1       4.657   6.879  17.400  0.00  0.00    +0.000 A 
ENDROOT
BRANCH   1  11
ATOM     10  O   UNL     1       2.226   6.837  19.884  0.00  0.00    +0.000 OA
ATOM     11  C   UNL     1       2.573   7.231  18.776  0.00  0.00    +0.000 C 
ATOM     12  N   UNL     1       2.157   8.424  18.214  0.00  0.00    +0.000 N 
ATOM     13  H   UNL     1       2.344   8.616  17.238  0.00  0.00    +0.000 HD
BRANCH  12  14
ATOM     14  C   UNL     1       1.291   9.313  18.922  0.00  0.00    +0.000 C 
ATOM     15  C   UNL     1       1.331  10.787  18.629  0.00  0.00    +0.000 C 
ATOM     16  C   UNL     1       0.128   9.980  18.240  0.00  0.00    +0.000 C 
ENDBRANCH  12  14
ENDBRANCH   1  11
TORSDOF 2
ENDMDL
MODEL 6
REMARK VINA RESULT:      -6.1      4.481      7.409
REMARK  Name = 
REMARK  2 active torsions:
REMARK  status: ('A' for Active; 'I' for Inactive)
REMARK    1  A    between atoms: C_2  and  C_7
REMARK    2  A    between atoms: N_3  and  C_4
REMARK                            x       y       z     vdW  Elec       q    Type
REMARK                         _______ _______ _______ _____ _____    ______ ____
ROOT
ATOM      1  C   UNL     1       3.512   5.612  19.058  0.00  0.00    +0.000 A 
ATOM      2  C   UNL     1       3.225   5.405  17.704  0.00  0.00    +0.000 A 
ATOM      3  C   UNL     1       4.227   5.047  16.796  0.00  0.00    +0.000 A 
ATOM      4  C   UNL     1       5.527   4.891  17.294  0.00  0.00    +0.000 A 
ATOM      5  S   UNL     1       6.995   4.460  16.503  0.00  0.00    +0.000 S 
ATOM      6  N   UNL     1       7.898   4.538  17.906  0.00  0.00    +0.000 NA
ATOM      7  N   UNL     1       7.179   4.867  18.966  0.00  0.00    +0.000 NA
ATOM      8  C   UNL     1       5.843   5.074  18.645  0.00  0.00    +0.000 A 
ATOM      9  C   UNL     1       4.817   5.437  19.542  0.00  0.00    +0.000 A 
ENDROOT
BRANCH   1  11
ATOM     10  O   UNL     1       1.663   5.089  20.406  0.00  0.00    +0.000 OA
ATOM     11  C   UNL     1       2.388   5.973  19.961  0.00  0.00    +0.000 C 
ATOM     12  N   UNL     1       2.211   7.320  20.216  0.00  0.00    +0.000 N 
ATOM     13  H   UNL     1       2.737   8.008  19.692  0.00  0.00    +0.000 HD
BRANCH  12  14
ATOM     14  C   UNL     1       1.155   7.780  21.061  0.00  0.00    +0.000 C 
ATOM     15  C   UNL     1       1.404   8.911  22.020  0.00  0.00    +0.000 C 
ATOM     16  C   UNL     1       0.501   9.117  20.841  0.00  0.00    +0.000 C 
ENDBRANCH  12  14
ENDBRANCH   1  11
TORSDOF 2
ENDMDL
MODEL 7
REMARK VINA RESULT:      -6.1      1.943      2.195
REMARK  Name = 
REMARK  2 active torsions:
REMARK  status: ('A' for Active; 'I' for Inactive)
REMARK    1  A    between atoms: C_2  and  C_7
REMARK    2  A    between atoms: N_3  and  C_4
REMARK                            x       y       z     vdW  Elec       q    Type
REMARK                         _______ _______ _______ _____ _____    ______ ____
ROOT
ATOM      1  C   UNL     1       5.331   4.888  15.695  0.00  0.00    +0.000 A 
ATOM      2  C   UNL     1       5.176   6.223  16.090  0.00  0.00    +0.000 A 
ATOM      3  C   UNL     1       4.609   6.553  17.325  0.00  0.00    +0.000 A 
ATOM      4  C   UNL     1       4.211   5.499  18.157  0.00  0.00    +0.000 A 
ATOM      5  S   UNL     1       3.491   5.506  19.723  0.00  0.00    +0.000 S 
ATOM      6  N   UNL     1       3.435   3.839  19.820  0.00  0.00    +0.000 NA
ATOM      7  N   UNL     1       3.927   3.241  18.749  0.00  0.00    +0.000 NA
ATOM      8  C   UNL     1       4.366   4.155  17.798  0.00  0.00    +0.000 A 
ATOM      9  C   UNL     1       4.940   3.846  16.548  0.00  0.00    +0.000 A 
ENDROOT
BRANCH   1  11
ATOM     10  O   UNL     1       7.022   5.166  14.092  0.00  0.00    +0.000 OA
ATOM     11  C   UNL     1       5.959   4.622  14.375  0.00  0.00    +0.000 C 
ATOM     12  N   UNL     1       5.268   3.784  13.521  0.00  0.00    +0.000 N 
ATOM     13  H   UNL     1       4.324   3.498  13.746  0.00  0.00    +0.000 HD
BRANCH  12  14
ATOM     14  C   UNL     1       5.776   3.468  12.223  0.00  0.00    +0.000 C 
ATOM     15  C   UNL     1       5.730   2.049  11.728  0.00  0.00    +0.000 C 
ATOM     16  C   UNL     1       4.857   3.090  11.093  0.00  0.00    +0.000 C 
ENDBRANCH  12  14
ENDBRANCH   1  11
TORSDOF 2
ENDMDL
MODEL 8
REMARK VINA RESULT:      -6.1      1.423      1.924
REMARK  Name = 
REMARK  2 active torsions:
REMARK  status: ('A' for Active; 'I' for Inactive)
REMARK    1  A    between atoms: C_2  and  C_7
REMARK    2  A    between atoms: N_3  and  C_4
REMARK                            x       y       z     vdW  Elec       q    Type
REMARK                         _______ _______ _______ _____ _____    ______ ____
ROOT
ATOM      1  C   UNL     1       6.278   4.369  15.008  0.00  0.00    +0.000 A 
ATOM      2  C   UNL     1       7.360   4.595  15.868  0.00  0.00    +0.000 A 
ATOM      3  C   UNL     1       7.166   4.826  17.233  0.00  0.00    +0.000 A 
ATOM      4  C   UNL     1       5.850   4.811  17.712  0.00  0.00    +0.000 A 
ATOM      5  S   UNL     1       5.223   5.045  19.301  0.00  0.00    +0.000 S 
ATOM      6  N   UNL     1       3.638   4.829  18.821  0.00  0.00    +0.000 NA
ATOM      7  N   UNL     1       3.517   4.584  17.527  0.00  0.00    +0.000 NA
ATOM      8  C   UNL     1       4.749   4.573  16.882  0.00  0.00    +0.000 A 
ATOM      9  C   UNL     1       4.968   4.344  15.508  0.00  0.00    +0.000 A 
ENDROOT
BRANCH   1  11
ATOM     10  O   UNL     1       7.300   4.885  12.960  0.00  0.00    +0.000 OA
ATOM     11  C   UNL     1       6.570   4.114  13.574  0.00  0.00    +0.000 C 
ATOM     12  N   UNL     1       5.955   3.015  13.005  0.00  0.00    +0.000 N 
ATOM     13  H   UNL     1       5.239   2.515  13.516  0.00  0.00    +0.000 HD
BRANCH  12  14
ATOM     14  C   UNL     1       6.158   2.682  11.630  0.00  0.00    +0.000 C 
ATOM     15  C   UNL     1       7.381   1.911  11.220  0.00  0.00    +0.000 C 
ATOM     16  C   UNL     1       6.029   1.266  11.140  0.00  0.00    +0.000 C 
ENDBRANCH  12  14
ENDBRANCH   1  11
TORSDOF 2
ENDMDL
MODEL 9
REMARK VINA RESULT:      -6.1      3.325      4.261
REMARK  Name = 
REMARK  2 active torsions:
REMARK  status: ('A' for Active; 'I' for Inactive)
REMARK    1  A    between atoms: C_2  and  C_7
REMARK    2  A    between atoms: N_3  and  C_4
REMARK                            x       y       z     vdW  Elec       q    Type
REMARK                         _______ _______ _______ _____ _____    ______ ____
ROOT
ATOM      1  C   UNL     1       4.437   3.838  18.102  0.00  0.00    +0.000 A 
ATOM      2  C   UNL     1       3.196   4.269  17.620  0.00  0.00    +0.000 A 
ATOM      3  C   UNL     1       2.029   4.112  18.376  0.00  0.00    +0.000 A 
ATOM      4  C   UNL     1       2.151   3.519  19.638  0.00  0.00    +0.000 A 
ATOM      5  S   UNL     1       0.967   3.167  20.840  0.00  0.00    +0.000 S 
ATOM      6  N   UNL     1       2.082   2.515  21.899  0.00  0.00    +0.000 NA
ATOM      7  N   UNL     1       3.317   2.535  21.427  0.00  0.00    +0.000 NA
ATOM      8  C   UNL     1       3.379   3.092  20.155  0.00  0.00    +0.000 A 
ATOM      9  C   UNL     1       4.542   3.259  19.374  0.00  0.00    +0.000 A 
ENDROOT
BRANCH   1  11
ATOM     10  O   UNL     1       6.631   4.582  17.724  0.00  0.00    +0.000 OA
ATOM     11  C   UNL     1       5.631   4.058  17.244  0.00  0.00    +0.000 C 
ATOM     12  N   UNL     1       5.517   3.678  15.921  0.00  0.00    +0.000 N 
ATOM     13  H   UNL     1       4.617   3.405  15.547  0.00  0.00    +0.000 HD
BRANCH  12  14
ATOM     14  C   UNL     1       6.600   3.853  15.005  0.00  0.00    +0.000 C 
ATOM     15  C   UNL     1       6.335   3.852  13.525  0.00  0.00    +0.000 C 
ATOM     16  C   UNL     1       6.756   5.119  14.208  0.00  0.00    +0.000 C 
ENDBRANCH  12  14
ENDBRANCH   1  11
TORSDOF 2
ENDMDL
