MODEL 1
REMARK VINA RESULT:      -6.8      0.000      0.000
REMARK  Name = 
REMARK  10 active torsions:
REMARK  status: ('A' for Active; 'I' for Inactive)
REMARK    1  A    between atoms: C_1  and  O_2
REMARK    2  A    between atoms: O_2  and  C_3
REMARK    3  A    between atoms: C_3  and  C_4
REMARK    4  A    between atoms: C_4  and  N_5
REMARK    5  A    between atoms: C_10  and  C_11
REMARK    6  A    between atoms: N_13  and  C_14
REMARK    7  A    between atoms: N_13  and  C_15
REMARK    8  A    between atoms: N_17  and  C_18
REMARK    9  A    between atoms: C_18  and  C_19
REMARK   10  A    between atoms: C_18  and  C_20
REMARK                            x       y       z     vdW  Elec       q    Type
REMARK                         _______ _______ _______ _____ _____    ______ ____
ROOT
ATOM      1  N   UNL     1      -0.394  10.420  19.128  0.00  0.00    +0.000 NA
ATOM      2  C   UNL     1      -0.315   9.318  20.106  0.00  0.00    +0.000 C 
ATOM      3  C   UNL     1       1.084   9.055  20.658  0.00  0.00    +0.000 C 
ATOM      4  C   UNL     1       1.861   8.158  19.747  0.00  0.00    +0.000 A 
ATOM      5  C   UNL     1       2.142   6.843  20.111  0.00  0.00    +0.000 A 
ATOM      6  C   UNL     1       2.902   6.005  19.284  0.00  0.00    +0.000 A 
ATOM      7  C   UNL     1       3.429   6.560  18.110  0.00  0.00    +0.000 A 
ATOM      8  N   UNL     1       4.292   5.813  17.297  0.00  0.00    +0.000 N 
ATOM      9  N   UNL     1       3.080   7.817  17.706  0.00  0.00    +0.000 NA
ATOM     10  C   UNL     1       2.298   8.590  18.505  0.00  0.00    +0.000 A 
ATOM     11  C   UNL     1       1.891   9.957  18.007  0.00  0.00    +0.000 C 
ATOM     12  C   UNL     1       0.363  10.141  17.875  0.00  0.00    +0.000 C 
ATOM     13  H   UNL     1       4.861   5.214  17.891  0.00  0.00    +0.000 HD
ENDROOT
BRANCH   6  14
ATOM     14  C   UNL     1       3.228   4.681  19.889  0.00  0.00    +0.000 C 
ATOM     15  O   UNL     1       4.436   4.424  19.962  0.00  0.00    +0.000 OA
ATOM     16  N   UNL     1       2.282   3.784  20.396  0.00  0.00    +0.000 N 
ATOM     17  C   UNL     1       0.832   3.908  20.336  0.00  0.00    +0.000 C 
ATOM     18  C   UNL     1       2.773   2.531  20.954  0.00  0.00    +0.000 C 
ENDBRANCH   6  14
BRANCH   8  19
ATOM     19  C   UNL     1       5.133   6.521  16.331  0.00  0.00    +0.000 C 
ATOM     20  C   UNL     1       6.420   6.957  17.032  0.00  0.00    +0.000 C 
ATOM     21  C   UNL     1       5.458   5.544  15.198  0.00  0.00    +0.000 C 
ENDBRANCH   8  19
BRANCH   1  22
ATOM     22  C   UNL     1      -1.820  10.688  18.784  0.00  0.00    +0.000 C 
BRANCH  22  23
ATOM     23  C   UNL     1      -2.276  10.113  17.426  0.00  0.00    +0.000 C 
BRANCH  23  25
ATOM     24  C   UNL     1      -3.001  10.664  15.261  0.00  0.00    +0.000 C 
ATOM     25  O   UNL     1      -2.708  11.168  16.561  0.00  0.00    +0.000 OA
ENDBRANCH  23  25
ENDBRANCH  22  23
ENDBRANCH   1  22
TORSDOF 5
ENDMDL
MODEL 2
REMARK VINA RESULT:      -6.4      2.730      7.429
REMARK  Name = 
REMARK  10 active torsions:
REMARK  status: ('A' for Active; 'I' for Inactive)
REMARK    1  A    between atoms: C_1  and  O_2
REMARK    2  A    between atoms: O_2  and  C_3
REMARK    3  A    between atoms: C_3  and  C_4
REMARK    4  A    between atoms: C_4  and  N_5
REMARK    5  A    between atoms: C_10  and  C_11
REMARK    6  A    between atoms: N_13  and  C_14
REMARK    7  A    between atoms: N_13  and  C_15
REMARK    8  A    between atoms: N_17  and  C_18
REMARK    9  A    between atoms: C_18  and  C_19
REMARK   10  A    between atoms: C_18  and  C_20
REMARK                            x       y       z     vdW  Elec       q    Type
REMARK                         _______ _______ _______ _____ _____    ______ ____
ROOT
ATOM      1  N   UNL     1       6.793   4.797  15.266  0.00  0.00    +0.000 NA
ATOM      2  C   UNL     1       6.394   6.126  15.767  0.00  0.00    +0.000 C 
ATOM      3  C   UNL     1       6.368   6.252  17.288  0.00  0.00    +0.000 C 
ATOM      4  C   UNL     1       5.067   5.770  17.845  0.00  0.00    +0.000 A 
ATOM      5  C   UNL     1       4.141   6.668  18.373  0.00  0.00    +0.000 A 
ATOM      6  C   UNL     1       2.936   6.225  18.933  0.00  0.00    +0.000 A 
ATOM      7  C   UNL     1       2.727   4.841  19.008  0.00  0.00    +0.000 A 
ATOM      8  N   UNL     1       1.597   4.329  19.660  0.00  0.00    +0.000 N 
ATOM      9  N   UNL     1       3.586   3.965  18.411  0.00  0.00    +0.000 NA
ATOM     10  C   UNL     1       4.724   4.428  17.828  0.00  0.00    +0.000 A 
ATOM     11  C   UNL     1       5.630   3.437  17.134  0.00  0.00    +0.000 C 
ATOM     12  C   UNL     1       5.826   3.723  15.629  0.00  0.00    +0.000 C 
ATOM     13  H   UNL     1       1.374   4.932  20.447  0.00  0.00    +0.000 HD
ENDROOT
BRANCH   6  14
ATOM     14  C   UNL     1       2.130   7.302  19.579  0.00  0.00    +0.000 C 
ATOM     15  O   UNL     1       1.793   7.073  20.747  0.00  0.00    +0.000 OA
ATOM     16  N   UNL     1       1.795   8.517  18.971  0.00  0.00    +0.000 N 
ATOM     17  C   UNL     1       2.061   8.915  17.596  0.00  0.00    +0.000 C 
ATOM     18  C   UNL     1       0.999   9.461  19.745  0.00  0.00    +0.000 C 
ENDBRANCH   6  14
BRANCH   8  19
ATOM     19  C   UNL     1       1.605   2.926  20.076  0.00  0.00    +0.000 C 
ATOM     20  C   UNL     1       1.236   2.856  21.559  0.00  0.00    +0.000 C 
ATOM     21  C   UNL     1       0.555   2.190  19.240  0.00  0.00    +0.000 C 
ENDBRANCH   8  19
BRANCH   1  22
ATOM     22  C   UNL     1       6.938   4.839  13.782  0.00  0.00    +0.000 C 
BRANCH  22  23
ATOM     23  C   UNL     1       5.944   3.945  13.011  0.00  0.00    +0.000 C 
BRANCH  23  25
ATOM     24  C   UNL     1       5.789   2.122  11.537  0.00  0.00    +0.000 C 
ATOM     25  O   UNL     1       6.639   3.145  12.049  0.00  0.00    +0.000 OA
ENDBRANCH  23  25
ENDBRANCH  22  23
ENDBRANCH   1  22
TORSDOF 5
ENDMDL
MODEL 3
REMARK VINA RESULT:      -6.4      2.925      4.791
REMARK  Name = 
REMARK  10 active torsions:
REMARK  status: ('A' for Active; 'I' for Inactive)
REMARK    1  A    between atoms: C_1  and  O_2
REMARK    2  A    between atoms: O_2  and  C_3
REMARK    3  A    between atoms: C_3  and  C_4
REMARK    4  A    between atoms: C_4  and  N_5
REMARK    5  A    between atoms: C_10  and  C_11
REMARK    6  A    between atoms: N_13  and  C_14
REMARK    7  A    between atoms: N_13  and  C_15
REMARK    8  A    between atoms: N_17  and  C_18
REMARK    9  A    between atoms: C_18  and  C_19
REMARK   10  A    between atoms: C_18  and  C_20
REMARK                            x       y       z     vdW  Elec       q    Type
REMARK                         _______ _______ _______ _____ _____    ______ ____
ROOT
ATOM      1  N   UNL     1       0.910   8.876  20.414  0.00  0.00    +0.000 NA
ATOM      2  C   UNL     1       1.906   9.177  19.368  0.00  0.00    +0.000 C 
ATOM      3  C   UNL     1       1.927   8.189  18.205  0.00  0.00    +0.000 C 
ATOM      4  C   UNL     1       2.778   7.000  18.523  0.00  0.00    +0.000 A 
ATOM      5  C   UNL     1       4.007   6.816  17.894  0.00  0.00    +0.000 A 
ATOM      6  C   UNL     1       4.795   5.687  18.155  0.00  0.00    +0.000 A 
ATOM      7  C   UNL     1       4.270   4.716  19.017  0.00  0.00    +0.000 A 
ATOM      8  N   UNL     1       4.953   3.511  19.231  0.00  0.00    +0.000 N 
ATOM      9  N   UNL     1       3.111   4.936  19.705  0.00  0.00    +0.000 NA
ATOM     10  C   UNL     1       2.392   6.066  19.470  0.00  0.00    +0.000 A 
ATOM     11  C   UNL     1       1.139   6.302  20.282  0.00  0.00    +0.000 C 
ATOM     12  C   UNL     1       1.181   7.596  21.126  0.00  0.00    +0.000 C 
ATOM     13  H   UNL     1       5.417   3.243  18.367  0.00  0.00    +0.000 HD
ENDROOT
BRANCH   6  14
ATOM     14  C   UNL     1       6.007   5.575  17.292  0.00  0.00    +0.000 C 
ATOM     15  O   UNL     1       6.994   6.204  17.694  0.00  0.00    +0.000 OA
ATOM     16  N   UNL     1       6.090   4.792  16.136  0.00  0.00    +0.000 N 
ATOM     17  C   UNL     1       5.013   4.043  15.501  0.00  0.00    +0.000 C 
ATOM     18  C   UNL     1       7.353   4.795  15.408  0.00  0.00    +0.000 C 
ENDBRANCH   6  14
BRANCH   8  19
ATOM     19  C   UNL     1       4.216   2.377  19.789  0.00  0.00    +0.000 C 
ATOM     20  C   UNL     1       3.716   1.505  18.635  0.00  0.00    +0.000 C 
ATOM     21  C   UNL     1       5.187   1.581  20.665  0.00  0.00    +0.000 C 
ENDBRANCH   8  19
BRANCH   1  22
ATOM     22  C   UNL     1       0.871   9.987  21.409  0.00  0.00    +0.000 C 
BRANCH  22  23
ATOM     23  C   UNL     1       0.701   9.534  22.874  0.00  0.00    +0.000 C 
BRANCH  23  25
ATOM     24  C   UNL     1      -0.839  11.298  22.681  0.00  0.00    +0.000 C 
ATOM     25  O   UNL     1      -0.434  10.178  23.463  0.00  0.00    +0.000 OA
ENDBRANCH  23  25
ENDBRANCH  22  23
ENDBRANCH   1  22
TORSDOF 5
ENDMDL
MODEL 4
REMARK VINA RESULT:      -6.4      0.912      1.021
REMARK  Name = 
REMARK  10 active torsions:
REMARK  status: ('A' for Active; 'I' for Inactive)
REMARK    1  A    between atoms: C_1  and  O_2
REMARK    2  A    between atoms: O_2  and  C_3
REMARK    3  A    between atoms: C_3  and  C_4
REMARK    4  A    between atoms: C_4  and  N_5
REMARK    5  A    between atoms: C_10  and  C_11
REMARK    6  A    between atoms: N_13  and  C_14
REMARK    7  A    between atoms: N_13  and  C_15
REMARK    8  A    between atoms: N_17  and  C_18
REMARK    9  A    between atoms: C_18  and  C_19
REMARK   10  A    between atoms: C_18  and  C_20
REMARK                            x       y       z     vdW  Elec       q    Type
REMARK                         _______ _______ _______ _____ _____    ______ ____
ROOT
ATOM      1  N   UNL     1      -0.390  10.408  19.163  0.00  0.00    +0.000 NA
ATOM      2  C   UNL     1      -0.295   9.309  20.144  0.00  0.00    +0.000 C 
ATOM      3  C   UNL     1       1.113   9.048  20.674  0.00  0.00    +0.000 C 
ATOM      4  C   UNL     1       1.875   8.149  19.753  0.00  0.00    +0.000 A 
ATOM      5  C   UNL     1       2.162   6.835  20.117  0.00  0.00    +0.000 A 
ATOM      6  C   UNL     1       2.909   5.995  19.281  0.00  0.00    +0.000 A 
ATOM      7  C   UNL     1       3.417   6.546  18.097  0.00  0.00    +0.000 A 
ATOM      8  N   UNL     1       4.267   5.796  17.273  0.00  0.00    +0.000 N 
ATOM      9  N   UNL     1       3.061   7.801  17.694  0.00  0.00    +0.000 NA
ATOM     10  C   UNL     1       2.292   8.576  18.503  0.00  0.00    +0.000 A 
ATOM     11  C   UNL     1       1.877   9.942  18.007  0.00  0.00    +0.000 C 
ATOM     12  C   UNL     1       0.346  10.125  17.900  0.00  0.00    +0.000 C 
ATOM     13  H   UNL     1       4.845   5.199  17.859  0.00  0.00    +0.000 HD
ENDROOT
BRANCH   6  14
ATOM     14  C   UNL     1       3.246   4.673  19.885  0.00  0.00    +0.000 C 
ATOM     15  O   UNL     1       4.456   4.441  19.994  0.00  0.00    +0.000 OA
ATOM     16  N   UNL     1       2.304   3.751  20.355  0.00  0.00    +0.000 N 
ATOM     17  C   UNL     1       0.854   3.844  20.251  0.00  0.00    +0.000 C 
ATOM     18  C   UNL     1       2.805   2.503  20.918  0.00  0.00    +0.000 C 
ENDBRANCH   6  14
BRANCH   8  19
ATOM     19  C   UNL     1       5.091   6.501  16.290  0.00  0.00    +0.000 C 
ATOM     20  C   UNL     1       6.376   6.967  16.977  0.00  0.00    +0.000 C 
ATOM     21  C   UNL     1       5.424   5.510  15.171  0.00  0.00    +0.000 C 
ENDBRANCH   8  19
BRANCH   1  22
ATOM     22  C   UNL     1      -1.822  10.675  18.842  0.00  0.00    +0.000 C 
BRANCH  22  23
ATOM     23  C   UNL     1      -2.386  11.978  19.445  0.00  0.00    +0.000 C 
BRANCH  23  25
ATOM     24  C   UNL     1      -4.089  11.324  17.965  0.00  0.00    +0.000 C 
ATOM     25  O   UNL     1      -3.766  12.130  19.095  0.00  0.00    +0.000 OA
ENDBRANCH  23  25
ENDBRANCH  22  23
ENDBRANCH   1  22
TORSDOF 5
ENDMDL
MODEL 5
REMARK VINA RESULT:      -6.4      1.180      1.200
REMARK  Name = 
REMARK  10 active torsions:
REMARK  status: ('A' for Active; 'I' for Inactive)
REMARK    1  A    between atoms: C_1  and  O_2
REMARK    2  A    between atoms: O_2  and  C_3
REMARK    3  A    between atoms: C_3  and  C_4
REMARK    4  A    between atoms: C_4  and  N_5
REMARK    5  A    between atoms: C_10  and  C_11
REMARK    6  A    between atoms: N_13  and  C_14
REMARK    7  A    between atoms: N_13  and  C_15
REMARK    8  A    between atoms: N_17  and  C_18
REMARK    9  A    between atoms: C_18  and  C_19
REMARK   10  A    between atoms: C_18  and  C_20
REMARK                            x       y       z     vdW  Elec       q    Type
REMARK                         _______ _______ _______ _____ _____    ______ ____
ROOT
ATOM      1  N   UNL     1      -0.273  10.714  19.044  0.00  0.00    +0.000 NA
ATOM      2  C   UNL     1      -0.451   9.784  20.176  0.00  0.00    +0.000 C 
ATOM      3  C   UNL     1       0.847   9.349  20.853  0.00  0.00    +0.000 C 
ATOM      4  C   UNL     1       1.465   8.191  20.137  0.00  0.00    +0.000 A 
ATOM      5  C   UNL     1       1.466   6.919  20.707  0.00  0.00    +0.000 A 
ATOM      6  C   UNL     1       2.075   5.834  20.064  0.00  0.00    +0.000 A 
ATOM      7  C   UNL     1       2.747   6.088  18.861  0.00  0.00    +0.000 A 
ATOM      8  N   UNL     1       3.474   5.073  18.225  0.00  0.00    +0.000 N 
ATOM      9  N   UNL     1       2.669   7.309  18.254  0.00  0.00    +0.000 NA
ATOM     10  C   UNL     1       2.025   8.332  18.878  0.00  0.00    +0.000 A 
ATOM     11  C   UNL     1       1.916   9.657  18.159  0.00  0.00    +0.000 C 
ATOM     12  C   UNL     1       0.460  10.105  17.900  0.00  0.00    +0.000 C 
ATOM     13  H   UNL     1       3.890   4.477  18.937  0.00  0.00    +0.000 HD
ENDROOT
BRANCH   6  14
ATOM     14  C   UNL     1       2.111   4.583  20.876  0.00  0.00    +0.000 C 
ATOM     15  O   UNL     1       2.769   4.656  21.921  0.00  0.00    +0.000 OA
ATOM     16  N   UNL     1       1.428   3.406  20.552  0.00  0.00    +0.000 N 
ATOM     17  C   UNL     1       0.663   3.137  19.342  0.00  0.00    +0.000 C 
ATOM     18  C   UNL     1       1.571   2.272  21.457  0.00  0.00    +0.000 C 
ENDBRANCH   6  14
BRANCH   8  19
ATOM     19  C   UNL     1       4.474   5.449  17.225  0.00  0.00    +0.000 C 
ATOM     20  C   UNL     1       5.771   5.819  17.947  0.00  0.00    +0.000 C 
ATOM     21  C   UNL     1       4.704   4.234  16.323  0.00  0.00    +0.000 C 
ENDBRANCH   8  19
BRANCH   1  22
ATOM     22  C   UNL     1      -1.604  11.191  18.570  0.00  0.00    +0.000 C 
BRANCH  22  23
ATOM     23  C   UNL     1      -2.449  10.126  17.841  0.00  0.00    +0.000 C 
BRANCH  23  25
ATOM     24  C   UNL     1      -4.168  11.408  16.882  0.00  0.00    +0.000 C 
ATOM     25  O   UNL     1      -2.982  10.661  16.625  0.00  0.00    +0.000 OA
ENDBRANCH  23  25
ENDBRANCH  22  23
ENDBRANCH   1  22
TORSDOF 5
ENDMDL
MODEL 6
REMARK VINA RESULT:      -6.3      2.581      4.740
REMARK  Name = 
REMARK  10 active torsions:
REMARK  status: ('A' for Active; 'I' for Inactive)
REMARK    1  A    between atoms: C_1  and  O_2
REMARK    2  A    between atoms: O_2  and  C_3
REMARK    3  A    between atoms: C_3  and  C_4
REMARK    4  A    between atoms: C_4  and  N_5
REMARK    5  A    between atoms: C_10  and  C_11
REMARK    6  A    between atoms: N_13  and  C_14
REMARK    7  A    between atoms: N_13  and  C_15
REMARK    8  A    between atoms: N_17  and  C_18
REMARK    9  A    between atoms: C_18  and  C_19
REMARK   10  A    between atoms: C_18  and  C_20
REMARK                            x       y       z     vdW  Elec       q    Type
REMARK                         _______ _______ _______ _____ _____    ______ ____
ROOT
ATOM      1  N   UNL     1       1.182  11.332  19.809  0.00  0.00    +0.000 NA
ATOM      2  C   UNL     1       1.965  10.961  18.615  0.00  0.00    +0.000 C 
ATOM      3  C   UNL     1       1.439   9.742  17.861  0.00  0.00    +0.000 C 
ATOM      4  C   UNL     1       1.955   8.474  18.462  0.00  0.00    +0.000 A 
ATOM      5  C   UNL     1       2.906   7.705  17.794  0.00  0.00    +0.000 A 
ATOM      6  C   UNL     1       3.368   6.495  18.328  0.00  0.00    +0.000 A 
ATOM      7  C   UNL     1       2.787   6.051  19.523  0.00  0.00    +0.000 A 
ATOM      8  N   UNL     1       3.120   4.796  20.051  0.00  0.00    +0.000 N 
ATOM      9  N   UNL     1       1.926   6.844  20.226  0.00  0.00    +0.000 NA
ATOM     10  C   UNL     1       1.533   8.037  19.707  0.00  0.00    +0.000 A 
ATOM     11  C   UNL     1       0.617   8.912  20.531  0.00  0.00    +0.000 C 
ATOM     12  C   UNL     1       1.219  10.293  20.876  0.00  0.00    +0.000 C 
ATOM     13  H   UNL     1       3.282   4.152  19.281  0.00  0.00    +0.000 HD
ENDROOT
BRANCH   6  14
ATOM     14  C   UNL     1       4.273   5.731  17.419  0.00  0.00    +0.000 C 
ATOM     15  O   UNL     1       3.790   4.691  16.956  0.00  0.00    +0.000 OA
ATOM     16  N   UNL     1       5.557   6.142  17.048  0.00  0.00    +0.000 N 
ATOM     17  C   UNL     1       6.288   7.301  17.544  0.00  0.00    +0.000 C 
ATOM     18  C   UNL     1       6.309   5.275  16.150  0.00  0.00    +0.000 C 
ENDBRANCH   6  14
BRANCH   8  19
ATOM     19  C   UNL     1       2.227   4.194  21.042  0.00  0.00    +0.000 C 
ATOM     20  C   UNL     1       0.859   3.971  20.394  0.00  0.00    +0.000 C 
ATOM     21  C   UNL     1       2.835   2.851  21.456  0.00  0.00    +0.000 C 
ENDBRANCH   8  19
BRANCH   1  22
ATOM     22  C   UNL     1       1.690  12.619  20.367  0.00  0.00    +0.000 C 
BRANCH  22  23
ATOM     23  C   UNL     1       0.595  13.575  20.882  0.00  0.00    +0.000 C 
BRANCH  23  25
ATOM     24  C   UNL     1       0.056  15.103  22.583  0.00  0.00    +0.000 C 
ATOM     25  O   UNL     1       0.918  14.036  22.198  0.00  0.00    +0.000 OA
ENDBRANCH  23  25
ENDBRANCH  22  23
ENDBRANCH   1  22
TORSDOF 5
ENDMDL
MODEL 7
REMARK VINA RESULT:      -6.2      2.540      4.829
REMARK  Name = 
REMARK  10 active torsions:
REMARK  status: ('A' for Active; 'I' for Inactive)
REMARK    1  A    between atoms: C_1  and  O_2
REMARK    2  A    between atoms: O_2  and  C_3
REMARK    3  A    between atoms: C_3  and  C_4
REMARK    4  A    between atoms: C_4  and  N_5
REMARK    5  A    between atoms: C_10  and  C_11
REMARK    6  A    between atoms: N_13  and  C_14
REMARK    7  A    between atoms: N_13  and  C_15
REMARK    8  A    between atoms: N_17  and  C_18
REMARK    9  A    between atoms: C_18  and  C_19
REMARK   10  A    between atoms: C_18  and  C_20
REMARK                            x       y       z     vdW  Elec       q    Type
REMARK                         _______ _______ _______ _____ _____    ______ ____
ROOT
ATOM      1  N   UNL     1       1.233  11.416  19.714  0.00  0.00    +0.000 NA
ATOM      2  C   UNL     1       2.035  11.035  18.535  0.00  0.00    +0.000 C 
ATOM      3  C   UNL     1       1.511   9.819  17.774  0.00  0.00    +0.000 C 
ATOM      4  C   UNL     1       2.004   8.547  18.388  0.00  0.00    +0.000 A 
ATOM      5  C   UNL     1       2.960   7.768  17.740  0.00  0.00    +0.000 A 
ATOM      6  C   UNL     1       3.402   6.555  18.285  0.00  0.00    +0.000 A 
ATOM      7  C   UNL     1       2.795   6.120  19.471  0.00  0.00    +0.000 A 
ATOM      8  N   UNL     1       3.107   4.864  20.008  0.00  0.00    +0.000 N 
ATOM      9  N   UNL     1       1.929   6.923  20.156  0.00  0.00    +0.000 NA
ATOM     10  C   UNL     1       1.557   8.119  19.627  0.00  0.00    +0.000 A 
ATOM     11  C   UNL     1       0.633   9.004  20.431  0.00  0.00    +0.000 C 
ATOM     12  C   UNL     1       1.242  10.380  20.784  0.00  0.00    +0.000 C 
ATOM     13  H   UNL     1       3.278   4.216  19.243  0.00  0.00    +0.000 HD
ENDROOT
BRANCH   6  14
ATOM     14  C   UNL     1       4.316   5.781  17.395  0.00  0.00    +0.000 C 
ATOM     15  O   UNL     1       3.852   4.717  16.970  0.00  0.00    +0.000 OA
ATOM     16  N   UNL     1       5.589   6.206  17.002  0.00  0.00    +0.000 N 
ATOM     17  C   UNL     1       6.300   7.394  17.454  0.00  0.00    +0.000 C 
ATOM     18  C   UNL     1       6.353   5.325  16.126  0.00  0.00    +0.000 C 
ENDBRANCH   6  14
BRANCH   8  19
ATOM     19  C   UNL     1       2.191   4.272  20.984  0.00  0.00    +0.000 C 
ATOM     20  C   UNL     1       0.871   3.951  20.281  0.00  0.00    +0.000 C 
ATOM     21  C   UNL     1       2.837   2.985  21.503  0.00  0.00    +0.000 C 
ENDBRANCH   8  19
BRANCH   1  22
ATOM     22  C   UNL     1       1.743  12.700  20.277  0.00  0.00    +0.000 C 
BRANCH  22  23
ATOM     23  C   UNL     1       2.383  13.649  19.242  0.00  0.00    +0.000 C 
BRANCH  23  25
ATOM     24  C   UNL     1       3.595  14.080  21.207  0.00  0.00    +0.000 C 
ATOM     25  O   UNL     1       3.315  14.525  19.883  0.00  0.00    +0.000 OA
ENDBRANCH  23  25
ENDBRANCH  22  23
ENDBRANCH   1  22
TORSDOF 5
ENDMDL
MODEL 8
REMARK VINA RESULT:      -6.2      2.722      4.741
REMARK  Name = 
REMARK  10 active torsions:
REMARK  status: ('A' for Active; 'I' for Inactive)
REMARK    1  A    between atoms: C_1  and  O_2
REMARK    2  A    between atoms: O_2  and  C_3
REMARK    3  A    between atoms: C_3  and  C_4
REMARK    4  A    between atoms: C_4  and  N_5
REMARK    5  A    between atoms: C_10  and  C_11
REMARK    6  A    between atoms: N_13  and  C_14
REMARK    7  A    between atoms: N_13  and  C_15
REMARK    8  A    between atoms: N_17  and  C_18
REMARK    9  A    between atoms: C_18  and  C_19
REMARK   10  A    between atoms: C_18  and  C_20
REMARK                            x       y       z     vdW  Elec       q    Type
REMARK                         _______ _______ _______ _____ _____    ______ ____
ROOT
ATOM      1  N   UNL     1       1.042   9.457  20.177  0.00  0.00    +0.000 NA
ATOM      2  C   UNL     1       1.810   9.488  18.917  0.00  0.00    +0.000 C 
ATOM      3  C   UNL     1       1.536   8.318  17.975  0.00  0.00    +0.000 C 
ATOM      4  C   UNL     1       2.376   7.132  18.332  0.00  0.00    +0.000 A 
ATOM      5  C   UNL     1       3.435   6.738  17.517  0.00  0.00    +0.000 A 
ATOM      6  C   UNL     1       4.204   5.607  17.820  0.00  0.00    +0.000 A 
ATOM      7  C   UNL     1       3.824   4.845  18.933  0.00  0.00    +0.000 A 
ATOM      8  N   UNL     1       4.477   3.640  19.226  0.00  0.00    +0.000 N 
ATOM      9  N   UNL     1       2.849   5.279  19.785  0.00  0.00    +0.000 NA
ATOM     10  C   UNL     1       2.153   6.409  19.492  0.00  0.00    +0.000 A 
ATOM     11  C   UNL     1       1.112   6.888  20.479  0.00  0.00    +0.000 C 
ATOM     12  C   UNL     1       1.394   8.298  21.045  0.00  0.00    +0.000 C 
ATOM     13  H   UNL     1       4.736   3.190  18.351  0.00  0.00    +0.000 HD
ENDROOT
BRANCH   6  14
ATOM     14  C   UNL     1       5.200   5.245  16.770  0.00  0.00    +0.000 C 
ATOM     15  O   UNL     1       4.822   4.386  15.964  0.00  0.00    +0.000 OA
ATOM     16  N   UNL     1       6.460   5.838  16.633  0.00  0.00    +0.000 N 
ATOM     17  C   UNL     1       7.075   6.814  17.522  0.00  0.00    +0.000 C 
ATOM     18  C   UNL     1       7.312   5.366  15.549  0.00  0.00    +0.000 C 
ENDBRANCH   6  14
BRANCH   8  19
ATOM     19  C   UNL     1       3.820   2.685  20.118  0.00  0.00    +0.000 C 
ATOM     20  C   UNL     1       2.767   1.916  19.318  0.00  0.00    +0.000 C 
ATOM     21  C   UNL     1       4.892   1.723  20.637  0.00  0.00    +0.000 C 
ENDBRANCH   8  19
BRANCH   1  22
ATOM     22  C   UNL     1       1.269  10.720  20.937  0.00  0.00    +0.000 C 
BRANCH  22  23
ATOM     23  C   UNL     1      -0.018  11.470  21.339  0.00  0.00    +0.000 C 
BRANCH  23  25
ATOM     24  C   UNL     1      -0.984  10.347  23.162  0.00  0.00    +0.000 C 
ATOM     25  O   UNL     1      -0.179  11.452  22.761  0.00  0.00    +0.000 OA
ENDBRANCH  23  25
ENDBRANCH  22  23
ENDBRANCH   1  22
TORSDOF 5
ENDMDL
MODEL 9
REMARK VINA RESULT:      -6.2      1.204      1.462
REMARK  Name = 
REMARK  10 active torsions:
REMARK  status: ('A' for Active; 'I' for Inactive)
REMARK    1  A    between atoms: C_1  and  O_2
REMARK    2  A    between atoms: O_2  and  C_3
REMARK    3  A    between atoms: C_3  and  C_4
REMARK    4  A    between atoms: C_4  and  N_5
REMARK    5  A    between atoms: C_10  and  C_11
REMARK    6  A    between atoms: N_13  and  C_14
REMARK    7  A    between atoms: N_13  and  C_15
REMARK    8  A    between atoms: N_17  and  C_18
REMARK    9  A    between atoms: C_18  and  C_19
REMARK   10  A    between atoms: C_18  and  C_20
REMARK                            x       y       z     vdW  Elec       q    Type
REMARK                         _______ _______ _______ _____ _____    ______ ____
ROOT
ATOM      1  N   UNL     1      -0.202  10.400  19.219  0.00  0.00    +0.000 NA
ATOM      2  C   UNL     1      -0.148   9.273  20.169  0.00  0.00    +0.000 C 
ATOM      3  C   UNL     1       1.251   8.940  20.683  0.00  0.00    +0.000 C 
ATOM      4  C   UNL     1       1.972   8.036  19.734  0.00  0.00    +0.000 A 
ATOM      5  C   UNL     1       2.206   6.702  20.060  0.00  0.00    +0.000 A 
ATOM      6  C   UNL     1       2.914   5.855  19.197  0.00  0.00    +0.000 A 
ATOM      7  C   UNL     1       3.439   6.418  18.026  0.00  0.00    +0.000 A 
ATOM      8  N   UNL     1       4.254   5.657  17.176  0.00  0.00    +0.000 N 
ATOM      9  N   UNL     1       3.133   7.697  17.659  0.00  0.00    +0.000 NA
ATOM     10  C   UNL     1       2.400   8.480  18.494  0.00  0.00    +0.000 A 
ATOM     11  C   UNL     1       2.038   9.875  18.037  0.00  0.00    +0.000 C 
ATOM     12  C   UNL     1       0.516  10.123  17.944  0.00  0.00    +0.000 C 
ATOM     13  H   UNL     1       4.810   5.021  17.743  0.00  0.00    +0.000 HD
ENDROOT
BRANCH   6  14
ATOM     14  C   UNL     1       3.200   4.505  19.763  0.00  0.00    +0.000 C 
ATOM     15  O   UNL     1       4.397   4.196  19.800  0.00  0.00    +0.000 OA
ATOM     16  N   UNL     1       2.229   3.635  20.272  0.00  0.00    +0.000 N 
ATOM     17  C   UNL     1       0.784   3.820  20.251  0.00  0.00    +0.000 C 
ATOM     18  C   UNL     1       2.680   2.349  20.788  0.00  0.00    +0.000 C 
ENDBRANCH   6  14
BRANCH   8  19
ATOM     19  C   UNL     1       5.102   6.354  16.209  0.00  0.00    +0.000 C 
ATOM     20  C   UNL     1       6.358   6.848  16.929  0.00  0.00    +0.000 C 
ATOM     21  C   UNL     1       5.482   5.349  15.119  0.00  0.00    +0.000 C 
ENDBRANCH   8  19
BRANCH   1  22
ATOM     22  C   UNL     1      -1.624  10.734  18.913  0.00  0.00    +0.000 C 
BRANCH  22  23
ATOM     23  C   UNL     1      -2.014  12.202  19.184  0.00  0.00    +0.000 C 
BRANCH  23  25
ATOM     24  C   UNL     1      -0.450  13.831  18.535  0.00  0.00    +0.000 C 
ATOM     25  O   UNL     1      -0.864  12.956  19.581  0.00  0.00    +0.000 OA
ENDBRANCH  23  25
ENDBRANCH  22  23
ENDBRANCH   1  22
TORSDOF 5
ENDMDL
