MODEL 1
REMARK VINA RESULT:      -9.2      0.000      0.000
REMARK  Name = 
REMARK  7 active torsions:
REMARK  status: ('A' for Active; 'I' for Inactive)
REMARK    1  A    between atoms: C_1  and  C_2
REMARK    2  A    between atoms: C_2  and  N_3
REMARK    3  A    between atoms: C_4  and  C_6
REMARK    4  A    between atoms: C_16  and  N_17
REMARK    5  A    between atoms: N_17  and  C_18
REMARK    6  A    between atoms: C_21  and  C_22
REMARK    7  A    between atoms: C_22  and  N_23
REMARK                            x       y       z     vdW  Elec       q    Type
REMARK                         _______ _______ _______ _____ _____    ______ ____
ROOT
ATOM      1  C   UNL     1       5.213   5.232  16.147  0.00  0.00    +0.000 A 
ATOM      2  C   UNL     1       5.076   6.631  16.276  0.00  0.00    +0.000 A 
ATOM      3  C   UNL     1       4.222   7.188  17.241  0.00  0.00    +0.000 A 
ATOM      4  C   UNL     1       3.542   6.320  18.078  0.00  0.00    +0.000 A 
ATOM      5  C   UNL     1       3.675   4.932  17.923  0.00  0.00    +0.000 A 
ATOM      6  C   UNL     1       4.486   4.364  16.971  0.00  0.00    +0.000 A 
ATOM      7  N   UNL     1       2.922   4.247  18.868  0.00  0.00    +0.000 N 
ATOM      8  C   UNL     1       2.258   5.119  19.711  0.00  0.00    +0.000 C 
ATOM      9  O   UNL     1       1.535   4.838  20.649  0.00  0.00    +0.000 OA
ATOM     10  C   UNL     1       2.629   6.486  19.215  0.00  0.00    +0.000 C 
ATOM     11  C   UNL     1       2.184   7.600  19.800  0.00  0.00    +0.000 C 
ATOM     12  H   UNL     1       2.874   3.246  18.966  0.00  0.00    +0.000 HD
ENDROOT
BRANCH   1  14
ATOM     13  N   UNL     1       5.541   4.250  13.942  0.00  0.00    +0.000 N 
ATOM     14  C   UNL     1       6.111   4.598  15.145  0.00  0.00    +0.000 C 
ATOM     15  O   UNL     1       7.297   4.448  15.405  0.00  0.00    +0.000 OA
ATOM     16  H   UNL     1       4.617   4.589  13.706  0.00  0.00    +0.000 HD
BRANCH  13  18
ATOM     17  C   UNL     1       5.549   2.793  11.965  0.00  0.00    +0.000 C 
ATOM     18  C   UNL     1       6.354   3.701  12.876  0.00  0.00    +0.000 C 
ENDBRANCH  13  18
ENDBRANCH   1  14
BRANCH  11  19
ATOM     19  N   UNL     1       1.332   7.664  20.875  0.00  0.00    +0.000 N 
ATOM     20  H   UNL     1       1.221   6.792  21.405  0.00  0.00    +0.000 HD
BRANCH  19  21
ATOM     21  C   UNL     1       0.657   8.779  21.387  0.00  0.00    +0.000 A 
ATOM     22  C   UNL     1       0.518   9.915  20.585  0.00  0.00    +0.000 A 
ATOM     23  C   UNL     1      -0.127  11.061  21.059  0.00  0.00    +0.000 A 
ATOM     24  C   UNL     1      -0.655  11.094  22.357  0.00  0.00    +0.000 A 
ATOM     25  C   UNL     1      -0.471   9.984  23.182  0.00  0.00    +0.000 A 
ATOM     26  C   UNL     1       0.182   8.840  22.701  0.00  0.00    +0.000 A 
BRANCH  24  27
ATOM     27  C   UNL     1      -1.418  12.311  22.840  0.00  0.00    +0.000 C 
BRANCH  27  28
ATOM     28  N   UNL     1      -2.891  12.137  22.862  0.00  0.00    +0.000 NA
ATOM     29  C   UNL     1      -3.462  12.581  24.144  0.00  0.00    +0.000 C 
ATOM     30  C   UNL     1      -4.990  12.676  24.157  0.00  0.00    +0.000 C 
ATOM     31  C   UNL     1      -5.507  13.488  22.982  0.00  0.00    +0.000 C 
ATOM     32  C   UNL     1      -5.011  12.870  21.688  0.00  0.00    +0.000 C 
ATOM     33  C   UNL     1      -3.483  12.759  21.667  0.00  0.00    +0.000 C 
ENDBRANCH  27  28
ENDBRANCH  24  27
ENDBRANCH  19  21
ENDBRANCH  11  19
TORSDOF 6
ENDMDL
MODEL 2
REMARK VINA RESULT:      -8.5      1.034      1.486
REMARK  Name = 
REMARK  7 active torsions:
REMARK  status: ('A' for Active; 'I' for Inactive)
REMARK    1  A    between atoms: C_1  and  C_2
REMARK    2  A    between atoms: C_2  and  N_3
REMARK    3  A    between atoms: C_4  and  C_6
REMARK    4  A    between atoms: C_16  and  N_17
REMARK    5  A    between atoms: N_17  and  C_18
REMARK    6  A    between atoms: C_21  and  C_22
REMARK    7  A    between atoms: C_22  and  N_23
REMARK                            x       y       z     vdW  Elec       q    Type
REMARK                         _______ _______ _______ _____ _____    ______ ____
ROOT
ATOM      1  C   UNL     1       5.056   5.065  16.252  0.00  0.00    +0.000 A 
ATOM      2  C   UNL     1       4.980   6.475  16.280  0.00  0.00    +0.000 A 
ATOM      3  C   UNL     1       4.148   7.134  17.199  0.00  0.00    +0.000 A 
ATOM      4  C   UNL     1       3.430   6.358  18.093  0.00  0.00    +0.000 A 
ATOM      5  C   UNL     1       3.503   4.959  18.037  0.00  0.00    +0.000 A 
ATOM      6  C   UNL     1       4.291   4.290  17.132  0.00  0.00    +0.000 A 
ATOM      7  N   UNL     1       2.720   4.376  19.025  0.00  0.00    +0.000 N 
ATOM      8  C   UNL     1       2.093   5.334  19.800  0.00  0.00    +0.000 C 
ATOM      9  O   UNL     1       1.356   5.151  20.752  0.00  0.00    +0.000 OA
ATOM     10  C   UNL     1       2.523   6.644  19.210  0.00  0.00    +0.000 C 
ATOM     11  C   UNL     1       2.125   7.816  19.712  0.00  0.00    +0.000 C 
ATOM     12  H   UNL     1       2.628   3.388  19.194  0.00  0.00    +0.000 HD
ENDROOT
BRANCH   1  14
ATOM     13  N   UNL     1       5.459   4.187  14.015  0.00  0.00    +0.000 N 
ATOM     14  C   UNL     1       5.928   4.323  15.302  0.00  0.00    +0.000 C 
ATOM     15  O   UNL     1       7.015   3.907  15.678  0.00  0.00    +0.000 OA
ATOM     16  H   UNL     1       4.661   4.730  13.711  0.00  0.00    +0.000 HD
BRANCH  13  18
ATOM     17  C   UNL     1       5.428   2.968  11.884  0.00  0.00    +0.000 C 
ATOM     18  C   UNL     1       6.274   3.551  13.001  0.00  0.00    +0.000 C 
ENDBRANCH  13  18
ENDBRANCH   1  14
BRANCH  11  19
ATOM     19  N   UNL     1       1.275   7.992  20.776  0.00  0.00    +0.000 N 
ATOM     20  H   UNL     1       1.270   7.236  21.470  0.00  0.00    +0.000 HD
BRANCH  19  21
ATOM     21  C   UNL     1       0.473   9.101  21.075  0.00  0.00    +0.000 A 
ATOM     22  C   UNL     1      -0.035   9.874  20.028  0.00  0.00    +0.000 A 
ATOM     23  C   UNL     1      -0.820  11.004  20.277  0.00  0.00    +0.000 A 
ATOM     24  C   UNL     1      -1.121  11.384  21.592  0.00  0.00    +0.000 A 
ATOM     25  C   UNL     1      -0.572  10.649  22.643  0.00  0.00    +0.000 A 
ATOM     26  C   UNL     1       0.220   9.521  22.385  0.00  0.00    +0.000 A 
BRANCH  24  27
ATOM     27  C   UNL     1      -2.034  12.565  21.854  0.00  0.00    +0.000 C 
BRANCH  27  28
ATOM     28  N   UNL     1      -2.069  13.005  23.270  0.00  0.00    +0.000 NA
ATOM     29  C   UNL     1      -1.316  14.256  23.460  0.00  0.00    +0.000 C 
ATOM     30  C   UNL     1      -1.514  14.912  24.828  0.00  0.00    +0.000 C 
ATOM     31  C   UNL     1      -2.988  15.069  25.162  0.00  0.00    +0.000 C 
ATOM     32  C   UNL     1      -3.662  13.710  25.107  0.00  0.00    +0.000 C 
ATOM     33  C   UNL     1      -3.462  13.038  23.746  0.00  0.00    +0.000 C 
ENDBRANCH  27  28
ENDBRANCH  24  27
ENDBRANCH  19  21
ENDBRANCH  11  19
TORSDOF 6
ENDMDL
MODEL 3
REMARK VINA RESULT:      -8.4      1.583      2.384
REMARK  Name = 
REMARK  7 active torsions:
REMARK  status: ('A' for Active; 'I' for Inactive)
REMARK    1  A    between atoms: C_1  and  C_2
REMARK    2  A    between atoms: C_2  and  N_3
REMARK    3  A    between atoms: C_4  and  C_6
REMARK    4  A    between atoms: C_16  and  N_17
REMARK    5  A    between atoms: N_17  and  C_18
REMARK    6  A    between atoms: C_21  and  C_22
REMARK    7  A    between atoms: C_22  and  N_23
REMARK                            x       y       z     vdW  Elec       q    Type
REMARK                         _______ _______ _______ _____ _____    ______ ____
ROOT
ATOM      1  C   UNL     1       5.421   5.368  15.568  0.00  0.00    +0.000 A 
ATOM      2  C   UNL     1       5.071   6.735  15.607  0.00  0.00    +0.000 A 
ATOM      3  C   UNL     1       4.244   7.241  16.623  0.00  0.00    +0.000 A 
ATOM      4  C   UNL     1       3.810   6.360  17.599  0.00  0.00    +0.000 A 
ATOM      5  C   UNL     1       4.152   5.002  17.534  0.00  0.00    +0.000 A 
ATOM      6  C   UNL     1       4.939   4.479  16.537  0.00  0.00    +0.000 A 
ATOM      7  N   UNL     1       3.627   4.300  18.612  0.00  0.00    +0.000 N 
ATOM      8  C   UNL     1       2.923   5.134  19.460  0.00  0.00    +0.000 C 
ATOM      9  O   UNL     1       2.361   4.834  20.497  0.00  0.00    +0.000 OA
ATOM     10  C   UNL     1       3.009   6.489  18.821  0.00  0.00    +0.000 C 
ATOM     11  C   UNL     1       2.451   7.572  19.370  0.00  0.00    +0.000 C 
ATOM     12  H   UNL     1       3.755   3.318  18.791  0.00  0.00    +0.000 HD
ENDROOT
BRANCH   1  14
ATOM     13  N   UNL     1       5.702   3.930  13.621  0.00  0.00    +0.000 N 
ATOM     14  C   UNL     1       6.299   4.789  14.516  0.00  0.00    +0.000 C 
ATOM     15  O   UNL     1       7.476   5.118  14.462  0.00  0.00    +0.000 OA
ATOM     16  H   UNL     1       4.693   3.863  13.585  0.00  0.00    +0.000 HD
BRANCH  13  18
ATOM     17  C   UNL     1       5.600   2.493  11.633  0.00  0.00    +0.000 C 
ATOM     18  C   UNL     1       6.459   3.381  12.515  0.00  0.00    +0.000 C 
ENDBRANCH  13  18
ENDBRANCH   1  14
BRANCH  11  19
ATOM     19  N   UNL     1       1.721   7.603  20.532  0.00  0.00    +0.000 N 
ATOM     20  H   UNL     1       1.805   6.774  21.132  0.00  0.00    +0.000 HD
BRANCH  19  21
ATOM     21  C   UNL     1       0.939   8.648  21.041  0.00  0.00    +0.000 A 
ATOM     22  C   UNL     1       0.873   8.834  22.425  0.00  0.00    +0.000 A 
ATOM     23  C   UNL     1       0.087   9.848  22.981  0.00  0.00    +0.000 A 
ATOM     24  C   UNL     1      -0.653  10.708  22.157  0.00  0.00    +0.000 A 
ATOM     25  C   UNL     1      -0.634  10.492  20.778  0.00  0.00    +0.000 A 
ATOM     26  C   UNL     1       0.152   9.470  20.229  0.00  0.00    +0.000 A 
BRANCH  24  27
ATOM     27  C   UNL     1      -1.442  11.851  22.761  0.00  0.00    +0.000 C 
BRANCH  27  28
ATOM     28  N   UNL     1      -0.627  13.044  23.096  0.00  0.00    +0.000 NA
ATOM     29  C   UNL     1       0.089  13.551  21.914  0.00  0.00    +0.000 C 
ATOM     30  C   UNL     1       0.744  14.920  22.109  0.00  0.00    +0.000 C 
ATOM     31  C   UNL     1      -0.241  15.934  22.666  0.00  0.00    +0.000 C 
ATOM     32  C   UNL     1      -0.813  15.412  23.972  0.00  0.00    +0.000 C 
ATOM     33  C   UNL     1      -1.463  14.037  23.791  0.00  0.00    +0.000 C 
ENDBRANCH  27  28
ENDBRANCH  24  27
ENDBRANCH  19  21
ENDBRANCH  11  19
TORSDOF 6
ENDMDL
MODEL 4
REMARK VINA RESULT:      -8.4      1.199      1.723
REMARK  Name = 
REMARK  7 active torsions:
REMARK  status: ('A' for Active; 'I' for Inactive)
REMARK    1  A    between atoms: C_1  and  C_2
REMARK    2  A    between atoms: C_2  and  N_3
REMARK    3  A    between atoms: C_4  and  C_6
REMARK    4  A    between atoms: C_16  and  N_17
REMARK    5  A    between atoms: N_17  and  C_18
REMARK    6  A    between atoms: C_21  and  C_22
REMARK    7  A    between atoms: C_22  and  N_23
REMARK                            x       y       z     vdW  Elec       q    Type
REMARK                         _______ _______ _______ _____ _____    ______ ____
ROOT
ATOM      1  C   UNL     1       5.270   5.298  15.977  0.00  0.00    +0.000 A 
ATOM      2  C   UNL     1       5.047   6.688  16.079  0.00  0.00    +0.000 A 
ATOM      3  C   UNL     1       4.207   7.213  17.073  0.00  0.00    +0.000 A 
ATOM      4  C   UNL     1       3.631   6.326  17.966  0.00  0.00    +0.000 A 
ATOM      5  C   UNL     1       3.848   4.946  17.838  0.00  0.00    +0.000 A 
ATOM      6  C   UNL     1       4.646   4.407  16.859  0.00  0.00    +0.000 A 
ATOM      7  N   UNL     1       3.192   4.239  18.838  0.00  0.00    +0.000 N 
ATOM      8  C   UNL     1       2.515   5.089  19.693  0.00  0.00    +0.000 C 
ATOM      9  O   UNL     1       1.861   4.787  20.674  0.00  0.00    +0.000 OA
ATOM     10  C   UNL     1       2.767   6.463  19.145  0.00  0.00    +0.000 C 
ATOM     11  C   UNL     1       2.278   7.562  19.725  0.00  0.00    +0.000 C 
ATOM     12  H   UNL     1       3.217   3.241  18.962  0.00  0.00    +0.000 HD
ENDROOT
BRANCH   1  14
ATOM     13  N   UNL     1       5.536   4.123  13.858  0.00  0.00    +0.000 N 
ATOM     14  C   UNL     1       6.157   4.696  14.945  0.00  0.00    +0.000 C 
ATOM     15  O   UNL     1       7.372   4.765  15.076  0.00  0.00    +0.000 OA
ATOM     16  H   UNL     1       4.549   4.283  13.701  0.00  0.00    +0.000 HD
BRANCH  13  18
ATOM     17  C   UNL     1       5.474   2.732  11.835  0.00  0.00    +0.000 C 
ATOM     18  C   UNL     1       6.319   3.585  12.765  0.00  0.00    +0.000 C 
ENDBRANCH  13  18
ENDBRANCH   1  14
BRANCH  11  19
ATOM     19  N   UNL     1       1.481   7.598  20.842  0.00  0.00    +0.000 N 
ATOM     20  H   UNL     1       1.425   6.724  21.376  0.00  0.00    +0.000 HD
BRANCH  19  21
ATOM     21  C   UNL     1       0.796   8.692  21.387  0.00  0.00    +0.000 A 
ATOM     22  C   UNL     1       0.875   9.931  20.745  0.00  0.00    +0.000 A 
ATOM     23  C   UNL     1       0.228  11.057  21.263  0.00  0.00    +0.000 A 
ATOM     24  C   UNL     1      -0.522  10.965  22.444  0.00  0.00    +0.000 A 
ATOM     25  C   UNL     1      -0.560   9.745  23.119  0.00  0.00    +0.000 A 
ATOM     26  C   UNL     1       0.096   8.622  22.596  0.00  0.00    +0.000 A 
BRANCH  24  27
ATOM     27  C   UNL     1      -1.282  12.170  22.959  0.00  0.00    +0.000 C 
BRANCH  27  28
ATOM     28  N   UNL     1      -1.394  13.283  21.985  0.00  0.00    +0.000 NA
ATOM     29  C   UNL     1      -2.801  13.580  21.671  0.00  0.00    +0.000 C 
ATOM     30  C   UNL     1      -3.014  14.872  20.878  0.00  0.00    +0.000 C 
ATOM     31  C   UNL     1      -2.308  16.048  21.531  0.00  0.00    +0.000 C 
ATOM     32  C   UNL     1      -0.830  15.731  21.670  0.00  0.00    +0.000 C 
ATOM     33  C   UNL     1      -0.604  14.434  22.453  0.00  0.00    +0.000 C 
ENDBRANCH  27  28
ENDBRANCH  24  27
ENDBRANCH  19  21
ENDBRANCH  11  19
TORSDOF 6
ENDMDL
MODEL 5
REMARK VINA RESULT:      -8.3      0.591      1.433
REMARK  Name = 
REMARK  7 active torsions:
REMARK  status: ('A' for Active; 'I' for Inactive)
REMARK    1  A    between atoms: C_1  and  C_2
REMARK    2  A    between atoms: C_2  and  N_3
REMARK    3  A    between atoms: C_4  and  C_6
REMARK    4  A    between atoms: C_16  and  N_17
REMARK    5  A    between atoms: N_17  and  C_18
REMARK    6  A    between atoms: C_21  and  C_22
REMARK    7  A    between atoms: C_22  and  N_23
REMARK                            x       y       z     vdW  Elec       q    Type
REMARK                         _______ _______ _______ _____ _____    ______ ____
ROOT
ATOM      1  C   UNL     1       5.170   5.348  16.129  0.00  0.00    +0.000 A 
ATOM      2  C   UNL     1       5.112   6.751  16.273  0.00  0.00    +0.000 A 
ATOM      3  C   UNL     1       4.276   7.345  17.232  0.00  0.00    +0.000 A 
ATOM      4  C   UNL     1       3.534   6.508  18.048  0.00  0.00    +0.000 A 
ATOM      5  C   UNL     1       3.589   5.116  17.878  0.00  0.00    +0.000 A 
ATOM      6  C   UNL     1       4.382   4.514  16.931  0.00  0.00    +0.000 A 
ATOM      7  N   UNL     1       2.784   4.465  18.803  0.00  0.00    +0.000 N 
ATOM      8  C   UNL     1       2.158   5.364  19.646  0.00  0.00    +0.000 C 
ATOM      9  O   UNL     1       1.405   5.114  20.569  0.00  0.00    +0.000 OA
ATOM     10  C   UNL     1       2.614   6.713  19.173  0.00  0.00    +0.000 C 
ATOM     11  C   UNL     1       2.225   7.844  19.765  0.00  0.00    +0.000 C 
ATOM     12  H   UNL     1       2.676   3.468  18.887  0.00  0.00    +0.000 HD
ENDROOT
BRANCH   1  14
ATOM     13  N   UNL     1       5.425   4.152  14.022  0.00  0.00    +0.000 N 
ATOM     14  C   UNL     1       6.046   4.675  15.133  0.00  0.00    +0.000 C 
ATOM     15  O   UNL     1       7.256   4.645  15.313  0.00  0.00    +0.000 OA
ATOM     16  H   UNL     1       4.461   4.391  13.825  0.00  0.00    +0.000 HD
BRANCH  13  18
ATOM     17  C   UNL     1       5.333   3.133  11.789  0.00  0.00    +0.000 C 
ATOM     18  C   UNL     1       6.205   3.549  12.960  0.00  0.00    +0.000 C 
ENDBRANCH  13  18
ENDBRANCH   1  14
BRANCH  11  19
ATOM     19  N   UNL     1       1.361   7.944  20.828  0.00  0.00    +0.000 N 
ATOM     20  H   UNL     1       1.205   7.078  21.355  0.00  0.00    +0.000 HD
BRANCH  19  21
ATOM     21  C   UNL     1       0.728   9.088  21.331  0.00  0.00    +0.000 A 
ATOM     22  C   UNL     1       0.031   9.002  22.539  0.00  0.00    +0.000 A 
ATOM     23  C   UNL     1      -0.637  10.109  23.069  0.00  0.00    +0.000 A 
ATOM     24  C   UNL     1      -0.618  11.340  22.397  0.00  0.00    +0.000 A 
ATOM     25  C   UNL     1       0.029  11.418  21.164  0.00  0.00    +0.000 A 
ATOM     26  C   UNL     1       0.691  10.301  20.636  0.00  0.00    +0.000 A 
BRANCH  24  27
ATOM     27  C   UNL     1      -1.281  12.555  23.014  0.00  0.00    +0.000 C 
BRANCH  27  28
ATOM     28  N   UNL     1      -2.437  13.076  22.244  0.00  0.00    +0.000 NA
ATOM     29  C   UNL     1      -2.551  12.410  20.936  0.00  0.00    +0.000 C 
ATOM     30  C   UNL     1      -3.855  12.700  20.190  0.00  0.00    +0.000 C 
ATOM     31  C   UNL     1      -5.067  12.453  21.071  0.00  0.00    +0.000 C 
ATOM     32  C   UNL     1      -4.957  13.301  22.326  0.00  0.00    +0.000 C 
ATOM     33  C   UNL     1      -3.650  13.027  23.076  0.00  0.00    +0.000 C 
ENDBRANCH  27  28
ENDBRANCH  24  27
ENDBRANCH  19  21
ENDBRANCH  11  19
TORSDOF 6
ENDMDL
MODEL 6
REMARK VINA RESULT:      -8.2      1.425      2.154
REMARK  Name = 
REMARK  7 active torsions:
REMARK  status: ('A' for Active; 'I' for Inactive)
REMARK    1  A    between atoms: C_1  and  C_2
REMARK    2  A    between atoms: C_2  and  N_3
REMARK    3  A    between atoms: C_4  and  C_6
REMARK    4  A    between atoms: C_16  and  N_17
REMARK    5  A    between atoms: N_17  and  C_18
REMARK    6  A    between atoms: C_21  and  C_22
REMARK    7  A    between atoms: C_22  and  N_23
REMARK                            x       y       z     vdW  Elec       q    Type
REMARK                         _______ _______ _______ _____ _____    ______ ____
ROOT
ATOM      1  C   UNL     1       5.228   5.307  16.175  0.00  0.00    +0.000 A 
ATOM      2  C   UNL     1       5.041   6.705  16.232  0.00  0.00    +0.000 A 
ATOM      3  C   UNL     1       4.198   7.282  17.194  0.00  0.00    +0.000 A 
ATOM      4  C   UNL     1       3.579   6.438  18.100  0.00  0.00    +0.000 A 
ATOM      5  C   UNL     1       3.761   5.049  18.017  0.00  0.00    +0.000 A 
ATOM      6  C   UNL     1       4.563   4.460  17.070  0.00  0.00    +0.000 A 
ATOM      7  N   UNL     1       3.066   4.391  19.023  0.00  0.00    +0.000 N 
ATOM      8  C   UNL     1       2.397   5.284  19.839  0.00  0.00    +0.000 C 
ATOM      9  O   UNL     1       1.716   5.029  20.815  0.00  0.00    +0.000 OA
ATOM     10  C   UNL     1       2.697   6.633  19.256  0.00  0.00    +0.000 C 
ATOM     11  C   UNL     1       2.228   7.762  19.794  0.00  0.00    +0.000 C 
ATOM     12  H   UNL     1       3.060   3.396  19.178  0.00  0.00    +0.000 HD
ENDROOT
BRANCH   1  14
ATOM     13  N   UNL     1       5.523   4.213  14.018  0.00  0.00    +0.000 N 
ATOM     14  C   UNL     1       6.117   4.651  15.179  0.00  0.00    +0.000 C 
ATOM     15  O   UNL     1       7.317   4.562  15.404  0.00  0.00    +0.000 OA
ATOM     16  H   UNL     1       4.578   4.501  13.797  0.00  0.00    +0.000 HD
BRANCH  13  18
ATOM     17  C   UNL     1       5.463   2.907  11.939  0.00  0.00    +0.000 C 
ATOM     18  C   UNL     1       6.322   3.635  12.957  0.00  0.00    +0.000 C 
ENDBRANCH  13  18
ENDBRANCH   1  14
BRANCH  11  19
ATOM     19  N   UNL     1       1.410   7.854  20.893  0.00  0.00    +0.000 N 
ATOM     20  H   UNL     1       1.457   7.065  21.548  0.00  0.00    +0.000 HD
BRANCH  19  21
ATOM     21  C   UNL     1       0.580   8.915  21.274  0.00  0.00    +0.000 A 
ATOM     22  C   UNL     1       0.153   9.825  20.303  0.00  0.00    +0.000 A 
ATOM     23  C   UNL     1      -0.657  10.914  20.638  0.00  0.00    +0.000 A 
ATOM     24  C   UNL     1      -1.065  11.115  21.964  0.00  0.00    +0.000 A 
ATOM     25  C   UNL     1      -0.598  10.242  22.947  0.00  0.00    +0.000 A 
ATOM     26  C   UNL     1       0.219   9.156  22.604  0.00  0.00    +0.000 A 
BRANCH  24  27
ATOM     27  C   UNL     1      -2.004  12.253  22.309  0.00  0.00    +0.000 C 
BRANCH  27  28
ATOM     28  N   UNL     1      -1.516  13.592  21.896  0.00  0.00    +0.000 NA
ATOM     29  C   UNL     1      -0.125  13.809  22.325  0.00  0.00    +0.000 C 
ATOM     30  C   UNL     1       0.536  15.051  21.723  0.00  0.00    +0.000 C 
ATOM     31  C   UNL     1       0.387  15.083  20.211  0.00  0.00    +0.000 C 
ATOM     32  C   UNL     1      -1.087  15.022  19.852  0.00  0.00    +0.000 C 
ATOM     33  C   UNL     1      -1.763  13.789  20.458  0.00  0.00    +0.000 C 
ENDBRANCH  27  28
ENDBRANCH  24  27
ENDBRANCH  19  21
ENDBRANCH  11  19
TORSDOF 6
ENDMDL
MODEL 7
REMARK VINA RESULT:      -7.9      3.745     11.192
REMARK  Name = 
REMARK  7 active torsions:
REMARK  status: ('A' for Active; 'I' for Inactive)
REMARK    1  A    between atoms: C_1  and  C_2
REMARK    2  A    between atoms: C_2  and  N_3
REMARK    3  A    between atoms: C_4  and  C_6
REMARK    4  A    between atoms: C_16  and  N_17
REMARK    5  A    between atoms: N_17  and  C_18
REMARK    6  A    between atoms: C_21  and  C_22
REMARK    7  A    between atoms: C_22  and  N_23
REMARK                            x       y       z     vdW  Elec       q    Type
REMARK                         _______ _______ _______ _____ _____    ______ ____
ROOT
ATOM      1  C   UNL     1      -4.441  11.722  17.920  0.00  0.00    +0.000 A 
ATOM      2  C   UNL     1      -3.900  10.973  16.853  0.00  0.00    +0.000 A 
ATOM      3  C   UNL     1      -2.578  10.503  16.898  0.00  0.00    +0.000 A 
ATOM      4  C   UNL     1      -1.835  10.775  18.034  0.00  0.00    +0.000 A 
ATOM      5  C   UNL     1      -2.382  11.538  19.076  0.00  0.00    +0.000 A 
ATOM      6  C   UNL     1      -3.665  12.028  19.044  0.00  0.00    +0.000 A 
ATOM      7  N   UNL     1      -1.478  11.681  20.121  0.00  0.00    +0.000 N 
ATOM      8  C   UNL     1      -0.292  11.023  19.854  0.00  0.00    +0.000 C 
ATOM      9  O   UNL     1       0.688  10.943  20.570  0.00  0.00    +0.000 OA
ATOM     10  C   UNL     1      -0.483  10.430  18.489  0.00  0.00    +0.000 C 
ATOM     11  C   UNL     1       0.460   9.696  17.893  0.00  0.00    +0.000 C 
ATOM     12  H   UNL     1      -1.652  12.170  20.983  0.00  0.00    +0.000 HD
ENDROOT
BRANCH   1  14
ATOM     13  N   UNL     1      -6.046  13.455  17.321  0.00  0.00    +0.000 N 
ATOM     14  C   UNL     1      -5.838  12.233  17.920  0.00  0.00    +0.000 C 
ATOM     15  O   UNL     1      -6.732  11.552  18.404  0.00  0.00    +0.000 OA
ATOM     16  H   UNL     1      -5.315  13.869  16.756  0.00  0.00    +0.000 HD
BRANCH  13  18
ATOM     17  C   UNL     1      -7.659  15.054  18.256  0.00  0.00    +0.000 C 
ATOM     18  C   UNL     1      -7.384  13.995  17.202  0.00  0.00    +0.000 C 
ENDBRANCH  13  18
ENDBRANCH   1  14
BRANCH  11  19
ATOM     19  N   UNL     1       1.704   9.413  18.401  0.00  0.00    +0.000 N 
ATOM     20  H   UNL     1       2.224  10.215  18.774  0.00  0.00    +0.000 HD
BRANCH  19  21
ATOM     21  C   UNL     1       2.321   8.164  18.546  0.00  0.00    +0.000 A 
ATOM     22  C   UNL     1       2.050   7.400  19.685  0.00  0.00    +0.000 A 
ATOM     23  C   UNL     1       2.660   6.158  19.885  0.00  0.00    +0.000 A 
ATOM     24  C   UNL     1       3.559   5.647  18.939  0.00  0.00    +0.000 A 
ATOM     25  C   UNL     1       3.875   6.428  17.827  0.00  0.00    +0.000 A 
ATOM     26  C   UNL     1       3.264   7.675  17.636  0.00  0.00    +0.000 A 
BRANCH  24  27
ATOM     27  C   UNL     1       4.158   4.267  19.125  0.00  0.00    +0.000 C 
BRANCH  27  28
ATOM     28  N   UNL     1       5.208   3.921  18.135  0.00  0.00    +0.000 NA
ATOM     29  C   UNL     1       4.682   3.965  16.761  0.00  0.00    +0.000 C 
ATOM     30  C   UNL     1       5.752   3.874  15.670  0.00  0.00    +0.000 C 
ATOM     31  C   UNL     1       6.864   4.884  15.896  0.00  0.00    +0.000 C 
ATOM     32  C   UNL     1       7.468   4.666  17.272  0.00  0.00    +0.000 C 
ATOM     33  C   UNL     1       6.404   4.745  18.371  0.00  0.00    +0.000 C 
ENDBRANCH  27  28
ENDBRANCH  24  27
ENDBRANCH  19  21
ENDBRANCH  11  19
TORSDOF 6
ENDMDL
MODEL 8
REMARK VINA RESULT:      -7.8      3.964     10.726
REMARK  Name = 
REMARK  7 active torsions:
REMARK  status: ('A' for Active; 'I' for Inactive)
REMARK    1  A    between atoms: C_1  and  C_2
REMARK    2  A    between atoms: C_2  and  N_3
REMARK    3  A    between atoms: C_4  and  C_6
REMARK    4  A    between atoms: C_16  and  N_17
REMARK    5  A    between atoms: N_17  and  C_18
REMARK    6  A    between atoms: C_21  and  C_22
REMARK    7  A    between atoms: C_22  and  N_23
REMARK                            x       y       z     vdW  Elec       q    Type
REMARK                         _______ _______ _______ _____ _____    ______ ____
ROOT
ATOM      1  C   UNL     1      -4.660  11.722  18.744  0.00  0.00    +0.000 A 
ATOM      2  C   UNL     1      -4.416  10.733  17.767  0.00  0.00    +0.000 A 
ATOM      3  C   UNL     1      -3.113  10.278  17.511  0.00  0.00    +0.000 A 
ATOM      4  C   UNL     1      -2.083  10.810  18.267  0.00  0.00    +0.000 A 
ATOM      5  C   UNL     1      -2.342  11.807  19.220  0.00  0.00    +0.000 A 
ATOM      6  C   UNL     1      -3.605  12.285  19.472  0.00  0.00    +0.000 A 
ATOM      7  N   UNL     1      -1.178  12.192  19.873  0.00  0.00    +0.000 N 
ATOM      8  C   UNL     1      -0.085  11.479  19.415  0.00  0.00    +0.000 C 
ATOM      9  O   UNL     1       1.068  11.567  19.793  0.00  0.00    +0.000 OA
ATOM     10  C   UNL     1      -0.637  10.575  18.352  0.00  0.00    +0.000 C 
ATOM     11  C   UNL     1       0.131   9.712  17.683  0.00  0.00    +0.000 C 
ATOM     12  H   UNL     1      -1.117  12.876  20.609  0.00  0.00    +0.000 HD
ENDROOT
BRANCH   1  14
ATOM     13  N   UNL     1      -6.405  12.197  20.377  0.00  0.00    +0.000 N 
ATOM     14  C   UNL     1      -6.024  12.229  19.055  0.00  0.00    +0.000 C 
ATOM     15  O   UNL     1      -6.722  12.679  18.156  0.00  0.00    +0.000 OA
ATOM     16  H   UNL     1      -5.715  12.016  21.095  0.00  0.00    +0.000 HD
BRANCH  13  18
ATOM     17  C   UNL     1      -7.534  14.130  21.387  0.00  0.00    +0.000 C 
ATOM     18  C   UNL     1      -7.682  12.744  20.786  0.00  0.00    +0.000 C 
ENDBRANCH  13  18
ENDBRANCH   1  14
BRANCH  11  19
ATOM     19  N   UNL     1       1.486   9.549  17.835  0.00  0.00    +0.000 N 
ATOM     20  H   UNL     1       2.050  10.399  17.720  0.00  0.00    +0.000 HD
BRANCH  19  21
ATOM     21  C   UNL     1       2.189   8.394  18.201  0.00  0.00    +0.000 A 
ATOM     22  C   UNL     1       1.940   7.815  19.449  0.00  0.00    +0.000 A 
ATOM     23  C   UNL     1       2.634   6.676  19.868  0.00  0.00    +0.000 A 
ATOM     24  C   UNL     1       3.596   6.084  19.039  0.00  0.00    +0.000 A 
ATOM     25  C   UNL     1       3.888   6.688  17.816  0.00  0.00    +0.000 A 
ATOM     26  C   UNL     1       3.193   7.834  17.405  0.00  0.00    +0.000 A 
BRANCH  24  27
ATOM     27  C   UNL     1       4.289   4.806  19.467  0.00  0.00    +0.000 C 
BRANCH  27  28
ATOM     28  N   UNL     1       3.387   3.636  19.593  0.00  0.00    +0.000 NA
ATOM     29  C   UNL     1       2.517   3.756  20.774  0.00  0.00    +0.000 C 
ATOM     30  C   UNL     1       1.386   2.726  20.835  0.00  0.00    +0.000 C 
ATOM     31  C   UNL     1       0.597   2.688  19.538  0.00  0.00    +0.000 C 
ATOM     32  C   UNL     1       1.541   2.394  18.385  0.00  0.00    +0.000 C 
ATOM     33  C   UNL     1       2.683   3.413  18.320  0.00  0.00    +0.000 C 
ENDBRANCH  27  28
ENDBRANCH  24  27
ENDBRANCH  19  21
ENDBRANCH  11  19
TORSDOF 6
ENDMDL
MODEL 9
REMARK VINA RESULT:      -7.7      2.525      4.643
REMARK  Name = 
REMARK  7 active torsions:
REMARK  status: ('A' for Active; 'I' for Inactive)
REMARK    1  A    between atoms: C_1  and  C_2
REMARK    2  A    between atoms: C_2  and  N_3
REMARK    3  A    between atoms: C_4  and  C_6
REMARK    4  A    between atoms: C_16  and  N_17
REMARK    5  A    between atoms: N_17  and  C_18
REMARK    6  A    between atoms: C_21  and  C_22
REMARK    7  A    between atoms: C_22  and  N_23
REMARK                            x       y       z     vdW  Elec       q    Type
REMARK                         _______ _______ _______ _____ _____    ______ ____
ROOT
ATOM      1  C   UNL     1       2.606   7.077  18.468  0.00  0.00    +0.000 A 
ATOM      2  C   UNL     1       2.182   8.206  17.735  0.00  0.00    +0.000 A 
ATOM      3  C   UNL     1       1.525   9.273  18.367  0.00  0.00    +0.000 A 
ATOM      4  C   UNL     1       1.332   9.193  19.736  0.00  0.00    +0.000 A 
ATOM      5  C   UNL     1       1.742   8.054  20.446  0.00  0.00    +0.000 A 
ATOM      6  C   UNL     1       2.365   6.988  19.845  0.00  0.00    +0.000 A 
ATOM      7  N   UNL     1       1.468   8.182  21.801  0.00  0.00    +0.000 N 
ATOM      8  C   UNL     1       0.878   9.401  22.082  0.00  0.00    +0.000 C 
ATOM      9  O   UNL     1       0.534   9.825  23.170  0.00  0.00    +0.000 OA
ATOM     10  C   UNL     1       0.760  10.084  20.751  0.00  0.00    +0.000 C 
ATOM     11  C   UNL     1       0.245  11.309  20.623  0.00  0.00    +0.000 C 
ATOM     12  H   UNL     1       1.688   7.503  22.511  0.00  0.00    +0.000 HD
ENDROOT
BRANCH   1  14
ATOM     13  N   UNL     1       2.829   4.673  18.142  0.00  0.00    +0.000 N 
ATOM     14  C   UNL     1       3.312   5.927  17.843  0.00  0.00    +0.000 C 
ATOM     15  O   UNL     1       4.245   6.133  17.078  0.00  0.00    +0.000 OA
ATOM     16  H   UNL     1       1.934   4.575  18.603  0.00  0.00    +0.000 HD
BRANCH  13  18
ATOM     17  C   UNL     1       2.498   2.288  17.660  0.00  0.00    +0.000 C 
ATOM     18  C   UNL     1       3.402   3.499  17.516  0.00  0.00    +0.000 C 
ENDBRANCH  13  18
ENDBRANCH   1  14
BRANCH  11  19
ATOM     19  N   UNL     1      -0.262  12.082  21.638  0.00  0.00    +0.000 N 
ATOM     20  H   UNL     1       0.434  12.513  22.258  0.00  0.00    +0.000 HD
BRANCH  19  21
ATOM     21  C   UNL     1      -1.597  12.421  21.891  0.00  0.00    +0.000 A 
ATOM     22  C   UNL     1      -2.134  12.167  23.156  0.00  0.00    +0.000 A 
ATOM     23  C   UNL     1      -3.468  12.465  23.449  0.00  0.00    +0.000 A 
ATOM     24  C   UNL     1      -4.300  13.034  22.475  0.00  0.00    +0.000 A 
ATOM     25  C   UNL     1      -3.786  13.239  21.194  0.00  0.00    +0.000 A 
ATOM     26  C   UNL     1      -2.449  12.931  20.906  0.00  0.00    +0.000 A 
BRANCH  24  27
ATOM     27  C   UNL     1      -5.723  13.425  22.821  0.00  0.00    +0.000 C 
BRANCH  27  28
ATOM     28  N   UNL     1      -6.051  14.843  22.538  0.00  0.00    +0.000 NA
ATOM     29  C   UNL     1      -7.402  14.976  21.968  0.00  0.00    +0.000 C 
ATOM     30  C   UNL     1      -7.916  16.416  21.887  0.00  0.00    +0.000 C 
ATOM     31  C   UNL     1      -7.778  17.132  23.220  0.00  0.00    +0.000 C 
ATOM     32  C   UNL     1      -6.325  17.096  23.661  0.00  0.00    +0.000 C 
ATOM     33  C   UNL     1      -5.796  15.660  23.736  0.00  0.00    +0.000 C 
ENDBRANCH  27  28
ENDBRANCH  24  27
ENDBRANCH  19  21
ENDBRANCH  11  19
TORSDOF 6
ENDMDL
