MODEL 1
REMARK VINA RESULT:      -7.9      0.000      0.000
REMARK  Name = 
REMARK  5 active torsions:
REMARK  status: ('A' for Active; 'I' for Inactive)
REMARK    1  A    between atoms: C_1  and  C_2
REMARK    2  A    between atoms: C_5  and  C_6
REMARK    3  A    between atoms: C_12  and  C_13
REMARK    4  A    between atoms: C_15  and  N_16
REMARK    5  A    between atoms: N_23  and  C_24
REMARK                            x       y       z     vdW  Elec       q    Type
REMARK                         _______ _______ _______ _____ _____    ______ ____
ROOT
ATOM      1  C   UNL     1      -0.380  15.947  19.238  0.00  0.00    +0.000 C 
ATOM      2  C   UNL     1      -0.253  14.461  19.193  0.00  0.00    +0.000 A 
ATOM      3  N   UNL     1      -1.116  13.683  18.568  0.00  0.00    +0.000 NA
ATOM      4  C   UNL     1      -0.577  12.419  18.607  0.00  0.00    +0.000 A 
ATOM      5  C   UNL     1      -1.046  11.224  18.032  0.00  0.00    +0.000 A 
ATOM      6  C   UNL     1      -0.289  10.053  18.197  0.00  0.00    +0.000 A 
ATOM      7  C   UNL     1       0.898  10.012  18.950  0.00  0.00    +0.000 A 
ATOM      8  C   UNL     1       1.306  11.202  19.590  0.00  0.00    +0.000 A 
ATOM      9  C   UNL     1       0.608  12.405  19.340  0.00  0.00    +0.000 A 
ATOM     10  N   UNL     1       0.847  13.737  19.666  0.00  0.00    +0.000 N 
ENDROOT
BRANCH  10  11
ATOM     11  C   UNL     1       1.988  14.297  20.324  0.00  0.00    +0.000 A 
ATOM     12  C   UNL     1       1.840  14.592  21.687  0.00  0.00    +0.000 A 
ATOM     13  C   UNL     1       2.862  15.247  22.331  0.00  0.00    +0.000 A 
ATOM     14  N   UNL     1       3.993  15.624  21.716  0.00  0.00    +0.000 NA
ATOM     15  C   UNL     1       4.168  15.335  20.411  0.00  0.00    +0.000 A 
ATOM     16  C   UNL     1       5.344  15.782  19.800  0.00  0.00    +0.000 A 
ATOM     17  F   UNL     1       6.220  16.519  20.503  0.00  0.00    +0.000 F 
ATOM     18  C   UNL     1       5.653  15.526  18.470  0.00  0.00    +0.000 A 
ATOM     19  C   UNL     1       4.749  14.823  17.701  0.00  0.00    +0.000 A 
ATOM     20  C   UNL     1       3.534  14.441  18.264  0.00  0.00    +0.000 A 
ATOM     21  F   UNL     1       2.654  13.908  17.411  0.00  0.00    +0.000 F 
ATOM     22  C   UNL     1       3.203  14.643  19.638  0.00  0.00    +0.000 A 
ENDBRANCH  10  11
BRANCH   7  23
ATOM     23  C   UNL     1       1.693   8.757  19.026  0.00  0.00    +0.000 A 
ATOM     24  C   UNL     1       2.584   8.397  17.993  0.00  0.00    +0.000 A 
ATOM     25  C   UNL     1       3.269   7.186  18.030  0.00  0.00    +0.000 A 
ATOM     26  N   UNL     1       3.180   6.333  19.058  0.00  0.00    +0.000 NA
ATOM     27  C   UNL     1       2.365   6.696  20.073  0.00  0.00    +0.000 A 
ATOM     28  C   UNL     1       1.617   7.863  20.097  0.00  0.00    +0.000 A 
ATOM     29  F   UNL     1       0.826   8.093  21.156  0.00  0.00    +0.000 F 
BRANCH  25  30
ATOM     30  N   UNL     1       4.118   6.824  16.989  0.00  0.00    +0.000 N 
ATOM     31  H   UNL     1       3.610   6.654  16.128  0.00  0.00    +0.000 HD
ATOM     32  H   UNL     1       4.630   5.999  17.293  0.00  0.00    +0.000 HD
ENDBRANCH  25  30
ENDBRANCH   7  23
BRANCH   5  33
ATOM     33  C   UNL     1      -2.276  11.215  17.256  0.00  0.00    +0.000 A 
ATOM     34  N   UNL     1      -2.487  10.594  16.107  0.00  0.00    +0.000 NA
ATOM     35  N   UNL     1      -3.789  10.826  15.722  0.00  0.00    +0.000 NA
ATOM     36  C   UNL     1      -4.340  11.588  16.633  0.00  0.00    +0.000 A 
ATOM     37  N   UNL     1      -3.432  11.860  17.608  0.00  0.00    +0.000 N 
ATOM     38  H   UNL     1      -3.553  12.415  18.444  0.00  0.00    +0.000 HD
ENDBRANCH   5  33
TORSDOF 4
ENDMDL
MODEL 2
REMARK VINA RESULT:      -7.6      2.508      6.998
REMARK  Name = 
REMARK  5 active torsions:
REMARK  status: ('A' for Active; 'I' for Inactive)
REMARK    1  A    between atoms: C_1  and  C_2
REMARK    2  A    between atoms: C_5  and  C_6
REMARK    3  A    between atoms: C_12  and  C_13
REMARK    4  A    between atoms: C_15  and  N_16
REMARK    5  A    between atoms: N_23  and  C_24
REMARK                            x       y       z     vdW  Elec       q    Type
REMARK                         _______ _______ _______ _____ _____    ______ ____
ROOT
ATOM      1  C   UNL     1      -1.613  12.197  18.220  0.00  0.00    +0.000 C 
ATOM      2  C   UNL     1      -0.335  12.871  18.594  0.00  0.00    +0.000 A 
ATOM      3  N   UNL     1      -0.041  14.107  18.238  0.00  0.00    +0.000 NA
ATOM      4  C   UNL     1       1.121  14.421  18.902  0.00  0.00    +0.000 A 
ATOM      5  C   UNL     1       1.834  15.633  18.938  0.00  0.00    +0.000 A 
ATOM      6  C   UNL     1       2.996  15.708  19.722  0.00  0.00    +0.000 A 
ATOM      7  C   UNL     1       3.504  14.611  20.442  0.00  0.00    +0.000 A 
ATOM      8  C   UNL     1       2.821  13.381  20.323  0.00  0.00    +0.000 A 
ATOM      9  C   UNL     1       1.594  13.328  19.623  0.00  0.00    +0.000 A 
ATOM     10  N   UNL     1       0.620  12.345  19.472  0.00  0.00    +0.000 N 
ENDROOT
BRANCH  10  11
ATOM     11  C   UNL     1       0.555  11.058  20.094  0.00  0.00    +0.000 A 
ATOM     12  C   UNL     1      -0.054  11.004  21.355  0.00  0.00    +0.000 A 
ATOM     13  C   UNL     1      -0.028   9.816  22.046  0.00  0.00    +0.000 A 
ATOM     14  N   UNL     1       0.559   8.706  21.574  0.00  0.00    +0.000 NA
ATOM     15  C   UNL     1       1.134   8.727  20.356  0.00  0.00    +0.000 A 
ATOM     16  C   UNL     1       1.768   7.560  19.919  0.00  0.00    +0.000 A 
ATOM     17  F   UNL     1       1.834   6.493  20.733  0.00  0.00    +0.000 F 
ATOM     18  C   UNL     1       2.374   7.445  18.673  0.00  0.00    +0.000 A 
ATOM     19  C   UNL     1       2.379   8.539  17.834  0.00  0.00    +0.000 A 
ATOM     20  C   UNL     1       1.828   9.737  18.280  0.00  0.00    +0.000 A 
ATOM     21  F   UNL     1       2.015  10.785  17.472  0.00  0.00    +0.000 F 
ATOM     22  C   UNL     1       1.154   9.879  19.531  0.00  0.00    +0.000 A 
ENDBRANCH  10  11
BRANCH   7  23
ATOM     23  C   UNL     1       4.698  14.775  21.313  0.00  0.00    +0.000 A 
ATOM     24  C   UNL     1       4.611  14.585  22.708  0.00  0.00    +0.000 A 
ATOM     25  C   UNL     1       5.711  14.813  23.531  0.00  0.00    +0.000 A 
ATOM     26  N   UNL     1       6.915  15.155  23.053  0.00  0.00    +0.000 NA
ATOM     27  C   UNL     1       7.016  15.290  21.712  0.00  0.00    +0.000 A 
ATOM     28  C   UNL     1       5.961  15.121  20.827  0.00  0.00    +0.000 A 
ATOM     29  F   UNL     1       6.190  15.310  19.519  0.00  0.00    +0.000 F 
BRANCH  25  30
ATOM     30  N   UNL     1       5.606  14.659  24.908  0.00  0.00    +0.000 N 
ATOM     31  H   UNL     1       5.324  15.519  25.366  0.00  0.00    +0.000 HD
ATOM     32  H   UNL     1       6.510  14.334  25.244  0.00  0.00    +0.000 HD
ENDBRANCH  25  30
ENDBRANCH   7  23
BRANCH   5  33
ATOM     33  C   UNL     1       1.356  16.791  18.200  0.00  0.00    +0.000 A 
ATOM     34  N   UNL     1       2.090  17.686  17.560  0.00  0.00    +0.000 NA
ATOM     35  N   UNL     1       1.244  18.605  16.979  0.00  0.00    +0.000 NA
ATOM     36  C   UNL     1       0.019  18.261  17.284  0.00  0.00    +0.000 A 
ATOM     37  N   UNL     1       0.038  17.136  18.048  0.00  0.00    +0.000 N 
ATOM     38  H   UNL     1      -0.742  16.625  18.437  0.00  0.00    +0.000 HD
ENDBRANCH   5  33
TORSDOF 4
ENDMDL
MODEL 3
REMARK VINA RESULT:      -7.6      4.478      7.757
REMARK  Name = 
REMARK  5 active torsions:
REMARK  status: ('A' for Active; 'I' for Inactive)
REMARK    1  A    between atoms: C_1  and  C_2
REMARK    2  A    between atoms: C_5  and  C_6
REMARK    3  A    between atoms: C_12  and  C_13
REMARK    4  A    between atoms: C_15  and  N_16
REMARK    5  A    between atoms: N_23  and  C_24
REMARK                            x       y       z     vdW  Elec       q    Type
REMARK                         _______ _______ _______ _____ _____    ______ ____
ROOT
ATOM      1  C   UNL     1      -7.690  13.382  17.551  0.00  0.00    +0.000 C 
ATOM      2  C   UNL     1      -6.350  12.792  17.842  0.00  0.00    +0.000 A 
ATOM      3  N   UNL     1      -5.668  12.086  16.961  0.00  0.00    +0.000 NA
ATOM      4  C   UNL     1      -4.437  11.865  17.531  0.00  0.00    +0.000 A 
ATOM      5  C   UNL     1      -3.302  11.227  16.998  0.00  0.00    +0.000 A 
ATOM      6  C   UNL     1      -2.140  11.152  17.782  0.00  0.00    +0.000 A 
ATOM      7  C   UNL     1      -2.072  11.649  19.096  0.00  0.00    +0.000 A 
ATOM      8  C   UNL     1      -3.248  12.208  19.643  0.00  0.00    +0.000 A 
ATOM      9  C   UNL     1      -4.386  12.383  18.823  0.00  0.00    +0.000 A 
ATOM     10  N   UNL     1      -5.602  13.035  19.000  0.00  0.00    +0.000 N 
ENDROOT
BRANCH  10  11
ATOM     11  C   UNL     1      -6.030  13.829  20.111  0.00  0.00    +0.000 A 
ATOM     12  C   UNL     1      -5.679  15.186  20.081  0.00  0.00    +0.000 A 
ATOM     13  C   UNL     1      -5.957  15.960  21.182  0.00  0.00    +0.000 A 
ATOM     14  N   UNL     1      -6.541  15.477  22.289  0.00  0.00    +0.000 NA
ATOM     15  C   UNL     1      -6.905  14.181  22.336  0.00  0.00    +0.000 A 
ATOM     16  C   UNL     1      -7.475  13.710  23.522  0.00  0.00    +0.000 A 
ATOM     17  F   UNL     1      -7.588  14.532  24.579  0.00  0.00    +0.000 F 
ATOM     18  C   UNL     1      -7.916  12.402  23.688  0.00  0.00    +0.000 A 
ATOM     19  C   UNL     1      -7.762  11.513  22.645  0.00  0.00    +0.000 A 
ATOM     20  C   UNL     1      -7.121  11.936  21.483  0.00  0.00    +0.000 A 
ATOM     21  F   UNL     1      -6.870  10.974  20.589  0.00  0.00    +0.000 F 
ATOM     22  C   UNL     1      -6.699  13.282  21.259  0.00  0.00    +0.000 A 
ENDBRANCH  10  11
BRANCH   7  23
ATOM     23  C   UNL     1      -0.790  11.605  19.848  0.00  0.00    +0.000 A 
ATOM     24  C   UNL     1      -0.022  12.771  20.044  0.00  0.00    +0.000 A 
ATOM     25  C   UNL     1       1.215  12.714  20.682  0.00  0.00    +0.000 A 
ATOM     26  N   UNL     1       1.712  11.584  21.199  0.00  0.00    +0.000 NA
ATOM     27  C   UNL     1       0.957  10.472  21.057  0.00  0.00    +0.000 A 
ATOM     28  C   UNL     1      -0.264  10.434  20.401  0.00  0.00    +0.000 A 
ATOM     29  F   UNL     1      -0.902   9.258  20.308  0.00  0.00    +0.000 F 
BRANCH  25  30
ATOM     30  N   UNL     1       1.981  13.864  20.838  0.00  0.00    +0.000 N 
ATOM     31  H   UNL     1       2.970  13.681  20.702  0.00  0.00    +0.000 HD
ATOM     32  H   UNL     1       1.792  14.227  21.769  0.00  0.00    +0.000 HD
ENDBRANCH  25  30
ENDBRANCH   7  23
BRANCH   5  33
ATOM     33  C   UNL     1      -3.328  10.686  15.648  0.00  0.00    +0.000 A 
ATOM     34  N   UNL     1      -2.291  10.285  14.932  0.00  0.00    +0.000 NA
ATOM     35  N   UNL     1      -2.754   9.824  13.719  0.00  0.00    +0.000 NA
ATOM     36  C   UNL     1      -4.056   9.962  13.716  0.00  0.00    +0.000 A 
ATOM     37  N   UNL     1      -4.459  10.500  14.898  0.00  0.00    +0.000 N 
ATOM     38  H   UNL     1      -5.398  10.724  15.201  0.00  0.00    +0.000 HD
ENDBRANCH   5  33
TORSDOF 4
ENDMDL
MODEL 4
REMARK VINA RESULT:      -7.5      0.925      1.400
REMARK  Name = 
REMARK  5 active torsions:
REMARK  status: ('A' for Active; 'I' for Inactive)
REMARK    1  A    between atoms: C_1  and  C_2
REMARK    2  A    between atoms: C_5  and  C_6
REMARK    3  A    between atoms: C_12  and  C_13
REMARK    4  A    between atoms: C_15  and  N_16
REMARK    5  A    between atoms: N_23  and  C_24
REMARK                            x       y       z     vdW  Elec       q    Type
REMARK                         _______ _______ _______ _____ _____    ______ ____
ROOT
ATOM      1  C   UNL     1      -0.354  15.925  19.434  0.00  0.00    +0.000 C 
ATOM      2  C   UNL     1      -0.260  14.438  19.352  0.00  0.00    +0.000 A 
ATOM      3  N   UNL     1      -1.159  13.693  18.738  0.00  0.00    +0.000 NA
ATOM      4  C   UNL     1      -0.646  12.417  18.732  0.00  0.00    +0.000 A 
ATOM      5  C   UNL     1      -1.160  11.246  18.145  0.00  0.00    +0.000 A 
ATOM      6  C   UNL     1      -0.423  10.056  18.260  0.00  0.00    +0.000 A 
ATOM      7  C   UNL     1       0.787   9.973  18.972  0.00  0.00    +0.000 A 
ATOM      8  C   UNL     1       1.241  11.140  19.625  0.00  0.00    +0.000 A 
ATOM      9  C   UNL     1       0.561  12.362  19.424  0.00  0.00    +0.000 A 
ATOM     10  N   UNL     1       0.839  13.681  19.772  0.00  0.00    +0.000 N 
ENDROOT
BRANCH  10  11
ATOM     11  C   UNL     1       2.012  14.202  20.405  0.00  0.00    +0.000 A 
ATOM     12  C   UNL     1       1.893  14.537  21.761  0.00  0.00    +0.000 A 
ATOM     13  C   UNL     1       2.952  15.158  22.379  0.00  0.00    +0.000 A 
ATOM     14  N   UNL     1       4.093  15.466  21.743  0.00  0.00    +0.000 NA
ATOM     15  C   UNL     1       4.239  15.138  20.445  0.00  0.00    +0.000 A 
ATOM     16  C   UNL     1       5.428  15.513  19.811  0.00  0.00    +0.000 A 
ATOM     17  F   UNL     1       6.346  16.224  20.487  0.00  0.00    +0.000 F 
ATOM     18  C   UNL     1       5.711  15.210  18.485  0.00  0.00    +0.000 A 
ATOM     19  C   UNL     1       4.766  14.532  17.743  0.00  0.00    +0.000 A 
ATOM     20  C   UNL     1       3.541  14.222  18.327  0.00  0.00    +0.000 A 
ATOM     21  F   UNL     1       2.627  13.710  17.496  0.00  0.00    +0.000 F 
ATOM     22  C   UNL     1       3.234  14.473  19.699  0.00  0.00    +0.000 A 
ENDBRANCH  10  11
BRANCH   7  23
ATOM     23  C   UNL     1       1.557   8.700  18.994  0.00  0.00    +0.000 A 
ATOM     24  C   UNL     1       1.457   7.810  20.083  0.00  0.00    +0.000 A 
ATOM     25  C   UNL     1       2.236   6.657  20.138  0.00  0.00    +0.000 A 
ATOM     26  N   UNL     1       3.063   6.293  19.149  0.00  0.00    +0.000 NA
ATOM     27  C   UNL     1       3.126   7.119  18.081  0.00  0.00    +0.000 A 
ATOM     28  C   UNL     1       2.416   8.304  17.966  0.00  0.00    +0.000 A 
ATOM     29  F   UNL     1       2.588   9.046  16.862  0.00  0.00    +0.000 F 
BRANCH  25  30
ATOM     30  N   UNL     1       2.157   5.803  21.233  0.00  0.00    +0.000 N 
ATOM     31  H   UNL     1       2.281   4.833  20.965  0.00  0.00    +0.000 HD
ATOM     32  H   UNL     1       1.253   5.959  21.671  0.00  0.00    +0.000 HD
ENDBRANCH  25  30
ENDBRANCH   7  23
BRANCH   5  33
ATOM     33  C   UNL     1      -2.413  11.279  17.410  0.00  0.00    +0.000 A 
ATOM     34  N   UNL     1      -2.630  10.827  16.186  0.00  0.00    +0.000 NA
ATOM     35  N   UNL     1      -3.956  11.036  15.875  0.00  0.00    +0.000 NA
ATOM     36  C   UNL     1      -4.516  11.617  16.906  0.00  0.00    +0.000 A 
ATOM     37  N   UNL     1      -3.591  11.793  17.887  0.00  0.00    +0.000 N 
ATOM     38  H   UNL     1      -3.713  12.207  18.802  0.00  0.00    +0.000 HD
ENDBRANCH   5  33
TORSDOF 4
ENDMDL
MODEL 5
REMARK VINA RESULT:      -7.4      2.486      6.474
REMARK  Name = 
REMARK  5 active torsions:
REMARK  status: ('A' for Active; 'I' for Inactive)
REMARK    1  A    between atoms: C_1  and  C_2
REMARK    2  A    between atoms: C_5  and  C_6
REMARK    3  A    between atoms: C_12  and  C_13
REMARK    4  A    between atoms: C_15  and  N_16
REMARK    5  A    between atoms: N_23  and  C_24
REMARK                            x       y       z     vdW  Elec       q    Type
REMARK                         _______ _______ _______ _____ _____    ______ ____
ROOT
ATOM      1  C   UNL     1      -2.461  11.838  19.970  0.00  0.00    +0.000 C 
ATOM      2  C   UNL     1      -1.204  12.577  19.648  0.00  0.00    +0.000 A 
ATOM      3  N   UNL     1      -1.193  13.823  19.216  0.00  0.00    +0.000 NA
ATOM      4  C   UNL     1       0.129  14.200  19.196  0.00  0.00    +0.000 A 
ATOM      5  C   UNL     1       0.702  15.446  18.884  0.00  0.00    +0.000 A 
ATOM      6  C   UNL     1       2.097  15.585  18.963  0.00  0.00    +0.000 A 
ATOM      7  C   UNL     1       2.952  14.520  19.300  0.00  0.00    +0.000 A 
ATOM      8  C   UNL     1       2.363  13.257  19.525  0.00  0.00    +0.000 A 
ATOM      9  C   UNL     1       0.955  13.137  19.551  0.00  0.00    +0.000 A 
ATOM     10  N   UNL     1       0.089  12.106  19.902  0.00  0.00    +0.000 N 
ENDROOT
BRANCH  10  11
ATOM     11  C   UNL     1       0.412  10.822  20.445  0.00  0.00    +0.000 A 
ATOM     12  C   UNL     1       0.191  10.651  21.819  0.00  0.00    +0.000 A 
ATOM     13  C   UNL     1       0.602   9.481  22.409  0.00  0.00    +0.000 A 
ATOM     14  N   UNL     1       1.213   8.495  21.734  0.00  0.00    +0.000 NA
ATOM     15  C   UNL     1       1.419   8.626  20.410  0.00  0.00    +0.000 A 
ATOM     16  C   UNL     1       2.094   7.593  19.753  0.00  0.00    +0.000 A 
ATOM     17  F   UNL     1       2.557   6.547  20.458  0.00  0.00    +0.000 F 
ATOM     18  C   UNL     1       2.345   7.597  18.386  0.00  0.00    +0.000 A 
ATOM     19  C   UNL     1       1.937   8.682  17.639  0.00  0.00    +0.000 A 
ATOM     20  C   UNL     1       1.339   9.761  18.284  0.00  0.00    +0.000 A 
ATOM     21  F   UNL     1       1.120  10.833  17.516  0.00  0.00    +0.000 F 
ATOM     22  C   UNL     1       1.021   9.772  19.676  0.00  0.00    +0.000 A 
ENDBRANCH  10  11
BRANCH   7  23
ATOM     23  C   UNL     1       4.415  14.750  19.439  0.00  0.00    +0.000 A 
ATOM     24  C   UNL     1       5.266  14.718  18.314  0.00  0.00    +0.000 A 
ATOM     25  C   UNL     1       6.644  14.857  18.455  0.00  0.00    +0.000 A 
ATOM     26  N   UNL     1       7.232  15.092  19.636  0.00  0.00    +0.000 NA
ATOM     27  C   UNL     1       6.416  15.172  20.710  0.00  0.00    +0.000 A 
ATOM     28  C   UNL     1       5.040  15.006  20.662  0.00  0.00    +0.000 A 
ATOM     29  F   UNL     1       4.348  15.085  21.808  0.00  0.00    +0.000 F 
BRANCH  25  30
ATOM     30  N   UNL     1       7.478  14.788  17.345  0.00  0.00    +0.000 N 
ATOM     31  H   UNL     1       7.362  15.590  16.734  0.00  0.00    +0.000 HD
ATOM     32  H   UNL     1       7.267  13.917  16.864  0.00  0.00    +0.000 HD
ENDBRANCH  25  30
ENDBRANCH   7  23
BRANCH   5  33
ATOM     33  C   UNL     1      -0.140  16.573  18.518  0.00  0.00    +0.000 A 
ATOM     34  N   UNL     1       0.104  17.480  17.587  0.00  0.00    +0.000 NA
ATOM     35  N   UNL     1      -0.955  18.360  17.549  0.00  0.00    +0.000 NA
ATOM     36  C   UNL     1      -1.815  17.980  18.460  0.00  0.00    +0.000 A 
ATOM     37  N   UNL     1      -1.348  16.871  19.093  0.00  0.00    +0.000 N 
ATOM     38  H   UNL     1      -1.780  16.341  19.838  0.00  0.00    +0.000 HD
ENDBRANCH   5  33
TORSDOF 4
ENDMDL
MODEL 6
REMARK VINA RESULT:      -7.4      1.281      2.094
REMARK  Name = 
REMARK  5 active torsions:
REMARK  status: ('A' for Active; 'I' for Inactive)
REMARK    1  A    between atoms: C_1  and  C_2
REMARK    2  A    between atoms: C_5  and  C_6
REMARK    3  A    between atoms: C_12  and  C_13
REMARK    4  A    between atoms: C_15  and  N_16
REMARK    5  A    between atoms: N_23  and  C_24
REMARK                            x       y       z     vdW  Elec       q    Type
REMARK                         _______ _______ _______ _____ _____    ______ ____
ROOT
ATOM      1  C   UNL     1       0.388  16.282  18.492  0.00  0.00    +0.000 C 
ATOM      2  C   UNL     1       0.393  14.804  18.699  0.00  0.00    +0.000 A 
ATOM      3  N   UNL     1      -0.687  14.056  18.576  0.00  0.00    +0.000 NA
ATOM      4  C   UNL     1      -0.254  12.755  18.674  0.00  0.00    +0.000 A 
ATOM      5  C   UNL     1      -0.978  11.556  18.543  0.00  0.00    +0.000 A 
ATOM      6  C   UNL     1      -0.291  10.337  18.661  0.00  0.00    +0.000 A 
ATOM      7  C   UNL     1       1.084  10.261  18.948  0.00  0.00    +0.000 A 
ATOM      8  C   UNL     1       1.774  11.474  19.161  0.00  0.00    +0.000 A 
ATOM      9  C   UNL     1       1.112  12.703  18.938  0.00  0.00    +0.000 A 
ATOM     10  N   UNL     1       1.541  14.027  18.893  0.00  0.00    +0.000 N 
ENDROOT
BRANCH  10  11
ATOM     11  C   UNL     1       2.876  14.530  18.991  0.00  0.00    +0.000 A 
ATOM     12  C   UNL     1       3.604  14.606  17.796  0.00  0.00    +0.000 A 
ATOM     13  C   UNL     1       4.930  14.963  17.856  0.00  0.00    +0.000 A 
ATOM     14  N   UNL     1       5.563  15.236  19.007  0.00  0.00    +0.000 NA
ATOM     15  C   UNL     1       4.881  15.190  20.168  0.00  0.00    +0.000 A 
ATOM     16  C   UNL     1       5.589  15.443  21.346  0.00  0.00    +0.000 A 
ATOM     17  F   UNL     1       6.913  15.665  21.293  0.00  0.00    +0.000 F 
ATOM     18  C   UNL     1       4.995  15.451  22.603  0.00  0.00    +0.000 A 
ATOM     19  C   UNL     1       3.649  15.169  22.703  0.00  0.00    +0.000 A 
ATOM     20  C   UNL     1       2.941  14.831  21.553  0.00  0.00    +0.000 A 
ATOM     21  F   UNL     1       1.686  14.418  21.758  0.00  0.00    +0.000 F 
ATOM     22  C   UNL     1       3.505  14.860  20.241  0.00  0.00    +0.000 A 
ENDBRANCH  10  11
BRANCH   7  23
ATOM     23  C   UNL     1       1.768   8.941  18.988  0.00  0.00    +0.000 A 
ATOM     24  C   UNL     1       2.617   8.531  17.939  0.00  0.00    +0.000 A 
ATOM     25  C   UNL     1       3.196   7.264  17.942  0.00  0.00    +0.000 A 
ATOM     26  N   UNL     1       3.041   6.398  18.952  0.00  0.00    +0.000 NA
ATOM     27  C   UNL     1       2.267   6.806  19.982  0.00  0.00    +0.000 A 
ATOM     28  C   UNL     1       1.623   8.032  20.039  0.00  0.00    +0.000 A 
ATOM     29  F   UNL     1       0.862   8.304  21.110  0.00  0.00    +0.000 F 
BRANCH  25  30
ATOM     30  N   UNL     1       4.003   6.855  16.886  0.00  0.00    +0.000 N 
ATOM     31  H   UNL     1       4.774   7.495  16.729  0.00  0.00    +0.000 HD
ATOM     32  H   UNL     1       3.408   6.776  16.066  0.00  0.00    +0.000 HD
ENDBRANCH  25  30
ENDBRANCH   7  23
BRANCH   5  33
ATOM     33  C   UNL     1      -2.404  11.584  18.259  0.00  0.00    +0.000 A 
ATOM     34  N   UNL     1      -3.017  11.064  17.209  0.00  0.00    +0.000 NA
ATOM     35  N   UNL     1      -4.369  11.295  17.336  0.00  0.00    +0.000 NA
ATOM     36  C   UNL     1      -4.551  11.958  18.450  0.00  0.00    +0.000 A 
ATOM     37  N   UNL     1      -3.353  12.165  19.059  0.00  0.00    +0.000 N 
ATOM     38  H   UNL     1      -3.163  12.640  19.931  0.00  0.00    +0.000 HD
ENDBRANCH   5  33
TORSDOF 4
ENDMDL
MODEL 7
REMARK VINA RESULT:      -7.3      2.668      6.973
REMARK  Name = 
REMARK  5 active torsions:
REMARK  status: ('A' for Active; 'I' for Inactive)
REMARK    1  A    between atoms: C_1  and  C_2
REMARK    2  A    between atoms: C_5  and  C_6
REMARK    3  A    between atoms: C_12  and  C_13
REMARK    4  A    between atoms: C_15  and  N_16
REMARK    5  A    between atoms: N_23  and  C_24
REMARK                            x       y       z     vdW  Elec       q    Type
REMARK                         _______ _______ _______ _____ _____    ______ ____
ROOT
ATOM      1  C   UNL     1      -1.434  12.017  17.980  0.00  0.00    +0.000 C 
ATOM      2  C   UNL     1      -0.276  12.770  18.548  0.00  0.00    +0.000 A 
ATOM      3  N   UNL     1      -0.012  14.025  18.238  0.00  0.00    +0.000 NA
ATOM      4  C   UNL     1       1.008  14.410  19.075  0.00  0.00    +0.000 A 
ATOM      5  C   UNL     1       1.627  15.665  19.218  0.00  0.00    +0.000 A 
ATOM      6  C   UNL     1       2.643  15.811  20.176  0.00  0.00    +0.000 A 
ATOM      7  C   UNL     1       3.101  14.745  20.971  0.00  0.00    +0.000 A 
ATOM      8  C   UNL     1       2.527  13.473  20.751  0.00  0.00    +0.000 A 
ATOM      9  C   UNL     1       1.433  13.345  19.866  0.00  0.00    +0.000 A 
ATOM     10  N   UNL     1       0.560  12.302  19.567  0.00  0.00    +0.000 N 
ENDROOT
BRANCH  10  11
ATOM     11  C   UNL     1       0.482  11.009  20.176  0.00  0.00    +0.000 A 
ATOM     12  C   UNL     1      -0.189  10.938  21.405  0.00  0.00    +0.000 A 
ATOM     13  C   UNL     1      -0.181   9.745  22.089  0.00  0.00    +0.000 A 
ATOM     14  N   UNL     1       0.445   8.647  21.639  0.00  0.00    +0.000 NA
ATOM     15  C   UNL     1       1.080   8.684  20.451  0.00  0.00    +0.000 A 
ATOM     16  C   UNL     1       1.752   7.530  20.039  0.00  0.00    +0.000 A 
ATOM     17  F   UNL     1       1.791   6.458  20.848  0.00  0.00    +0.000 F 
ATOM     18  C   UNL     1       2.421   7.432  18.825  0.00  0.00    +0.000 A 
ATOM     19  C   UNL     1       2.453   8.533  17.994  0.00  0.00    +0.000 A 
ATOM     20  C   UNL     1       1.863   9.720  18.420  0.00  0.00    +0.000 A 
ATOM     21  F   UNL     1       2.076  10.777  17.629  0.00  0.00    +0.000 F 
ATOM     22  C   UNL     1       1.126   9.843  19.636  0.00  0.00    +0.000 A 
ENDBRANCH  10  11
BRANCH   7  23
ATOM     23  C   UNL     1       4.130  14.980  22.018  0.00  0.00    +0.000 A 
ATOM     24  C   UNL     1       5.346  14.265  22.016  0.00  0.00    +0.000 A 
ATOM     25  C   UNL     1       6.275  14.431  23.040  0.00  0.00    +0.000 A 
ATOM     26  N   UNL     1       6.107  15.311  24.036  0.00  0.00    +0.000 NA
ATOM     27  C   UNL     1       4.966  16.034  24.015  0.00  0.00    +0.000 A 
ATOM     28  C   UNL     1       3.973  15.901  23.057  0.00  0.00    +0.000 A 
ATOM     29  F   UNL     1       2.875  16.664  23.166  0.00  0.00    +0.000 F 
BRANCH  25  30
ATOM     30  N   UNL     1       7.455  13.695  23.048  0.00  0.00    +0.000 N 
ATOM     31  H   UNL     1       8.198  14.165  22.543  0.00  0.00    +0.000 HD
ATOM     32  H   UNL     1       7.245  12.785  22.645  0.00  0.00    +0.000 HD
ENDBRANCH  25  30
ENDBRANCH   7  23
BRANCH   5  33
ATOM     33  C   UNL     1       1.196  16.794  18.410  0.00  0.00    +0.000 A 
ATOM     34  N   UNL     1       1.950  17.779  17.952  0.00  0.00    +0.000 NA
ATOM     35  N   UNL     1       1.155  18.630  17.216  0.00  0.00    +0.000 NA
ATOM     36  C   UNL     1      -0.065  18.154  17.248  0.00  0.00    +0.000 A 
ATOM     37  N   UNL     1      -0.089  17.012  17.985  0.00  0.00    +0.000 N 
ATOM     38  H   UNL     1      -0.876  16.411  18.192  0.00  0.00    +0.000 HD
ENDBRANCH   5  33
TORSDOF 4
ENDMDL
MODEL 8
REMARK VINA RESULT:      -7.3      2.324      6.998
REMARK  Name = 
REMARK  5 active torsions:
REMARK  status: ('A' for Active; 'I' for Inactive)
REMARK    1  A    between atoms: C_1  and  C_2
REMARK    2  A    between atoms: C_5  and  C_6
REMARK    3  A    between atoms: C_12  and  C_13
REMARK    4  A    between atoms: C_15  and  N_16
REMARK    5  A    between atoms: N_23  and  C_24
REMARK                            x       y       z     vdW  Elec       q    Type
REMARK                         _______ _______ _______ _____ _____    ______ ____
ROOT
ATOM      1  C   UNL     1      -1.803  11.571  18.534  0.00  0.00    +0.000 C 
ATOM      2  C   UNL     1      -0.646  12.513  18.476  0.00  0.00    +0.000 A 
ATOM      3  N   UNL     1      -0.787  13.821  18.380  0.00  0.00    +0.000 NA
ATOM      4  C   UNL     1       0.476  14.344  18.523  0.00  0.00    +0.000 A 
ATOM      5  C   UNL     1       0.891  15.688  18.571  0.00  0.00    +0.000 A 
ATOM      6  C   UNL     1       2.255  15.966  18.753  0.00  0.00    +0.000 A 
ATOM      7  C   UNL     1       3.233  14.960  18.847  0.00  0.00    +0.000 A 
ATOM      8  C   UNL     1       2.807  13.621  18.710  0.00  0.00    +0.000 A 
ATOM      9  C   UNL     1       1.426  13.332  18.634  0.00  0.00    +0.000 A 
ATOM     10  N   UNL     1       0.692  12.149  18.665  0.00  0.00    +0.000 N 
ENDROOT
BRANCH  10  11
ATOM     11  C   UNL     1       1.167  10.816  18.875  0.00  0.00    +0.000 A 
ATOM     12  C   UNL     1       1.756  10.182  17.772  0.00  0.00    +0.000 A 
ATOM     13  C   UNL     1       2.113   8.860  17.888  0.00  0.00    +0.000 A 
ATOM     14  N   UNL     1       1.917   8.144  19.006  0.00  0.00    +0.000 NA
ATOM     15  C   UNL     1       1.371   8.735  20.086  0.00  0.00    +0.000 A 
ATOM     16  C   UNL     1       1.149   7.942  21.216  0.00  0.00    +0.000 A 
ATOM     17  F   UNL     1       1.429   6.629  21.172  0.00  0.00    +0.000 F 
ATOM     18  C   UNL     1       0.617   8.438  22.400  0.00  0.00    +0.000 A 
ATOM     19  C   UNL     1       0.262   9.769  22.462  0.00  0.00    +0.000 A 
ATOM     20  C   UNL     1       0.395  10.559  21.323  0.00  0.00    +0.000 A 
ATOM     21  F   UNL     1      -0.118  11.790  21.421  0.00  0.00    +0.000 F 
ATOM     22  C   UNL     1       0.982  10.098  20.106  0.00  0.00    +0.000 A 
ENDBRANCH  10  11
BRANCH   7  23
ATOM     23  C   UNL     1       4.652  15.318  19.113  0.00  0.00    +0.000 A 
ATOM     24  C   UNL     1       5.641  15.157  18.120  0.00  0.00    +0.000 A 
ATOM     25  C   UNL     1       6.980  15.420  18.394  0.00  0.00    +0.000 A 
ATOM     26  N   UNL     1       7.398  15.896  19.574  0.00  0.00    +0.000 NA
ATOM     27  C   UNL     1       6.448  16.098  20.514  0.00  0.00    +0.000 A 
ATOM     28  C   UNL     1       5.101  15.824  20.336  0.00  0.00    +0.000 A 
ATOM     29  F   UNL     1       4.264  16.047  21.360  0.00  0.00    +0.000 F 
BRANCH  25  30
ATOM     30  N   UNL     1       7.952  15.225  17.419  0.00  0.00    +0.000 N 
ATOM     31  H   UNL     1       7.629  14.609  16.681  0.00  0.00    +0.000 HD
ATOM     32  H   UNL     1       8.775  14.852  17.886  0.00  0.00    +0.000 HD
ENDBRANCH  25  30
ENDBRANCH   7  23
BRANCH   5  33
ATOM     33  C   UNL     1      -0.082  16.763  18.466  0.00  0.00    +0.000 A 
ATOM     34  N   UNL     1       0.022  17.862  17.737  0.00  0.00    +0.000 NA
ATOM     35  N   UNL     1      -1.126  18.605  17.906  0.00  0.00    +0.000 NA
ATOM     36  C   UNL     1      -1.899  17.952  18.737  0.00  0.00    +0.000 A 
ATOM     37  N   UNL     1      -1.288  16.799  19.117  0.00  0.00    +0.000 N 
ATOM     38  H   UNL     1      -1.628  16.082  19.744  0.00  0.00    +0.000 HD
ENDBRANCH   5  33
TORSDOF 4
ENDMDL
MODEL 9
REMARK VINA RESULT:      -7.2      2.384      6.709
REMARK  Name = 
REMARK  5 active torsions:
REMARK  status: ('A' for Active; 'I' for Inactive)
REMARK    1  A    between atoms: C_1  and  C_2
REMARK    2  A    between atoms: C_5  and  C_6
REMARK    3  A    between atoms: C_12  and  C_13
REMARK    4  A    between atoms: C_15  and  N_16
REMARK    5  A    between atoms: N_23  and  C_24
REMARK                            x       y       z     vdW  Elec       q    Type
REMARK                         _______ _______ _______ _____ _____    ______ ____
ROOT
ATOM      1  C   UNL     1      -2.306  11.720  19.491  0.00  0.00    +0.000 C 
ATOM      2  C   UNL     1      -1.025  12.479  19.376  0.00  0.00    +0.000 A 
ATOM      3  N   UNL     1      -0.968  13.741  18.995  0.00  0.00    +0.000 NA
ATOM      4  C   UNL     1       0.339  14.127  19.175  0.00  0.00    +0.000 A 
ATOM      5  C   UNL     1       0.937  15.388  18.992  0.00  0.00    +0.000 A 
ATOM      6  C   UNL     1       2.305  15.532  19.272  0.00  0.00    +0.000 A 
ATOM      7  C   UNL     1       3.116  14.461  19.688  0.00  0.00    +0.000 A 
ATOM      8  C   UNL     1       2.516  13.186  19.781  0.00  0.00    +0.000 A 
ATOM      9  C   UNL     1       1.120  13.057  19.605  0.00  0.00    +0.000 A 
ATOM     10  N   UNL     1       0.225  12.008  19.793  0.00  0.00    +0.000 N 
ENDROOT
BRANCH  10  11
ATOM     11  C   UNL     1       0.483  10.707  20.329  0.00  0.00    +0.000 A 
ATOM     12  C   UNL     1       0.147  10.508  21.676  0.00  0.00    +0.000 A 
ATOM     13  C   UNL     1       0.492   9.318  22.270  0.00  0.00    +0.000 A 
ATOM     14  N   UNL     1       1.142   8.338  21.624  0.00  0.00    +0.000 NA
ATOM     15  C   UNL     1       1.458   8.496  20.324  0.00  0.00    +0.000 A 
ATOM     16  C   UNL     1       2.170   7.467  19.700  0.00  0.00    +0.000 A 
ATOM     17  F   UNL     1       2.558   6.397  20.415  0.00  0.00    +0.000 F 
ATOM     18  C   UNL     1       2.533   7.497  18.359  0.00  0.00    +0.000 A 
ATOM     19  C   UNL     1       2.203   8.606  17.607  0.00  0.00    +0.000 A 
ATOM     20  C   UNL     1       1.569   9.680  18.227  0.00  0.00    +0.000 A 
ATOM     21  F   UNL     1       1.430  10.773  17.469  0.00  0.00    +0.000 F 
ATOM     22  C   UNL     1       1.138   9.664  19.588  0.00  0.00    +0.000 A 
ENDBRANCH  10  11
BRANCH   7  23
ATOM     23  C   UNL     1       4.543  14.695  20.039  0.00  0.00    +0.000 A 
ATOM     24  C   UNL     1       4.964  14.721  21.385  0.00  0.00    +0.000 A 
ATOM     25  C   UNL     1       6.284  15.015  21.715  0.00  0.00    +0.000 A 
ATOM     26  N   UNL     1       7.233  15.222  20.793  0.00  0.00    +0.000 NA
ATOM     27  C   UNL     1       6.845  15.151  19.501  0.00  0.00    +0.000 A 
ATOM     28  C   UNL     1       5.544  14.903  19.088  0.00  0.00    +0.000 A 
ATOM     29  F   UNL     1       5.286  14.882  17.772  0.00  0.00    +0.000 F 
BRANCH  25  30
ATOM     30  N   UNL     1       6.683  15.074  23.046  0.00  0.00    +0.000 N 
ATOM     31  H   UNL     1       7.321  15.844  23.217  0.00  0.00    +0.000 HD
ATOM     32  H   UNL     1       7.106  14.177  23.273  0.00  0.00    +0.000 HD
ENDBRANCH  25  30
ENDBRANCH   7  23
BRANCH   5  33
ATOM     33  C   UNL     1       0.141  16.522  18.552  0.00  0.00    +0.000 A 
ATOM     34  N   UNL     1       0.529  17.506  17.759  0.00  0.00    +0.000 NA
ATOM     35  N   UNL     1      -0.535  18.363  17.578  0.00  0.00    +0.000 NA
ATOM     36  C   UNL     1      -1.542  17.892  18.269  0.00  0.00    +0.000 A 
ATOM     37  N   UNL     1      -1.166  16.746  18.897  0.00  0.00    +0.000 N 
ATOM     38  H   UNL     1      -1.717  16.148  19.499  0.00  0.00    +0.000 HD
ENDBRANCH   5  33
TORSDOF 4
ENDMDL
