MODEL 1
REMARK VINA RESULT:      -7.2      0.000      0.000
REMARK  Name = 
REMARK  11 active torsions:
REMARK  status: ('A' for Active; 'I' for Inactive)
REMARK    1  A    between atoms: C_1  and  C_2
REMARK    2  A    between atoms: C_5  and  O_6
REMARK    3  A    between atoms: O_6  and  C_7
REMARK    4  A    between atoms: C_7  and  C_8
REMARK    5  A    between atoms: C_8  and  O_9
REMARK    6  A    between atoms: C_8  and  C_10
REMARK    7  A    between atoms: C_10  and  C_11
REMARK    8  A    between atoms: C_10  and  N_12
REMARK    9  A    between atoms: N_12  and  C_13
REMARK   10  A    between atoms: C_13  and  C_14
REMARK   11  A    between atoms: C_13  and  C_15
REMARK                            x       y       z     vdW  Elec       q    Type
REMARK                         _______ _______ _______ _____ _____    ______ ____
ROOT
ATOM      1  O   UNL     1       5.241   4.217  17.991  0.00  0.00    +0.000 OA
ENDROOT
BRANCH   1   6
ATOM      2  C   UNL     1       1.223   2.736  21.757  0.00  0.00    +0.000 C 
ATOM      3  C   UNL     1       2.286   3.112  20.772  0.00  0.00    +0.000 A 
ATOM      4  C   UNL     1       3.163   2.142  20.269  0.00  0.00    +0.000 A 
ATOM      5  C   UNL     1       4.168   2.482  19.353  0.00  0.00    +0.000 A 
ATOM      6  C   UNL     1       4.312   3.789  18.900  0.00  0.00    +0.000 A 
ATOM      7  C   UNL     1       3.440   4.753  19.395  0.00  0.00    +0.000 A 
ATOM      8  C   UNL     1       2.444   4.421  20.319  0.00  0.00    +0.000 A 
ATOM      9  C   UNL     1       1.634   5.619  20.700  0.00  0.00    +0.000 C 
ATOM     10  C   UNL     1       2.270   6.765  19.899  0.00  0.00    +0.000 C 
ATOM     11  C   UNL     1       3.394   6.198  19.023  0.00  0.00    +0.000 C 
ENDBRANCH   1   6
BRANCH   1  12
ATOM     12  C   UNL     1       5.039   3.799  16.639  0.00  0.00    +0.000 C 
BRANCH  12  13
ATOM     13  C   UNL     1       6.262   4.147  15.775  0.00  0.00    +0.000 C 
BRANCH  13  14
ATOM     14  O   UNL     1       6.240   3.402  14.551  0.00  0.00    +0.000 OA
ATOM     15  H   UNL     1       6.932   2.709  14.632  0.00  0.00    +0.000 HD
ENDBRANCH  13  14
BRANCH  13  16
ATOM     16  C   UNL     1       6.436   5.667  15.501  0.00  0.00    +0.000 C 
ATOM     17  C   UNL     1       5.145   6.458  15.807  0.00  0.00    +0.000 C 
BRANCH  16  18
ATOM     18  N   UNL     1       7.558   6.283  16.242  0.00  0.00    +0.000 NA
ATOM     19  H   UNL     1       8.013   6.974  15.642  0.00  0.00    +0.000 HD
BRANCH  18  20
ATOM     20  C   UNL     1       7.213   6.909  17.531  0.00  0.00    +0.000 C 
ATOM     21  C   UNL     1       7.729   6.116  18.734  0.00  0.00    +0.000 C 
ATOM     22  C   UNL     1       7.806   8.322  17.570  0.00  0.00    +0.000 C 
ENDBRANCH  18  20
ENDBRANCH  16  18
ENDBRANCH  13  16
ENDBRANCH  12  13
ENDBRANCH   1  12
TORSDOF 7
ENDMDL
MODEL 2
REMARK VINA RESULT:      -7.1      1.608      2.669
REMARK  Name = 
REMARK  11 active torsions:
REMARK  status: ('A' for Active; 'I' for Inactive)
REMARK    1  A    between atoms: C_1  and  C_2
REMARK    2  A    between atoms: C_5  and  O_6
REMARK    3  A    between atoms: O_6  and  C_7
REMARK    4  A    between atoms: C_7  and  C_8
REMARK    5  A    between atoms: C_8  and  O_9
REMARK    6  A    between atoms: C_8  and  C_10
REMARK    7  A    between atoms: C_10  and  C_11
REMARK    8  A    between atoms: C_10  and  N_12
REMARK    9  A    between atoms: N_12  and  C_13
REMARK   10  A    between atoms: C_13  and  C_14
REMARK   11  A    between atoms: C_13  and  C_15
REMARK                            x       y       z     vdW  Elec       q    Type
REMARK                         _______ _______ _______ _____ _____    ______ ____
ROOT
ATOM      1  O   UNL     1       3.053   6.350  17.601  0.00  0.00    +0.000 OA
ENDROOT
BRANCH   1   6
ATOM      2  C   UNL     1       1.380   2.874  21.801  0.00  0.00    +0.000 C 
ATOM      3  C   UNL     1       1.813   3.798  20.706  0.00  0.00    +0.000 A 
ATOM      4  C   UNL     1       1.900   5.178  20.935  0.00  0.00    +0.000 A 
ATOM      5  C   UNL     1       2.296   6.056  19.916  0.00  0.00    +0.000 A 
ATOM      6  C   UNL     1       2.633   5.581  18.653  0.00  0.00    +0.000 A 
ATOM      7  C   UNL     1       2.550   4.212  18.424  0.00  0.00    +0.000 A 
ATOM      8  C   UNL     1       2.143   3.333  19.434  0.00  0.00    +0.000 A 
ATOM      9  C   UNL     1       2.134   1.917  18.953  0.00  0.00    +0.000 C 
ATOM     10  C   UNL     1       2.577   2.023  17.487  0.00  0.00    +0.000 C 
ATOM     11  C   UNL     1       2.894   3.488  17.164  0.00  0.00    +0.000 C 
ENDBRANCH   1   6
BRANCH   1  12
ATOM     12  C   UNL     1       4.462   6.584  17.516  0.00  0.00    +0.000 C 
BRANCH  12  13
ATOM     13  C   UNL     1       5.022   6.044  16.191  0.00  0.00    +0.000 C 
BRANCH  13  14
ATOM     14  O   UNL     1       5.003   7.065  15.185  0.00  0.00    +0.000 OA
ATOM     15  H   UNL     1       4.651   6.648  14.369  0.00  0.00    +0.000 HD
ENDBRANCH  13  14
BRANCH  13  16
ATOM     16  C   UNL     1       6.432   5.402  16.309  0.00  0.00    +0.000 C 
ATOM     17  C   UNL     1       6.811   4.610  15.038  0.00  0.00    +0.000 C 
BRANCH  16  18
ATOM     18  N   UNL     1       7.508   6.373  16.602  0.00  0.00    +0.000 NA
ATOM     19  H   UNL     1       7.527   7.081  15.864  0.00  0.00    +0.000 HD
BRANCH  18  20
ATOM     20  C   UNL     1       7.438   7.041  17.914  0.00  0.00    +0.000 C 
ATOM     21  C   UNL     1       8.064   6.211  19.037  0.00  0.00    +0.000 C 
ATOM     22  C   UNL     1       8.159   8.390  17.824  0.00  0.00    +0.000 C 
ENDBRANCH  18  20
ENDBRANCH  16  18
ENDBRANCH  13  16
ENDBRANCH  12  13
ENDBRANCH   1  12
TORSDOF 7
ENDMDL
MODEL 3
REMARK VINA RESULT:      -7.1      1.127      1.135
REMARK  Name = 
REMARK  11 active torsions:
REMARK  status: ('A' for Active; 'I' for Inactive)
REMARK    1  A    between atoms: C_1  and  C_2
REMARK    2  A    between atoms: C_5  and  O_6
REMARK    3  A    between atoms: O_6  and  C_7
REMARK    4  A    between atoms: C_7  and  C_8
REMARK    5  A    between atoms: C_8  and  O_9
REMARK    6  A    between atoms: C_8  and  C_10
REMARK    7  A    between atoms: C_10  and  C_11
REMARK    8  A    between atoms: C_10  and  N_12
REMARK    9  A    between atoms: N_12  and  C_13
REMARK   10  A    between atoms: C_13  and  C_14
REMARK   11  A    between atoms: C_13  and  C_15
REMARK                            x       y       z     vdW  Elec       q    Type
REMARK                         _______ _______ _______ _____ _____    ______ ____
ROOT
ATOM      1  O   UNL     1       3.599   4.106  16.576  0.00  0.00    +0.000 OA
ENDROOT
BRANCH   1   6
ATOM      2  C   UNL     1       1.308   2.665  21.596  0.00  0.00    +0.000 C 
ATOM      3  C   UNL     1       1.916   3.029  20.276  0.00  0.00    +0.000 A 
ATOM      4  C   UNL     1       2.298   2.030  19.371  0.00  0.00    +0.000 A 
ATOM      5  C   UNL     1       2.875   2.357  18.136  0.00  0.00    +0.000 A 
ATOM      6  C   UNL     1       3.068   3.683  17.764  0.00  0.00    +0.000 A 
ATOM      7  C   UNL     1       2.687   4.676  18.660  0.00  0.00    +0.000 A 
ATOM      8  C   UNL     1       2.122   4.355  19.899  0.00  0.00    +0.000 A 
ATOM      9  C   UNL     1       1.794   5.585  20.683  0.00  0.00    +0.000 C 
ATOM     10  C   UNL     1       2.248   6.735  19.773  0.00  0.00    +0.000 C 
ATOM     11  C   UNL     1       2.771   6.153  18.455  0.00  0.00    +0.000 C 
ENDBRANCH   1   6
BRANCH   1  12
ATOM     12  C   UNL     1       4.912   3.631  16.267  0.00  0.00    +0.000 C 
BRANCH  12  13
ATOM     13  C   UNL     1       5.980   4.556  16.874  0.00  0.00    +0.000 C 
BRANCH  13  14
ATOM     14  O   UNL     1       7.150   3.808  17.226  0.00  0.00    +0.000 OA
ATOM     15  H   UNL     1       7.702   4.397  17.785  0.00  0.00    +0.000 HD
ENDBRANCH  13  14
BRANCH  13  16
ATOM     16  C   UNL     1       6.344   5.778  15.985  0.00  0.00    +0.000 C 
ATOM     17  C   UNL     1       5.154   6.751  15.832  0.00  0.00    +0.000 C 
BRANCH  16  18
ATOM     18  N   UNL     1       7.519   6.536  16.465  0.00  0.00    +0.000 NA
ATOM     19  H   UNL     1       7.794   7.211  15.747  0.00  0.00    +0.000 HD
BRANCH  18  20
ATOM     20  C   UNL     1       7.356   7.235  17.752  0.00  0.00    +0.000 C 
ATOM     21  C   UNL     1       8.073   6.530  18.905  0.00  0.00    +0.000 C 
ATOM     22  C   UNL     1       7.903   8.660  17.617  0.00  0.00    +0.000 C 
ENDBRANCH  18  20
ENDBRANCH  16  18
ENDBRANCH  13  16
ENDBRANCH  12  13
ENDBRANCH   1  12
TORSDOF 7
ENDMDL
MODEL 4
REMARK VINA RESULT:      -7.0      2.546      4.220
REMARK  Name = 
REMARK  11 active torsions:
REMARK  status: ('A' for Active; 'I' for Inactive)
REMARK    1  A    between atoms: C_1  and  C_2
REMARK    2  A    between atoms: C_5  and  O_6
REMARK    3  A    between atoms: O_6  and  C_7
REMARK    4  A    between atoms: C_7  and  C_8
REMARK    5  A    between atoms: C_8  and  O_9
REMARK    6  A    between atoms: C_8  and  C_10
REMARK    7  A    between atoms: C_10  and  C_11
REMARK    8  A    between atoms: C_10  and  N_12
REMARK    9  A    between atoms: N_12  and  C_13
REMARK   10  A    between atoms: C_13  and  C_14
REMARK   11  A    between atoms: C_13  and  C_15
REMARK                            x       y       z     vdW  Elec       q    Type
REMARK                         _______ _______ _______ _____ _____    ______ ____
ROOT
ATOM      1  O   UNL     1       4.442   3.914  16.161  0.00  0.00    +0.000 OA
ENDROOT
BRANCH   1   6
ATOM      2  C   UNL     1       1.729   6.313  20.566  0.00  0.00    +0.000 C 
ATOM      3  C   UNL     1       2.446   5.697  19.404  0.00  0.00    +0.000 A 
ATOM      4  C   UNL     1       3.439   6.413  18.722  0.00  0.00    +0.000 A 
ATOM      5  C   UNL     1       4.111   5.852  17.628  0.00  0.00    +0.000 A 
ATOM      6  C   UNL     1       3.827   4.560  17.199  0.00  0.00    +0.000 A 
ATOM      7  C   UNL     1       2.844   3.846  17.877  0.00  0.00    +0.000 A 
ATOM      8  C   UNL     1       2.161   4.406  18.961  0.00  0.00    +0.000 A 
ATOM      9  C   UNL     1       1.158   3.452  19.525  0.00  0.00    +0.000 C 
ATOM     10  C   UNL     1       1.288   2.210  18.632  0.00  0.00    +0.000 C 
ATOM     11  C   UNL     1       2.406   2.443  17.609  0.00  0.00    +0.000 C 
ENDBRANCH   1   6
BRANCH   1  12
ATOM     12  C   UNL     1       5.871   3.976  16.138  0.00  0.00    +0.000 C 
BRANCH  12  13
ATOM     13  C   UNL     1       6.348   5.170  15.296  0.00  0.00    +0.000 C 
BRANCH  13  14
ATOM     14  O   UNL     1       7.575   5.694  15.818  0.00  0.00    +0.000 OA
ATOM     15  H   UNL     1       7.329   6.370  16.487  0.00  0.00    +0.000 HD
ENDBRANCH  13  14
BRANCH  13  16
ATOM     16  C   UNL     1       6.471   4.869  13.776  0.00  0.00    +0.000 C 
ATOM     17  C   UNL     1       7.891   5.168  13.244  0.00  0.00    +0.000 C 
BRANCH  16  18
ATOM     18  N   UNL     1       6.110   3.482  13.410  0.00  0.00    +0.000 NA
ATOM     19  H   UNL     1       5.241   3.228  13.887  0.00  0.00    +0.000 HD
BRANCH  18  20
ATOM     20  C   UNL     1       5.971   3.209  11.968  0.00  0.00    +0.000 C 
ATOM     21  C   UNL     1       6.593   1.874  11.554  0.00  0.00    +0.000 C 
ATOM     22  C   UNL     1       4.482   3.202  11.605  0.00  0.00    +0.000 C 
ENDBRANCH  18  20
ENDBRANCH  16  18
ENDBRANCH  13  16
ENDBRANCH  12  13
ENDBRANCH   1  12
TORSDOF 7
ENDMDL
MODEL 5
REMARK VINA RESULT:      -6.9      2.271      3.486
REMARK  Name = 
REMARK  11 active torsions:
REMARK  status: ('A' for Active; 'I' for Inactive)
REMARK    1  A    between atoms: C_1  and  C_2
REMARK    2  A    between atoms: C_5  and  O_6
REMARK    3  A    between atoms: O_6  and  C_7
REMARK    4  A    between atoms: C_7  and  C_8
REMARK    5  A    between atoms: C_8  and  O_9
REMARK    6  A    between atoms: C_8  and  C_10
REMARK    7  A    between atoms: C_10  and  C_11
REMARK    8  A    between atoms: C_10  and  N_12
REMARK    9  A    between atoms: N_12  and  C_13
REMARK   10  A    between atoms: C_13  and  C_14
REMARK   11  A    between atoms: C_13  and  C_15
REMARK                            x       y       z     vdW  Elec       q    Type
REMARK                         _______ _______ _______ _____ _____    ______ ____
ROOT
ATOM      1  O   UNL     1       4.798   5.238  17.095  0.00  0.00    +0.000 OA
ENDROOT
BRANCH   1   6
ATOM      2  C   UNL     1       1.969   3.136  21.579  0.00  0.00    +0.000 C 
ATOM      3  C   UNL     1       2.722   3.676  20.403  0.00  0.00    +0.000 A 
ATOM      4  C   UNL     1       3.588   2.850  19.674  0.00  0.00    +0.000 A 
ATOM      5  C   UNL     1       4.305   3.345  18.576  0.00  0.00    +0.000 A 
ATOM      6  C   UNL     1       4.164   4.666  18.165  0.00  0.00    +0.000 A 
ATOM      7  C   UNL     1       3.302   5.487  18.885  0.00  0.00    +0.000 A 
ATOM      8  C   UNL     1       2.594   5.001  19.989  0.00  0.00    +0.000 A 
ATOM      9  C   UNL     1       1.735   6.064  20.595  0.00  0.00    +0.000 C 
ATOM     10  C   UNL     1       2.012   7.302  19.729  0.00  0.00    +0.000 C 
ATOM     11  C   UNL     1       2.976   6.917  18.601  0.00  0.00    +0.000 C 
ENDBRANCH   1   6
BRANCH   1  12
ATOM     12  C   UNL     1       5.299   4.336  16.105  0.00  0.00    +0.000 C 
BRANCH  12  13
ATOM     13  C   UNL     1       6.530   4.932  15.403  0.00  0.00    +0.000 C 
BRANCH  13  14
ATOM     14  O   UNL     1       7.736   4.424  15.988  0.00  0.00    +0.000 OA
ATOM     15  H   UNL     1       7.884   4.935  16.814  0.00  0.00    +0.000 HD
ENDBRANCH  13  14
BRANCH  13  16
ATOM     16  C   UNL     1       6.536   4.746  13.860  0.00  0.00    +0.000 C 
ATOM     17  C   UNL     1       7.862   5.230  13.229  0.00  0.00    +0.000 C 
BRANCH  16  18
ATOM     18  N   UNL     1       6.283   3.356  13.424  0.00  0.00    +0.000 NA
ATOM     19  H   UNL     1       5.510   2.972  13.972  0.00  0.00    +0.000 HD
BRANCH  18  20
ATOM     20  C   UNL     1       6.001   3.170  11.989  0.00  0.00    +0.000 C 
ATOM     21  C   UNL     1       6.473   1.812  11.464  0.00  0.00    +0.000 C 
ATOM     22  C   UNL     1       4.492   3.301  11.758  0.00  0.00    +0.000 C 
ENDBRANCH  18  20
ENDBRANCH  16  18
ENDBRANCH  13  16
ENDBRANCH  12  13
ENDBRANCH   1  12
TORSDOF 7
ENDMDL
MODEL 6
REMARK VINA RESULT:      -6.9      1.425      2.559
REMARK  Name = 
REMARK  11 active torsions:
REMARK  status: ('A' for Active; 'I' for Inactive)
REMARK    1  A    between atoms: C_1  and  C_2
REMARK    2  A    between atoms: C_5  and  O_6
REMARK    3  A    between atoms: O_6  and  C_7
REMARK    4  A    between atoms: C_7  and  C_8
REMARK    5  A    between atoms: C_8  and  O_9
REMARK    6  A    between atoms: C_8  and  C_10
REMARK    7  A    between atoms: C_10  and  C_11
REMARK    8  A    between atoms: C_10  and  N_12
REMARK    9  A    between atoms: N_12  and  C_13
REMARK   10  A    between atoms: C_13  and  C_14
REMARK   11  A    between atoms: C_13  and  C_15
REMARK                            x       y       z     vdW  Elec       q    Type
REMARK                         _______ _______ _______ _____ _____    ______ ____
ROOT
ATOM      1  O   UNL     1       3.567   3.918  16.715  0.00  0.00    +0.000 OA
ENDROOT
BRANCH   1   6
ATOM      2  C   UNL     1       1.186   2.728  21.759  0.00  0.00    +0.000 C 
ATOM      3  C   UNL     1       1.817   3.027  20.434  0.00  0.00    +0.000 A 
ATOM      4  C   UNL     1       2.200   1.984  19.579  0.00  0.00    +0.000 A 
ATOM      5  C   UNL     1       2.799   2.249  18.341  0.00  0.00    +0.000 A 
ATOM      6  C   UNL     1       3.014   3.555  17.913  0.00  0.00    +0.000 A 
ATOM      7  C   UNL     1       2.632   4.591  18.758  0.00  0.00    +0.000 A 
ATOM      8  C   UNL     1       2.045   4.332  20.001  0.00  0.00    +0.000 A 
ATOM      9  C   UNL     1       1.721   5.600  20.725  0.00  0.00    +0.000 C 
ATOM     10  C   UNL     1       2.202   6.703  19.772  0.00  0.00    +0.000 C 
ATOM     11  C   UNL     1       2.737   6.056  18.489  0.00  0.00    +0.000 C 
ENDBRANCH   1   6
BRANCH   1  12
ATOM     12  C   UNL     1       4.956   3.623  16.547  0.00  0.00    +0.000 C 
BRANCH  12  13
ATOM     13  C   UNL     1       5.824   4.681  17.247  0.00  0.00    +0.000 C 
BRANCH  13  14
ATOM     14  O   UNL     1       6.745   4.058  18.150  0.00  0.00    +0.000 OA
ATOM     15  H   UNL     1       6.411   4.233  19.057  0.00  0.00    +0.000 HD
ENDBRANCH  13  14
BRANCH  13  16
ATOM     16  C   UNL     1       6.560   5.646  16.275  0.00  0.00    +0.000 C 
ATOM     17  C   UNL     1       7.424   6.677  17.035  0.00  0.00    +0.000 C 
BRANCH  16  18
ATOM     18  N   UNL     1       7.409   4.958  15.279  0.00  0.00    +0.000 NA
ATOM     19  H   UNL     1       7.444   3.961  15.504  0.00  0.00    +0.000 HD
BRANCH  18  20
ATOM     20  C   UNL     1       7.014   5.124  13.868  0.00  0.00    +0.000 C 
ATOM     21  C   UNL     1       8.192   5.484  12.961  0.00  0.00    +0.000 C 
ATOM     22  C   UNL     1       6.380   3.820  13.374  0.00  0.00    +0.000 C 
ENDBRANCH  18  20
ENDBRANCH  16  18
ENDBRANCH  13  16
ENDBRANCH  12  13
ENDBRANCH   1  12
TORSDOF 7
ENDMDL
MODEL 7
REMARK VINA RESULT:      -6.8      1.390      3.142
REMARK  Name = 
REMARK  11 active torsions:
REMARK  status: ('A' for Active; 'I' for Inactive)
REMARK    1  A    between atoms: C_1  and  C_2
REMARK    2  A    between atoms: C_5  and  O_6
REMARK    3  A    between atoms: O_6  and  C_7
REMARK    4  A    between atoms: C_7  and  C_8
REMARK    5  A    between atoms: C_8  and  O_9
REMARK    6  A    between atoms: C_8  and  C_10
REMARK    7  A    between atoms: C_10  and  C_11
REMARK    8  A    between atoms: C_10  and  N_12
REMARK    9  A    between atoms: N_12  and  C_13
REMARK   10  A    between atoms: C_13  and  C_14
REMARK   11  A    between atoms: C_13  and  C_15
REMARK                            x       y       z     vdW  Elec       q    Type
REMARK                         _______ _______ _______ _____ _____    ______ ____
ROOT
ATOM      1  O   UNL     1       5.021   5.827  18.782  0.00  0.00    +0.000 OA
ENDROOT
BRANCH   1   6
ATOM      2  C   UNL     1       0.389   3.019  20.564  0.00  0.00    +0.000 C 
ATOM      3  C   UNL     1       1.599   3.769  20.101  0.00  0.00    +0.000 A 
ATOM      4  C   UNL     1       1.917   5.015  20.658  0.00  0.00    +0.000 A 
ATOM      5  C   UNL     1       3.042   5.732  20.229  0.00  0.00    +0.000 A 
ATOM      6  C   UNL     1       3.888   5.219  19.251  0.00  0.00    +0.000 A 
ATOM      7  C   UNL     1       3.577   3.981  18.700  0.00  0.00    +0.000 A 
ATOM      8  C   UNL     1       2.448   3.267  19.116  0.00  0.00    +0.000 A 
ATOM      9  C   UNL     1       2.324   1.970  18.383  0.00  0.00    +0.000 C 
ATOM     10  C   UNL     1       3.526   1.968  17.429  0.00  0.00    +0.000 C 
ATOM     11  C   UNL     1       4.358   3.233  17.670  0.00  0.00    +0.000 C 
ENDBRANCH   1   6
BRANCH   1  12
ATOM     12  C   UNL     1       6.249   5.438  19.405  0.00  0.00    +0.000 C 
BRANCH  12  13
ATOM     13  C   UNL     1       7.414   5.523  18.406  0.00  0.00    +0.000 C 
BRANCH  13  14
ATOM     14  O   UNL     1       7.836   4.210  18.015  0.00  0.00    +0.000 OA
ATOM     15  H   UNL     1       8.779   4.130  18.276  0.00  0.00    +0.000 HD
ENDBRANCH  13  14
BRANCH  13  16
ATOM     16  C   UNL     1       7.125   6.410  17.163  0.00  0.00    +0.000 C 
ATOM     17  C   UNL     1       7.743   7.819  17.308  0.00  0.00    +0.000 C 
BRANCH  16  18
ATOM     18  N   UNL     1       7.584   5.820  15.888  0.00  0.00    +0.000 NA
ATOM     19  H   UNL     1       8.159   4.999  16.090  0.00  0.00    +0.000 HD
BRANCH  18  20
ATOM     20  C   UNL     1       6.527   5.449  14.930  0.00  0.00    +0.000 C 
ATOM     21  C   UNL     1       6.369   3.935  14.777  0.00  0.00    +0.000 C 
ATOM     22  C   UNL     1       5.197   6.048  15.401  0.00  0.00    +0.000 C 
ENDBRANCH  18  20
ENDBRANCH  16  18
ENDBRANCH  13  16
ENDBRANCH  12  13
ENDBRANCH   1  12
TORSDOF 7
ENDMDL
MODEL 8
REMARK VINA RESULT:      -6.8      0.984      2.601
REMARK  Name = 
REMARK  11 active torsions:
REMARK  status: ('A' for Active; 'I' for Inactive)
REMARK    1  A    between atoms: C_1  and  C_2
REMARK    2  A    between atoms: C_5  and  O_6
REMARK    3  A    between atoms: O_6  and  C_7
REMARK    4  A    between atoms: C_7  and  C_8
REMARK    5  A    between atoms: C_8  and  O_9
REMARK    6  A    between atoms: C_8  and  C_10
REMARK    7  A    between atoms: C_10  and  C_11
REMARK    8  A    between atoms: C_10  and  N_12
REMARK    9  A    between atoms: N_12  and  C_13
REMARK   10  A    between atoms: C_13  and  C_14
REMARK   11  A    between atoms: C_13  and  C_15
REMARK                            x       y       z     vdW  Elec       q    Type
REMARK                         _______ _______ _______ _____ _____    ______ ____
ROOT
ATOM      1  O   UNL     1       4.465   3.826  17.289  0.00  0.00    +0.000 OA
ENDROOT
BRANCH   1   6
ATOM      2  C   UNL     1       1.543   7.295  20.746  0.00  0.00    +0.000 C 
ATOM      3  C   UNL     1       2.308   6.394  19.827  0.00  0.00    +0.000 A 
ATOM      4  C   UNL     1       2.838   6.888  18.627  0.00  0.00    +0.000 A 
ATOM      5  C   UNL     1       3.548   6.054  17.754  0.00  0.00    +0.000 A 
ATOM      6  C   UNL     1       3.765   4.715  18.060  0.00  0.00    +0.000 A 
ATOM      7  C   UNL     1       3.243   4.223  19.252  0.00  0.00    +0.000 A 
ATOM      8  C   UNL     1       2.522   5.048  20.121  0.00  0.00    +0.000 A 
ATOM      9  C   UNL     1       2.065   4.298  21.331  0.00  0.00    +0.000 C 
ATOM     10  C   UNL     1       2.584   2.872  21.099  0.00  0.00    +0.000 C 
ATOM     11  C   UNL     1       3.384   2.837  19.791  0.00  0.00    +0.000 C 
ENDBRANCH   1   6
BRANCH   1  12
ATOM     12  C   UNL     1       4.692   4.212  15.931  0.00  0.00    +0.000 C 
BRANCH  12  13
ATOM     13  C   UNL     1       6.099   3.795  15.476  0.00  0.00    +0.000 C 
BRANCH  13  14
ATOM     14  O   UNL     1       6.046   3.178  14.184  0.00  0.00    +0.000 OA
ATOM     15  H   UNL     1       6.970   3.141  13.853  0.00  0.00    +0.000 HD
ENDBRANCH  13  14
BRANCH  13  16
ATOM     16  C   UNL     1       7.145   4.944  15.505  0.00  0.00    +0.000 C 
ATOM     17  C   UNL     1       7.533   5.403  14.081  0.00  0.00    +0.000 C 
BRANCH  16  18
ATOM     18  N   UNL     1       6.714   6.125  16.283  0.00  0.00    +0.000 NA
ATOM     19  H   UNL     1       5.778   5.954  16.656  0.00  0.00    +0.000 HD
BRANCH  18  20
ATOM     20  C   UNL     1       7.607   6.537  17.381  0.00  0.00    +0.000 C 
ATOM     21  C   UNL     1       7.650   8.054  17.574  0.00  0.00    +0.000 C 
ATOM     22  C   UNL     1       7.131   5.879  18.681  0.00  0.00    +0.000 C 
ENDBRANCH  18  20
ENDBRANCH  16  18
ENDBRANCH  13  16
ENDBRANCH  12  13
ENDBRANCH   1  12
TORSDOF 7
ENDMDL
MODEL 9
REMARK VINA RESULT:      -6.8      1.608      2.783
REMARK  Name = 
REMARK  11 active torsions:
REMARK  status: ('A' for Active; 'I' for Inactive)
REMARK    1  A    between atoms: C_1  and  C_2
REMARK    2  A    between atoms: C_5  and  O_6
REMARK    3  A    between atoms: O_6  and  C_7
REMARK    4  A    between atoms: C_7  and  C_8
REMARK    5  A    between atoms: C_8  and  O_9
REMARK    6  A    between atoms: C_8  and  C_10
REMARK    7  A    between atoms: C_10  and  C_11
REMARK    8  A    between atoms: C_10  and  N_12
REMARK    9  A    between atoms: N_12  and  C_13
REMARK   10  A    between atoms: C_13  and  C_14
REMARK   11  A    between atoms: C_13  and  C_15
REMARK                            x       y       z     vdW  Elec       q    Type
REMARK                         _______ _______ _______ _____ _____    ______ ____
ROOT
ATOM      1  O   UNL     1       5.027   5.563  18.505  0.00  0.00    +0.000 OA
ENDROOT
BRANCH   1   6
ATOM      2  C   UNL     1       0.673   1.885  18.715  0.00  0.00    +0.000 C 
ATOM      3  C   UNL     1       1.825   2.840  18.655  0.00  0.00    +0.000 A 
ATOM      4  C   UNL     1       2.923   2.576  17.823  0.00  0.00    +0.000 A 
ATOM      5  C   UNL     1       4.011   3.456  17.764  0.00  0.00    +0.000 A 
ATOM      6  C   UNL     1       4.027   4.628  18.512  0.00  0.00    +0.000 A 
ATOM      7  C   UNL     1       2.938   4.894  19.335  0.00  0.00    +0.000 A 
ATOM      8  C   UNL     1       1.854   4.012  19.408  0.00  0.00    +0.000 A 
ATOM      9  C   UNL     1       0.809   4.511  20.355  0.00  0.00    +0.000 C 
ATOM     10  C   UNL     1       1.391   5.828  20.887  0.00  0.00    +0.000 C 
ATOM     11  C   UNL     1       2.731   6.099  20.193  0.00  0.00    +0.000 C 
ENDBRANCH   1   6
BRANCH   1  12
ATOM     12  C   UNL     1       6.249   5.183  19.145  0.00  0.00    +0.000 C 
BRANCH  12  13
ATOM     13  C   UNL     1       7.429   5.290  18.166  0.00  0.00    +0.000 C 
BRANCH  13  14
ATOM     14  O   UNL     1       7.946   3.989  17.859  0.00  0.00    +0.000 OA
ATOM     15  H   UNL     1       7.196   3.361  17.951  0.00  0.00    +0.000 HD
ENDBRANCH  13  14
BRANCH  13  16
ATOM     16  C   UNL     1       7.112   6.086  16.869  0.00  0.00    +0.000 C 
ATOM     17  C   UNL     1       7.596   7.550  16.962  0.00  0.00    +0.000 C 
BRANCH  16  18
ATOM     18  N   UNL     1       7.671   5.478  15.643  0.00  0.00    +0.000 NA
ATOM     19  H   UNL     1       8.209   4.647  15.900  0.00  0.00    +0.000 HD
BRANCH  18  20
ATOM     20  C   UNL     1       6.697   5.122  14.596  0.00  0.00    +0.000 C 
ATOM     21  C   UNL     1       7.324   5.048  13.202  0.00  0.00    +0.000 C 
ATOM     22  C   UNL     1       6.073   3.764  14.938  0.00  0.00    +0.000 C 
ENDBRANCH  18  20
ENDBRANCH  16  18
ENDBRANCH  13  16
ENDBRANCH  12  13
ENDBRANCH   1  12
TORSDOF 7
ENDMDL
