MODEL 1
REMARK VINA RESULT:      -7.7      0.000      0.000
REMARK  Name = 
REMARK  4 active torsions:
REMARK  status: ('A' for Active; 'I' for Inactive)
REMARK    1  A    between atoms: C_2  and  C_3
REMARK    2  A    between atoms: C_3  and  C_4
REMARK    3  A    between atoms: C_4  and  N_5
REMARK    4  A    between atoms: C_18  and  C_19
REMARK                            x       y       z     vdW  Elec       q    Type
REMARK                         _______ _______ _______ _____ _____    ______ ____
ROOT
ATOM      1  C   UNL     1       3.646   6.055  19.334  0.00  0.00    +0.000 C 
ATOM      2  C   UNL     1       2.448   5.819  19.897  0.00  0.00    +0.000 C 
ATOM      3  C   UNL     1       2.017   4.479  19.472  0.00  0.00    +0.000 A 
ATOM      4  C   UNL     1       0.872   3.775  19.816  0.00  0.00    +0.000 A 
ATOM      5  C   UNL     1       0.700   2.491  19.298  0.00  0.00    +0.000 A 
ATOM      6  C   UNL     1       1.666   1.928  18.455  0.00  0.00    +0.000 A 
ATOM      7  C   UNL     1       2.826   2.635  18.108  0.00  0.00    +0.000 A 
ATOM      8  C   UNL     1       2.989   3.914  18.623  0.00  0.00    +0.000 A 
ATOM      9  C   UNL     1       4.057   4.919  18.521  0.00  0.00    +0.000 C 
ATOM     10  C   UNL     1       5.209   4.800  17.841  0.00  0.00    +0.000 C 
ENDROOT
BRANCH  10  11
ATOM     11  C   UNL     1       6.209   5.813  17.880  0.00  0.00    +0.000 A 
ATOM     12  C   UNL     1       6.351   6.945  17.096  0.00  0.00    +0.000 A 
ATOM     13  C   UNL     1       7.487   7.730  17.454  0.00  0.00    +0.000 A 
ATOM     14  C   UNL     1       8.177   7.181  18.510  0.00  0.00    +0.000 A 
ATOM     15  S   UNL     1       7.469   5.724  19.051  0.00  0.00    +0.000 S 
ENDBRANCH  10  11
BRANCH   2  16
ATOM     16  C   UNL     1       1.651   6.667  20.830  0.00  0.00    +0.000 C 
BRANCH  16  17
ATOM     17  C   UNL     1       1.636   8.170  20.495  0.00  0.00    +0.000 C 
BRANCH  17  18
ATOM     18  N   UNL     1       0.273   8.744  20.465  0.00  0.00    +0.000 NA
ATOM     19  C   UNL     1       0.301  10.162  20.038  0.00  0.00    +0.000 C 
ATOM     20  C   UNL     1       0.838  11.143  21.103  0.00  0.00    +0.000 C 
ATOM     21  O   UNL     1       0.203  10.979  22.379  0.00  0.00    +0.000 OA
ATOM     22  C   UNL     1       0.257   9.617  22.818  0.00  0.00    +0.000 C 
ATOM     23  C   UNL     1      -0.406   8.702  21.781  0.00  0.00    +0.000 C 
ENDBRANCH  17  18
ENDBRANCH  16  17
ENDBRANCH   2  16
TORSDOF 4
ENDMDL
MODEL 2
REMARK VINA RESULT:      -7.6      3.062      5.509
REMARK  Name = 
REMARK  4 active torsions:
REMARK  status: ('A' for Active; 'I' for Inactive)
REMARK    1  A    between atoms: C_2  and  C_3
REMARK    2  A    between atoms: C_3  and  C_4
REMARK    3  A    between atoms: C_4  and  N_5
REMARK    4  A    between atoms: C_18  and  C_19
REMARK                            x       y       z     vdW  Elec       q    Type
REMARK                         _______ _______ _______ _____ _____    ______ ____
ROOT
ATOM      1  C   UNL     1       3.652   5.841  18.615  0.00  0.00    +0.000 C 
ATOM      2  C   UNL     1       2.760   6.091  19.590  0.00  0.00    +0.000 C 
ATOM      3  C   UNL     1       2.210   7.433  19.350  0.00  0.00    +0.000 A 
ATOM      4  C   UNL     1       1.236   8.121  20.059  0.00  0.00    +0.000 A 
ATOM      5  C   UNL     1       0.859   9.388  19.612  0.00  0.00    +0.000 A 
ATOM      6  C   UNL     1       1.450   9.946  18.472  0.00  0.00    +0.000 A 
ATOM      7  C   UNL     1       2.433   9.252  17.752  0.00  0.00    +0.000 A 
ATOM      8  C   UNL     1       2.806   7.994  18.204  0.00  0.00    +0.000 A 
ATOM      9  C   UNL     1       3.744   6.976  17.708  0.00  0.00    +0.000 C 
ATOM     10  C   UNL     1       4.513   7.059  16.609  0.00  0.00    +0.000 C 
ENDROOT
BRANCH  10  11
ATOM     11  C   UNL     1       5.327   5.972  16.182  0.00  0.00    +0.000 A 
ATOM     12  C   UNL     1       5.049   4.965  15.274  0.00  0.00    +0.000 A 
ATOM     13  C   UNL     1       6.137   4.057  15.101  0.00  0.00    +0.000 A 
ATOM     14  C   UNL     1       7.221   4.403  15.874  0.00  0.00    +0.000 A 
ATOM     15  S   UNL     1       6.920   5.800  16.812  0.00  0.00    +0.000 S 
ENDBRANCH  10  11
BRANCH   2  16
ATOM     16  C   UNL     1       2.307   5.219  20.712  0.00  0.00    +0.000 C 
BRANCH  16  17
ATOM     17  C   UNL     1       1.078   4.343  20.403  0.00  0.00    +0.000 C 
BRANCH  17  18
ATOM     18  N   UNL     1       1.276   2.921  20.757  0.00  0.00    +0.000 NA
ATOM     19  C   UNL     1       2.651   2.681  21.255  0.00  0.00    +0.000 C 
ATOM     20  C   UNL     1       3.741   2.703  20.161  0.00  0.00    +0.000 C 
ATOM     21  O   UNL     1       3.423   1.865  19.042  0.00  0.00    +0.000 OA
ATOM     22  C   UNL     1       2.124   2.164  18.519  0.00  0.00    +0.000 C 
ATOM     23  C   UNL     1       1.063   2.001  19.615  0.00  0.00    +0.000 C 
ENDBRANCH  17  18
ENDBRANCH  16  17
ENDBRANCH   2  16
TORSDOF 4
ENDMDL
MODEL 3
REMARK VINA RESULT:      -7.4      1.149      1.432
REMARK  Name = 
REMARK  4 active torsions:
REMARK  status: ('A' for Active; 'I' for Inactive)
REMARK    1  A    between atoms: C_2  and  C_3
REMARK    2  A    between atoms: C_3  and  C_4
REMARK    3  A    between atoms: C_4  and  N_5
REMARK    4  A    between atoms: C_18  and  C_19
REMARK                            x       y       z     vdW  Elec       q    Type
REMARK                         _______ _______ _______ _____ _____    ______ ____
ROOT
ATOM      1  C   UNL     1       3.613   6.143  19.273  0.00  0.00    +0.000 C 
ATOM      2  C   UNL     1       2.399   5.946  19.816  0.00  0.00    +0.000 C 
ATOM      3  C   UNL     1       1.978   4.580  19.471  0.00  0.00    +0.000 A 
ATOM      4  C   UNL     1       0.822   3.902  19.830  0.00  0.00    +0.000 A 
ATOM      5  C   UNL     1       0.662   2.585  19.395  0.00  0.00    +0.000 A 
ATOM      6  C   UNL     1       1.651   1.966  18.620  0.00  0.00    +0.000 A 
ATOM      7  C   UNL     1       2.821   2.648  18.260  0.00  0.00    +0.000 A 
ATOM      8  C   UNL     1       2.973   3.958  18.691  0.00  0.00    +0.000 A 
ATOM      9  C   UNL     1       4.045   4.954  18.552  0.00  0.00    +0.000 C 
ATOM     10  C   UNL     1       5.216   4.790  17.914  0.00  0.00    +0.000 C 
ENDROOT
BRANCH  10  11
ATOM     11  C   UNL     1       6.217   5.803  17.913  0.00  0.00    +0.000 A 
ATOM     12  C   UNL     1       6.360   6.902  17.084  0.00  0.00    +0.000 A 
ATOM     13  C   UNL     1       7.496   7.700  17.410  0.00  0.00    +0.000 A 
ATOM     14  C   UNL     1       8.185   7.194  18.488  0.00  0.00    +0.000 A 
ATOM     15  S   UNL     1       7.475   5.760  19.087  0.00  0.00    +0.000 S 
ENDBRANCH  10  11
BRANCH   2  16
ATOM     16  C   UNL     1       1.578   6.855  20.666  0.00  0.00    +0.000 C 
BRANCH  16  17
ATOM     17  C   UNL     1       1.748   8.358  20.369  0.00  0.00    +0.000 C 
BRANCH  17  18
ATOM     18  N   UNL     1       0.709   8.890  19.463  0.00  0.00    +0.000 NA
ATOM     19  C   UNL     1       1.292   9.298  18.163  0.00  0.00    +0.000 C 
ATOM     20  C   UNL     1       2.114  10.604  18.211  0.00  0.00    +0.000 C 
ATOM     21  O   UNL     1       1.409  11.682  18.844  0.00  0.00    +0.000 OA
ATOM     22  C   UNL     1       0.921  11.299  20.134  0.00  0.00    +0.000 C 
ATOM     23  C   UNL     1       0.007  10.074  20.012  0.00  0.00    +0.000 C 
ENDBRANCH  17  18
ENDBRANCH  16  17
ENDBRANCH   2  16
TORSDOF 4
ENDMDL
MODEL 4
REMARK VINA RESULT:      -7.3      3.380      6.323
REMARK  Name = 
REMARK  4 active torsions:
REMARK  status: ('A' for Active; 'I' for Inactive)
REMARK    1  A    between atoms: C_2  and  C_3
REMARK    2  A    between atoms: C_3  and  C_4
REMARK    3  A    between atoms: C_4  and  N_5
REMARK    4  A    between atoms: C_18  and  C_19
REMARK                            x       y       z     vdW  Elec       q    Type
REMARK                         _______ _______ _______ _____ _____    ______ ____
ROOT
ATOM      1  C   UNL     1       2.650   6.895  19.039  0.00  0.00    +0.000 C 
ATOM      2  C   UNL     1       3.232   5.886  18.367  0.00  0.00    +0.000 C 
ATOM      3  C   UNL     1       2.788   4.629  18.987  0.00  0.00    +0.000 A 
ATOM      4  C   UNL     1       3.085   3.322  18.630  0.00  0.00    +0.000 A 
ATOM      5  C   UNL     1       2.511   2.285  19.367  0.00  0.00    +0.000 A 
ATOM      6  C   UNL     1       1.653   2.563  20.438  0.00  0.00    +0.000 A 
ATOM      7  C   UNL     1       1.349   3.882  20.799  0.00  0.00    +0.000 A 
ATOM      8  C   UNL     1       1.926   4.909  20.065  0.00  0.00    +0.000 A 
ATOM      9  C   UNL     1       1.820   6.375  20.115  0.00  0.00    +0.000 C 
ATOM     10  C   UNL     1       1.071   7.098  20.966  0.00  0.00    +0.000 C 
ENDROOT
BRANCH  10  11
ATOM     11  C   UNL     1       0.985   8.515  20.868  0.00  0.00    +0.000 A 
ATOM     12  C   UNL     1       0.932   9.321  19.743  0.00  0.00    +0.000 A 
ATOM     13  C   UNL     1       0.836  10.709  20.058  0.00  0.00    +0.000 A 
ATOM     14  C   UNL     1       0.808  10.926  21.416  0.00  0.00    +0.000 A 
ATOM     15  S   UNL     1       0.914   9.467  22.300  0.00  0.00    +0.000 S 
ENDBRANCH  10  11
BRANCH   2  16
ATOM     16  C   UNL     1       4.129   5.928  17.176  0.00  0.00    +0.000 C 
BRANCH  16  17
ATOM     17  C   UNL     1       5.190   7.045  17.196  0.00  0.00    +0.000 C 
BRANCH  17  18
ATOM     18  N   UNL     1       6.473   6.636  16.584  0.00  0.00    +0.000 NA
ATOM     19  C   UNL     1       6.549   5.163  16.438  0.00  0.00    +0.000 C 
ATOM     20  C   UNL     1       6.779   4.399  17.760  0.00  0.00    +0.000 C 
ATOM     21  O   UNL     1       7.878   4.920  18.520  0.00  0.00    +0.000 OA
ATOM     22  C   UNL     1       7.748   6.331  18.724  0.00  0.00    +0.000 C 
ATOM     23  C   UNL     1       7.654   7.054  17.375  0.00  0.00    +0.000 C 
ENDBRANCH  17  18
ENDBRANCH  16  17
ENDBRANCH   2  16
TORSDOF 4
ENDMDL
MODEL 5
REMARK VINA RESULT:      -7.3      0.594      1.187
REMARK  Name = 
REMARK  4 active torsions:
REMARK  status: ('A' for Active; 'I' for Inactive)
REMARK    1  A    between atoms: C_2  and  C_3
REMARK    2  A    between atoms: C_3  and  C_4
REMARK    3  A    between atoms: C_4  and  N_5
REMARK    4  A    between atoms: C_18  and  C_19
REMARK                            x       y       z     vdW  Elec       q    Type
REMARK                         _______ _______ _______ _____ _____    ______ ____
ROOT
ATOM      1  C   UNL     1       3.635   6.184  19.361  0.00  0.00    +0.000 C 
ATOM      2  C   UNL     1       2.437   5.973  19.935  0.00  0.00    +0.000 C 
ATOM      3  C   UNL     1       1.981   4.637  19.526  0.00  0.00    +0.000 A 
ATOM      4  C   UNL     1       0.826   3.956  19.885  0.00  0.00    +0.000 A 
ATOM      5  C   UNL     1       0.630   2.670  19.380  0.00  0.00    +0.000 A 
ATOM      6  C   UNL     1       1.581   2.083  18.536  0.00  0.00    +0.000 A 
ATOM      7  C   UNL     1       2.749   2.767  18.175  0.00  0.00    +0.000 A 
ATOM      8  C   UNL     1       2.937   4.047  18.676  0.00  0.00    +0.000 A 
ATOM      9  C   UNL     1       4.021   5.033  18.557  0.00  0.00    +0.000 C 
ATOM     10  C   UNL     1       5.167   4.889  17.870  0.00  0.00    +0.000 C 
ENDROOT
BRANCH  10  11
ATOM     11  C   UNL     1       6.184   5.885  17.893  0.00  0.00    +0.000 A 
ATOM     12  C   UNL     1       6.322   7.023  17.116  0.00  0.00    +0.000 A 
ATOM     13  C   UNL     1       7.480   7.786  17.451  0.00  0.00    +0.000 A 
ATOM     14  C   UNL     1       8.190   7.215  18.482  0.00  0.00    +0.000 A 
ATOM     15  S   UNL     1       7.473   5.764  19.027  0.00  0.00    +0.000 S 
ENDBRANCH  10  11
BRANCH   2  16
ATOM     16  C   UNL     1       1.661   6.844  20.865  0.00  0.00    +0.000 C 
BRANCH  16  17
ATOM     17  C   UNL     1       1.177   8.176  20.262  0.00  0.00    +0.000 C 
BRANCH  17  18
ATOM     18  N   UNL     1       1.559   9.352  21.073  0.00  0.00    +0.000 NA
ATOM     19  C   UNL     1       1.138   9.186  22.485  0.00  0.00    +0.000 C 
ATOM     20  C   UNL     1      -0.379   9.342  22.724  0.00  0.00    +0.000 C 
ATOM     21  O   UNL     1      -0.914  10.540  22.142  0.00  0.00    +0.000 OA
ATOM     22  C   UNL     1      -0.568  10.646  20.757  0.00  0.00    +0.000 C 
ATOM     23  C   UNL     1       0.956  10.615  20.588  0.00  0.00    +0.000 C 
ENDBRANCH  17  18
ENDBRANCH  16  17
ENDBRANCH   2  16
TORSDOF 4
ENDMDL
MODEL 6
REMARK VINA RESULT:      -7.1      1.776      2.077
REMARK  Name = 
REMARK  4 active torsions:
REMARK  status: ('A' for Active; 'I' for Inactive)
REMARK    1  A    between atoms: C_2  and  C_3
REMARK    2  A    between atoms: C_3  and  C_4
REMARK    3  A    between atoms: C_4  and  N_5
REMARK    4  A    between atoms: C_18  and  C_19
REMARK                            x       y       z     vdW  Elec       q    Type
REMARK                         _______ _______ _______ _____ _____    ______ ____
ROOT
ATOM      1  C   UNL     1       3.624   5.698  17.520  0.00  0.00    +0.000 C 
ATOM      2  C   UNL     1       2.704   6.170  18.380  0.00  0.00    +0.000 C 
ATOM      3  C   UNL     1       2.208   5.030  19.165  0.00  0.00    +0.000 A 
ATOM      4  C   UNL     1       1.281   5.013  20.197  0.00  0.00    +0.000 A 
ATOM      5  C   UNL     1       0.994   3.793  20.812  0.00  0.00    +0.000 A 
ATOM      6  C   UNL     1       1.633   2.619  20.396  0.00  0.00    +0.000 A 
ATOM      7  C   UNL     1       2.572   2.634  19.356  0.00  0.00    +0.000 A 
ATOM      8  C   UNL     1       2.851   3.848  18.746  0.00  0.00    +0.000 A 
ATOM      9  C   UNL     1       3.776   4.259  17.680  0.00  0.00    +0.000 C 
ATOM     10  C   UNL     1       4.628   3.468  17.007  0.00  0.00    +0.000 C 
ENDROOT
BRANCH  10  11
ATOM     11  C   UNL     1       5.538   3.994  16.046  0.00  0.00    +0.000 A 
ATOM     12  C   UNL     1       5.416   4.083  14.670  0.00  0.00    +0.000 A 
ATOM     13  C   UNL     1       6.548   4.691  14.050  0.00  0.00    +0.000 A 
ATOM     14  C   UNL     1       7.501   5.060  14.972  0.00  0.00    +0.000 A 
ATOM     15  S   UNL     1       7.038   4.659  16.568  0.00  0.00    +0.000 S 
ENDBRANCH  10  11
BRANCH   2  16
ATOM     16  C   UNL     1       2.244   7.571  18.607  0.00  0.00    +0.000 C 
BRANCH  16  17
ATOM     17  C   UNL     1       1.905   7.918  20.070  0.00  0.00    +0.000 C 
BRANCH  17  18
ATOM     18  N   UNL     1       0.546   8.478  20.233  0.00  0.00    +0.000 NA
ATOM     19  C   UNL     1       0.496   9.893  19.795  0.00  0.00    +0.000 C 
ATOM     20  C   UNL     1       1.171  10.888  20.765  0.00  0.00    +0.000 C 
ATOM     21  O   UNL     1       0.729  10.730  22.120  0.00  0.00    +0.000 OA
ATOM     22  C   UNL     1       0.860   9.372  22.556  0.00  0.00    +0.000 C 
ATOM     23  C   UNL     1       0.065   8.441  21.633  0.00  0.00    +0.000 C 
ENDBRANCH  17  18
ENDBRANCH  16  17
ENDBRANCH   2  16
TORSDOF 4
ENDMDL
MODEL 7
REMARK VINA RESULT:      -7.0      2.030      2.570
REMARK  Name = 
REMARK  4 active torsions:
REMARK  status: ('A' for Active; 'I' for Inactive)
REMARK    1  A    between atoms: C_2  and  C_3
REMARK    2  A    between atoms: C_3  and  C_4
REMARK    3  A    between atoms: C_4  and  N_5
REMARK    4  A    between atoms: C_18  and  C_19
REMARK                            x       y       z     vdW  Elec       q    Type
REMARK                         _______ _______ _______ _____ _____    ______ ____
ROOT
ATOM      1  C   UNL     1       3.736   5.625  17.849  0.00  0.00    +0.000 C 
ATOM      2  C   UNL     1       2.876   6.016  18.807  0.00  0.00    +0.000 C 
ATOM      3  C   UNL     1       2.239   4.806  19.347  0.00  0.00    +0.000 A 
ATOM      4  C   UNL     1       1.310   4.687  20.371  0.00  0.00    +0.000 A 
ATOM      5  C   UNL     1       0.871   3.410  20.724  0.00  0.00    +0.000 A 
ATOM      6  C   UNL     1       1.362   2.279  20.060  0.00  0.00    +0.000 A 
ATOM      7  C   UNL     1       2.303   2.396  19.028  0.00  0.00    +0.000 A 
ATOM      8  C   UNL     1       2.733   3.668  18.678  0.00  0.00    +0.000 A 
ATOM      9  C   UNL     1       3.708   4.177  17.703  0.00  0.00    +0.000 C 
ATOM     10  C   UNL     1       4.460   3.445  16.863  0.00  0.00    +0.000 C 
ENDROOT
BRANCH  10  11
ATOM     11  C   UNL     1       5.434   4.045  16.015  0.00  0.00    +0.000 A 
ATOM     12  C   UNL     1       5.376   4.319  14.660  0.00  0.00    +0.000 A 
ATOM     13  C   UNL     1       6.561   4.944  14.168  0.00  0.00    +0.000 A 
ATOM     14  C   UNL     1       7.488   5.141  15.165  0.00  0.00    +0.000 A 
ATOM     15  S   UNL     1       6.939   4.559  16.675  0.00  0.00    +0.000 S 
ENDBRANCH  10  11
BRANCH   2  16
ATOM     16  C   UNL     1       2.591   7.383  19.329  0.00  0.00    +0.000 C 
BRANCH  16  17
ATOM     17  C   UNL     1       1.748   8.275  18.399  0.00  0.00    +0.000 C 
BRANCH  17  18
ATOM     18  N   UNL     1       1.684   9.683  18.846  0.00  0.00    +0.000 NA
ATOM     19  C   UNL     1       1.193   9.777  20.242  0.00  0.00    +0.000 C 
ATOM     20  C   UNL     1      -0.319   9.512  20.409  0.00  0.00    +0.000 C 
ATOM     21  O   UNL     1      -1.122  10.283  19.505  0.00  0.00    +0.000 OA
ATOM     22  C   UNL     1      -0.688  10.118  18.151  0.00  0.00    +0.000 C 
ATOM     23  C   UNL     1       0.786  10.518  18.015  0.00  0.00    +0.000 C 
ENDBRANCH  17  18
ENDBRANCH  16  17
ENDBRANCH   2  16
TORSDOF 4
ENDMDL
MODEL 8
REMARK VINA RESULT:      -7.0      3.658      6.290
REMARK  Name = 
REMARK  4 active torsions:
REMARK  status: ('A' for Active; 'I' for Inactive)
REMARK    1  A    between atoms: C_2  and  C_3
REMARK    2  A    between atoms: C_3  and  C_4
REMARK    3  A    between atoms: C_4  and  N_5
REMARK    4  A    between atoms: C_18  and  C_19
REMARK                            x       y       z     vdW  Elec       q    Type
REMARK                         _______ _______ _______ _____ _____    ______ ____
ROOT
ATOM      1  C   UNL     1       2.547   5.900  18.263  0.00  0.00    +0.000 C 
ATOM      2  C   UNL     1       2.839   4.612  18.010  0.00  0.00    +0.000 C 
ATOM      3  C   UNL     1       2.679   3.868  19.268  0.00  0.00    +0.000 A 
ATOM      4  C   UNL     1       2.832   2.510  19.509  0.00  0.00    +0.000 A 
ATOM      5  C   UNL     1       2.593   2.034  20.799  0.00  0.00    +0.000 A 
ATOM      6  C   UNL     1       2.205   2.910  21.821  0.00  0.00    +0.000 A 
ATOM      7  C   UNL     1       2.048   4.281  21.579  0.00  0.00    +0.000 A 
ATOM      8  C   UNL     1       2.290   4.749  20.296  0.00  0.00    +0.000 A 
ATOM      9  C   UNL     1       2.195   6.074  19.665  0.00  0.00    +0.000 C 
ATOM     10  C   UNL     1       1.821   7.220  20.257  0.00  0.00    +0.000 C 
ENDROOT
BRANCH  10  11
ATOM     11  C   UNL     1       1.688   8.433  19.523  0.00  0.00    +0.000 A 
ATOM     12  C   UNL     1       2.214   8.781  18.290  0.00  0.00    +0.000 A 
ATOM     13  C   UNL     1       1.843  10.096  17.878  0.00  0.00    +0.000 A 
ATOM     14  C   UNL     1       1.033  10.712  18.804  0.00  0.00    +0.000 A 
ATOM     15  S   UNL     1       0.740   9.720  20.163  0.00  0.00    +0.000 S 
ENDBRANCH  10  11
BRANCH   2  16
ATOM     16  C   UNL     1       3.213   3.956  16.724  0.00  0.00    +0.000 C 
BRANCH  16  17
ATOM     17  C   UNL     1       4.727   3.809  16.481  0.00  0.00    +0.000 C 
BRANCH  17  18
ATOM     18  N   UNL     1       5.225   4.669  15.386  0.00  0.00    +0.000 NA
ATOM     19  C   UNL     1       6.636   4.357  15.061  0.00  0.00    +0.000 C 
ATOM     20  C   UNL     1       7.660   4.857  16.103  0.00  0.00    +0.000 C 
ATOM     21  O   UNL     1       7.481   6.240  16.439  0.00  0.00    +0.000 OA
ATOM     22  C   UNL     1       6.130   6.511  16.830  0.00  0.00    +0.000 C 
ATOM     23  C   UNL     1       5.165   6.114  15.706  0.00  0.00    +0.000 C 
ENDBRANCH  17  18
ENDBRANCH  16  17
ENDBRANCH   2  16
TORSDOF 4
ENDMDL
MODEL 9
REMARK VINA RESULT:      -7.0      3.259      6.326
REMARK  Name = 
REMARK  4 active torsions:
REMARK  status: ('A' for Active; 'I' for Inactive)
REMARK    1  A    between atoms: C_2  and  C_3
REMARK    2  A    between atoms: C_3  and  C_4
REMARK    3  A    between atoms: C_4  and  N_5
REMARK    4  A    between atoms: C_18  and  C_19
REMARK                            x       y       z     vdW  Elec       q    Type
REMARK                         _______ _______ _______ _____ _____    ______ ____
ROOT
ATOM      1  C   UNL     1       2.189   6.238  17.913  0.00  0.00    +0.000 C 
ATOM      2  C   UNL     1       2.719   5.043  17.594  0.00  0.00    +0.000 C 
ATOM      3  C   UNL     1       4.132   5.265  17.254  0.00  0.00    +0.000 A 
ATOM      4  C   UNL     1       5.103   4.340  16.897  0.00  0.00    +0.000 A 
ATOM      5  C   UNL     1       6.397   4.800  16.646  0.00  0.00    +0.000 A 
ATOM      6  C   UNL     1       6.704   6.162  16.759  0.00  0.00    +0.000 A 
ATOM      7  C   UNL     1       5.725   7.097  17.123  0.00  0.00    +0.000 A 
ATOM      8  C   UNL     1       4.440   6.635  17.367  0.00  0.00    +0.000 A 
ATOM      9  C   UNL     1       3.193   7.285  17.796  0.00  0.00    +0.000 C 
ATOM     10  C   UNL     1       3.019   8.590  18.065  0.00  0.00    +0.000 C 
ENDROOT
BRANCH  10  11
ATOM     11  C   UNL     1       1.781   9.095  18.553  0.00  0.00    +0.000 A 
ATOM     12  C   UNL     1       0.746   9.709  17.867  0.00  0.00    +0.000 A 
ATOM     13  C   UNL     1      -0.346  10.066  18.713  0.00  0.00    +0.000 A 
ATOM     14  C   UNL     1      -0.120   9.706  20.021  0.00  0.00    +0.000 A 
ATOM     15  S   UNL     1       1.403   8.959  20.227  0.00  0.00    +0.000 S 
ENDBRANCH  10  11
BRANCH   2  16
ATOM     16  C   UNL     1       2.091   3.691  17.604  0.00  0.00    +0.000 C 
BRANCH  16  17
ATOM     17  C   UNL     1       1.189   3.398  18.818  0.00  0.00    +0.000 C 
BRANCH  17  18
ATOM     18  N   UNL     1       1.493   2.104  19.467  0.00  0.00    +0.000 NA
ATOM     19  C   UNL     1       1.320   2.191  20.937  0.00  0.00    +0.000 C 
ATOM     20  C   UNL     1       2.431   2.975  21.668  0.00  0.00    +0.000 C 
ATOM     21  O   UNL     1       3.749   2.538  21.309  0.00  0.00    +0.000 OA
ATOM     22  C   UNL     1       3.929   2.538  19.888  0.00  0.00    +0.000 C 
ATOM     23  C   UNL     1       2.878   1.640  19.222  0.00  0.00    +0.000 C 
ENDBRANCH  17  18
ENDBRANCH  16  17
ENDBRANCH   2  16
TORSDOF 4
ENDMDL
