MODEL 1
REMARK VINA RESULT:      -7.4      0.000      0.000
REMARK  Name = 
REMARK  3 active torsions:
REMARK  status: ('A' for Active; 'I' for Inactive)
REMARK    1  A    between atoms: C_2  and  C_3
REMARK    2  A    between atoms: C_10  and  C_11
REMARK    3  A    between atoms: C_15  and  C_16
REMARK                            x       y       z     vdW  Elec       q    Type
REMARK                         _______ _______ _______ _____ _____    ______ ____
ROOT
ATOM      1  C   UNL     1       3.155   2.324  19.207  0.00  0.00    +0.000 C 
ATOM      2  F   UNL     1       2.177   1.386  19.330  0.00  0.00    +0.000 F 
ATOM      3  C   UNL     1       3.692   2.294  17.780  0.00  0.00    +0.000 C 
ATOM      4  C   UNL     1       4.175   3.721  17.557  0.00  0.00    +0.000 C 
ATOM      5  N   UNL     1       3.199   4.514  18.281  0.00  0.00    +0.000 N 
ATOM      6  C   UNL     1       3.092   5.865  18.196  0.00  0.00    +0.000 A 
ATOM      7  N   UNL     1       2.241   6.590  18.895  0.00  0.00    +0.000 NA
ATOM      8  C   UNL     1       2.354   7.939  18.575  0.00  0.00    +0.000 A 
ATOM      9  C   UNL     1       3.287   8.223  17.600  0.00  0.00    +0.000 A 
ATOM     10  S   UNL     1       4.075   6.796  17.111  0.00  0.00    +0.000 S 
ATOM     11  C   UNL     1       2.569   3.741  19.353  0.00  0.00    +0.000 C 
ENDROOT
BRANCH   8  12
ATOM     12  C   UNL     1       1.537   8.966  19.216  0.00  0.00    +0.000 A 
ATOM     13  C   UNL     1       1.186  10.121  18.521  0.00  0.00    +0.000 A 
ATOM     14  C   UNL     1       0.408  11.068  19.162  0.00  0.00    +0.000 A 
ATOM     15  N   UNL     1      -0.037  10.944  20.433  0.00  0.00    +0.000 NA
ATOM     16  C   UNL     1       0.299   9.815  21.113  0.00  0.00    +0.000 A 
ATOM     17  C   UNL     1       1.082   8.815  20.533  0.00  0.00    +0.000 A 
BRANCH  16  18
ATOM     18  C   UNL     1      -0.181   9.621  22.547  0.00  0.00    +0.000 C 
ATOM     19  F   UNL     1      -1.000   8.549  22.734  0.00  0.00    +0.000 F 
ATOM     20  F   UNL     1       0.856   9.455  23.423  0.00  0.00    +0.000 F 
ATOM     21  F   UNL     1      -0.872  10.704  23.012  0.00  0.00    +0.000 F 
ENDBRANCH  16  18
ENDBRANCH   8  12
BRANCH   1  23
ATOM     22  N   UNL     1       5.060   1.856  20.962  0.00  0.00    +0.000 NA
ATOM     23  C   UNL     1       4.210   2.053  20.197  0.00  0.00    +0.000 C 
ENDBRANCH   1  23
TORSDOF 3
ENDMDL
MODEL 2
REMARK VINA RESULT:      -7.3      2.449      3.170
REMARK  Name = 
REMARK  3 active torsions:
REMARK  status: ('A' for Active; 'I' for Inactive)
REMARK    1  A    between atoms: C_2  and  C_3
REMARK    2  A    between atoms: C_10  and  C_11
REMARK    3  A    between atoms: C_15  and  C_16
REMARK                            x       y       z     vdW  Elec       q    Type
REMARK                         _______ _______ _______ _____ _____    ______ ____
ROOT
ATOM      1  C   UNL     1       4.558   4.664  19.073  0.00  0.00    +0.000 C 
ATOM      2  F   UNL     1       4.319   3.379  19.453  0.00  0.00    +0.000 F 
ATOM      3  C   UNL     1       4.249   4.804  17.586  0.00  0.00    +0.000 C 
ATOM      4  C   UNL     1       3.852   6.267  17.446  0.00  0.00    +0.000 C 
ATOM      5  N   UNL     1       3.139   6.532  18.682  0.00  0.00    +0.000 N 
ATOM      6  C   UNL     1       2.411   7.652  18.923  0.00  0.00    +0.000 A 
ATOM      7  N   UNL     1       1.808   7.917  20.066  0.00  0.00    +0.000 NA
ATOM      8  C   UNL     1       1.123   9.127  20.000  0.00  0.00    +0.000 A 
ATOM      9  C   UNL     1       1.195   9.763  18.779  0.00  0.00    +0.000 A 
ATOM     10  S   UNL     1       2.172   8.869  17.710  0.00  0.00    +0.000 S 
ATOM     11  C   UNL     1       3.561   5.624  19.750  0.00  0.00    +0.000 C 
ENDROOT
BRANCH   8  12
ATOM     12  C   UNL     1       0.382   9.667  21.137  0.00  0.00    +0.000 A 
ATOM     13  C   UNL     1       0.558   9.130  22.410  0.00  0.00    +0.000 A 
ATOM     14  C   UNL     1      -0.160   9.671  23.461  0.00  0.00    +0.000 A 
ATOM     15  N   UNL     1      -1.030  10.697  23.330  0.00  0.00    +0.000 NA
ATOM     16  C   UNL     1      -1.201  11.229  22.089  0.00  0.00    +0.000 A 
ATOM     17  C   UNL     1      -0.512  10.734  20.980  0.00  0.00    +0.000 A 
BRANCH  16  18
ATOM     18  C   UNL     1      -2.165  12.391  21.886  0.00  0.00    +0.000 C 
ATOM     19  F   UNL     1      -2.572  12.577  20.600  0.00  0.00    +0.000 F 
ATOM     20  F   UNL     1      -3.308  12.251  22.622  0.00  0.00    +0.000 F 
ATOM     21  F   UNL     1      -1.628  13.584  22.283  0.00  0.00    +0.000 F 
ENDBRANCH  16  18
ENDBRANCH   8  12
BRANCH   1  23
ATOM     22  N   UNL     1       7.057   5.257  19.645  0.00  0.00    +0.000 NA
ATOM     23  C   UNL     1       5.956   5.005  19.379  0.00  0.00    +0.000 C 
ENDBRANCH   1  23
TORSDOF 3
ENDMDL
MODEL 3
REMARK VINA RESULT:      -6.9      2.927      3.843
REMARK  Name = 
REMARK  3 active torsions:
REMARK  status: ('A' for Active; 'I' for Inactive)
REMARK    1  A    between atoms: C_2  and  C_3
REMARK    2  A    between atoms: C_10  and  C_11
REMARK    3  A    between atoms: C_15  and  C_16
REMARK                            x       y       z     vdW  Elec       q    Type
REMARK                         _______ _______ _______ _____ _____    ______ ____
ROOT
ATOM      1  C   UNL     1       6.455   4.949  14.744  0.00  0.00    +0.000 C 
ATOM      2  F   UNL     1       7.439   5.687  14.161  0.00  0.00    +0.000 F 
ATOM      3  C   UNL     1       7.083   4.013  15.771  0.00  0.00    +0.000 C 
ATOM      4  C   UNL     1       5.970   3.811  16.789  0.00  0.00    +0.000 C 
ATOM      5  N   UNL     1       5.324   5.109  16.830  0.00  0.00    +0.000 N 
ATOM      6  C   UNL     1       4.401   5.481  17.754  0.00  0.00    +0.000 A 
ATOM      7  N   UNL     1       3.774   6.641  17.758  0.00  0.00    +0.000 NA
ATOM      8  C   UNL     1       2.906   6.736  18.841  0.00  0.00    +0.000 A 
ATOM      9  C   UNL     1       2.904   5.637  19.675  0.00  0.00    +0.000 A 
ATOM     10  S   UNL     1       3.960   4.445  19.075  0.00  0.00    +0.000 S 
ATOM     11  C   UNL     1       5.527   5.849  15.582  0.00  0.00    +0.000 C 
ENDROOT
BRANCH   8  12
ATOM     12  C   UNL     1       2.075   7.914  19.074  0.00  0.00    +0.000 A 
ATOM     13  C   UNL     1       1.892   8.855  18.064  0.00  0.00    +0.000 A 
ATOM     14  C   UNL     1       1.093   9.956  18.323  0.00  0.00    +0.000 A 
ATOM     15  N   UNL     1       0.476  10.178  19.505  0.00  0.00    +0.000 NA
ATOM     16  C   UNL     1       0.648   9.257  20.492  0.00  0.00    +0.000 A 
ATOM     17  C   UNL     1       1.439   8.122  20.305  0.00  0.00    +0.000 A 
BRANCH  16  18
ATOM     18  C   UNL     1      -0.031   9.455  21.842  0.00  0.00    +0.000 C 
ATOM     19  F   UNL     1       0.822   9.633  22.888  0.00  0.00    +0.000 F 
ATOM     20  F   UNL     1      -0.864  10.538  21.850  0.00  0.00    +0.000 F 
ATOM     21  F   UNL     1      -0.822   8.394  22.183  0.00  0.00    +0.000 F 
ENDBRANCH  16  18
ENDBRANCH   8  12
BRANCH   1  23
ATOM     22  N   UNL     1       5.133   3.614  12.901  0.00  0.00    +0.000 NA
ATOM     23  C   UNL     1       5.724   4.211  13.701  0.00  0.00    +0.000 C 
ENDBRANCH   1  23
TORSDOF 3
ENDMDL
MODEL 4
REMARK VINA RESULT:      -6.9      4.260      6.672
REMARK  Name = 
REMARK  3 active torsions:
REMARK  status: ('A' for Active; 'I' for Inactive)
REMARK    1  A    between atoms: C_2  and  C_3
REMARK    2  A    between atoms: C_10  and  C_11
REMARK    3  A    between atoms: C_15  and  C_16
REMARK                            x       y       z     vdW  Elec       q    Type
REMARK                         _______ _______ _______ _____ _____    ______ ____
ROOT
ATOM      1  C   UNL     1       5.502   3.253  11.710  0.00  0.00    +0.000 C 
ATOM      2  F   UNL     1       4.694   3.656  10.692  0.00  0.00    +0.000 F 
ATOM      3  C   UNL     1       6.792   4.066  11.667  0.00  0.00    +0.000 C 
ATOM      4  C   UNL     1       7.244   4.083  13.121  0.00  0.00    +0.000 C 
ATOM      5  N   UNL     1       5.993   4.163  13.852  0.00  0.00    +0.000 N 
ATOM      6  C   UNL     1       5.894   4.416  15.182  0.00  0.00    +0.000 A 
ATOM      7  N   UNL     1       4.761   4.435  15.856  0.00  0.00    +0.000 NA
ATOM      8  C   UNL     1       4.981   4.745  17.194  0.00  0.00    +0.000 A 
ATOM      9  C   UNL     1       6.299   4.988  17.519  0.00  0.00    +0.000 A 
ATOM     10  S   UNL     1       7.288   4.777  16.152  0.00  0.00    +0.000 S 
ATOM     11  C   UNL     1       4.880   3.616  13.072  0.00  0.00    +0.000 C 
ENDROOT
BRANCH   8  12
ATOM     12  C   UNL     1       3.894   4.815  18.168  0.00  0.00    +0.000 A 
ATOM     13  C   UNL     1       3.600   6.018  18.805  0.00  0.00    +0.000 A 
ATOM     14  C   UNL     1       2.561   6.046  19.719  0.00  0.00    +0.000 A 
ATOM     15  N   UNL     1       1.808   4.969  20.036  0.00  0.00    +0.000 NA
ATOM     16  C   UNL     1       2.089   3.794  19.411  0.00  0.00    +0.000 A 
ATOM     17  C   UNL     1       3.122   3.689  18.479  0.00  0.00    +0.000 A 
BRANCH  16  18
ATOM     18  C   UNL     1       1.266   2.550  19.727  0.00  0.00    +0.000 C 
ATOM     19  F   UNL     1       1.907   1.370  19.499  0.00  0.00    +0.000 F 
ATOM     20  F   UNL     1       0.865   2.511  21.032  0.00  0.00    +0.000 F 
ATOM     21  F   UNL     1       0.112   2.494  18.997  0.00  0.00    +0.000 F 
ENDBRANCH  16  18
ENDBRANCH   8  12
BRANCH   1  23
ATOM     22  N   UNL     1       5.952   0.668  11.507  0.00  0.00    +0.000 NA
ATOM     23  C   UNL     1       5.757   1.809  11.580  0.00  0.00    +0.000 C 
ENDBRANCH   1  23
TORSDOF 3
ENDMDL
MODEL 5
REMARK VINA RESULT:      -6.8      3.678      8.487
REMARK  Name = 
REMARK  3 active torsions:
REMARK  status: ('A' for Active; 'I' for Inactive)
REMARK    1  A    between atoms: C_2  and  C_3
REMARK    2  A    between atoms: C_10  and  C_11
REMARK    3  A    between atoms: C_15  and  C_16
REMARK                            x       y       z     vdW  Elec       q    Type
REMARK                         _______ _______ _______ _____ _____    ______ ____
ROOT
ATOM      1  C   UNL     1       0.601  11.180  19.132  0.00  0.00    +0.000 C 
ATOM      2  F   UNL     1       0.047  11.993  18.191  0.00  0.00    +0.000 F 
ATOM      3  C   UNL     1      -0.464  10.210  19.636  0.00  0.00    +0.000 C 
ATOM      4  C   UNL     1       0.344   8.993  20.061  0.00  0.00    +0.000 C 
ATOM      5  N   UNL     1       1.407   8.943  19.075  0.00  0.00    +0.000 N 
ATOM      6  C   UNL     1       2.261   7.900  18.917  0.00  0.00    +0.000 A 
ATOM      7  N   UNL     1       3.261   7.878  18.058  0.00  0.00    +0.000 NA
ATOM      8  C   UNL     1       3.942   6.666  18.114  0.00  0.00    +0.000 A 
ATOM      9  C   UNL     1       3.426   5.758  19.013  0.00  0.00    +0.000 A 
ATOM     10  S   UNL     1       2.104   6.439  19.840  0.00  0.00    +0.000 S 
ATOM     11  C   UNL     1       1.666  10.264  18.499  0.00  0.00    +0.000 C 
ENDROOT
BRANCH   8  12
ATOM     12  C   UNL     1       5.104   6.384  17.276  0.00  0.00    +0.000 A 
ATOM     13  C   UNL     1       6.328   6.992  17.545  0.00  0.00    +0.000 A 
ATOM     14  C   UNL     1       7.407   6.695  16.730  0.00  0.00    +0.000 A 
ATOM     15  N   UNL     1       7.348   5.847  15.680  0.00  0.00    +0.000 NA
ATOM     16  C   UNL     1       6.155   5.247  15.418  0.00  0.00    +0.000 A 
ATOM     17  C   UNL     1       5.023   5.497  16.195  0.00  0.00    +0.000 A 
BRANCH  16  18
ATOM     18  C   UNL     1       6.034   4.276  14.249  0.00  0.00    +0.000 C 
ATOM     19  F   UNL     1       6.889   4.517  13.217  0.00  0.00    +0.000 F 
ATOM     20  F   UNL     1       6.257   2.981  14.625  0.00  0.00    +0.000 F 
ATOM     21  F   UNL     1       4.781   4.278  13.702  0.00  0.00    +0.000 F 
ENDBRANCH  16  18
ENDBRANCH   8  12
BRANCH   1  23
ATOM     22  N   UNL     1       1.603  12.669  21.057  0.00  0.00    +0.000 NA
ATOM     23  C   UNL     1       1.151  12.006  20.219  0.00  0.00    +0.000 C 
ENDBRANCH   1  23
TORSDOF 3
ENDMDL
MODEL 6
REMARK VINA RESULT:      -6.7      5.210      8.547
REMARK  Name = 
REMARK  3 active torsions:
REMARK  status: ('A' for Active; 'I' for Inactive)
REMARK    1  A    between atoms: C_2  and  C_3
REMARK    2  A    between atoms: C_10  and  C_11
REMARK    3  A    between atoms: C_15  and  C_16
REMARK                            x       y       z     vdW  Elec       q    Type
REMARK                         _______ _______ _______ _____ _____    ______ ____
ROOT
ATOM      1  C   UNL     1       2.276   2.599  19.665  0.00  0.00    +0.000 C 
ATOM      2  F   UNL     1       1.635   1.398  19.650  0.00  0.00    +0.000 F 
ATOM      3  C   UNL     1       3.369   2.562  20.729  0.00  0.00    +0.000 C 
ATOM      4  C   UNL     1       4.402   3.547  20.203  0.00  0.00    +0.000 C 
ATOM      5  N   UNL     1       4.347   3.347  18.767  0.00  0.00    +0.000 N 
ATOM      6  C   UNL     1       5.243   3.857  17.885  0.00  0.00    +0.000 A 
ATOM      7  N   UNL     1       5.162   3.720  16.576  0.00  0.00    +0.000 NA
ATOM      8  C   UNL     1       6.237   4.333  15.941  0.00  0.00    +0.000 A 
ATOM      9  C   UNL     1       7.152   4.916  16.793  0.00  0.00    +0.000 A 
ATOM     10  S   UNL     1       6.640   4.745  18.407  0.00  0.00    +0.000 S 
ATOM     11  C   UNL     1       3.046   2.820  18.350  0.00  0.00    +0.000 C 
ENDROOT
BRANCH   8  12
ATOM     12  C   UNL     1       6.384   4.345  14.488  0.00  0.00    +0.000 A 
ATOM     13  C   UNL     1       7.501   4.933  13.900  0.00  0.00    +0.000 A 
ATOM     14  C   UNL     1       7.605   4.921  12.520  0.00  0.00    +0.000 A 
ATOM     15  N   UNL     1       6.683   4.371  11.699  0.00  0.00    +0.000 NA
ATOM     16  C   UNL     1       5.593   3.790  12.271  0.00  0.00    +0.000 A 
ATOM     17  C   UNL     1       5.418   3.765  13.656  0.00  0.00    +0.000 A 
BRANCH  16  18
ATOM     18  C   UNL     1       4.525   3.149  11.392  0.00  0.00    +0.000 C 
ATOM     19  F   UNL     1       3.333   2.928  12.013  0.00  0.00    +0.000 F 
ATOM     20  F   UNL     1       4.238   3.905  10.290  0.00  0.00    +0.000 F 
ATOM     21  F   UNL     1       4.919   1.936  10.901  0.00  0.00    +0.000 F 
ENDBRANCH  16  18
ENDBRANCH   8  12
BRANCH   1  23
ATOM     22  N   UNL     1       0.543   4.523  20.136  0.00  0.00    +0.000 NA
ATOM     23  C   UNL     1       1.294   3.665  19.923  0.00  0.00    +0.000 C 
ENDBRANCH   1  23
TORSDOF 3
ENDMDL
MODEL 7
REMARK VINA RESULT:      -6.7      3.449      8.143
REMARK  Name = 
REMARK  3 active torsions:
REMARK  status: ('A' for Active; 'I' for Inactive)
REMARK    1  A    between atoms: C_2  and  C_3
REMARK    2  A    between atoms: C_10  and  C_11
REMARK    3  A    between atoms: C_15  and  C_16
REMARK                            x       y       z     vdW  Elec       q    Type
REMARK                         _______ _______ _______ _____ _____    ______ ____
ROOT
ATOM      1  C   UNL     1       0.781  11.749  19.421  0.00  0.00    +0.000 C 
ATOM      2  F   UNL     1       0.362  12.471  18.346  0.00  0.00    +0.000 F 
ATOM      3  C   UNL     1      -0.440  11.243  20.182  0.00  0.00    +0.000 C 
ATOM      4  C   UNL     1       0.062   9.963  20.837  0.00  0.00    +0.000 C 
ATOM      5  N   UNL     1       0.962   9.415  19.840  0.00  0.00    +0.000 N 
ATOM      6  C   UNL     1       1.491   8.166  19.886  0.00  0.00    +0.000 A 
ATOM      7  N   UNL     1       2.352   7.688  19.008  0.00  0.00    +0.000 NA
ATOM      8  C   UNL     1       2.694   6.374  19.309  0.00  0.00    +0.000 A 
ATOM      9  C   UNL     1       2.057   5.852  20.415  0.00  0.00    +0.000 A 
ATOM     10  S   UNL     1       1.056   7.032  21.125  0.00  0.00    +0.000 S 
ATOM     11  C   UNL     1       1.494  10.463  18.965  0.00  0.00    +0.000 C 
ENDROOT
BRANCH   8  12
ATOM     12  C   UNL     1       3.645   5.610  18.505  0.00  0.00    +0.000 A 
ATOM     13  C   UNL     1       3.190   4.656  17.598  0.00  0.00    +0.000 A 
ATOM     14  C   UNL     1       4.122   3.956  16.851  0.00  0.00    +0.000 A 
ATOM     15  N   UNL     1       5.457   4.140  16.949  0.00  0.00    +0.000 NA
ATOM     16  C   UNL     1       5.905   5.076  17.830  0.00  0.00    +0.000 A 
ATOM     17  C   UNL     1       5.025   5.820  18.618  0.00  0.00    +0.000 A 
BRANCH  16  18
ATOM     18  C   UNL     1       7.401   5.328  17.975  0.00  0.00    +0.000 C 
ATOM     19  F   UNL     1       7.874   6.383  17.256  0.00  0.00    +0.000 F 
ATOM     20  F   UNL     1       7.763   5.568  19.271  0.00  0.00    +0.000 F 
ATOM     21  F   UNL     1       8.148   4.250  17.590  0.00  0.00    +0.000 F 
ENDBRANCH  16  18
ENDBRANCH   8  12
BRANCH   1  23
ATOM     22  N   UNL     1       2.325  13.280  20.904  0.00  0.00    +0.000 NA
ATOM     23  C   UNL     1       1.641  12.596  20.264  0.00  0.00    +0.000 C 
ENDBRANCH   1  23
TORSDOF 3
ENDMDL
MODEL 8
REMARK VINA RESULT:      -6.6      3.467      8.297
REMARK  Name = 
REMARK  3 active torsions:
REMARK  status: ('A' for Active; 'I' for Inactive)
REMARK    1  A    between atoms: C_2  and  C_3
REMARK    2  A    between atoms: C_10  and  C_11
REMARK    3  A    between atoms: C_15  and  C_16
REMARK                            x       y       z     vdW  Elec       q    Type
REMARK                         _______ _______ _______ _____ _____    ______ ____
ROOT
ATOM      1  C   UNL     1       0.973  12.505  18.999  0.00  0.00    +0.000 C 
ATOM      2  F   UNL     1       0.397  13.137  17.941  0.00  0.00    +0.000 F 
ATOM      3  C   UNL     1      -0.083  12.278  20.075  0.00  0.00    +0.000 C 
ATOM      4  C   UNL     1       0.413  11.034  20.797  0.00  0.00    +0.000 C 
ATOM      5  N   UNL     1       0.989  10.241  19.728  0.00  0.00    +0.000 N 
ATOM      6  C   UNL     1       1.373   8.945  19.852  0.00  0.00    +0.000 A 
ATOM      7  N   UNL     1       1.946   8.242  18.896  0.00  0.00    +0.000 NA
ATOM      8  C   UNL     1       2.201   6.940  19.316  0.00  0.00    +0.000 A 
ATOM      9  C   UNL     1       1.787   6.660  20.602  0.00  0.00    +0.000 A 
ATOM     10  S   UNL     1       1.117   8.051  21.317  0.00  0.00    +0.000 S 
ATOM     11  C   UNL     1       1.414  11.082  18.606  0.00  0.00    +0.000 C 
ENDROOT
BRANCH   8  12
ATOM     12  C   UNL     1       2.847   5.953  18.455  0.00  0.00    +0.000 A 
ATOM     13  C   UNL     1       2.303   4.678  18.318  0.00  0.00    +0.000 A 
ATOM     14  C   UNL     1       2.942   3.772  17.490  0.00  0.00    +0.000 A 
ATOM     15  N   UNL     1       4.071   4.048  16.800  0.00  0.00    +0.000 NA
ATOM     16  C   UNL     1       4.602   5.294  16.927  0.00  0.00    +0.000 A 
ATOM     17  C   UNL     1       4.014   6.261  17.745  0.00  0.00    +0.000 A 
BRANCH  16  18
ATOM     18  C   UNL     1       5.871   5.661  16.166  0.00  0.00    +0.000 C 
ATOM     19  F   UNL     1       5.697   5.864  14.831  0.00  0.00    +0.000 F 
ATOM     20  F   UNL     1       6.452   6.801  16.645  0.00  0.00    +0.000 F 
ATOM     21  F   UNL     1       6.834   4.697  16.273  0.00  0.00    +0.000 F 
ENDBRANCH  16  18
ENDBRANCH   8  12
BRANCH   1  23
ATOM     22  N   UNL     1       2.996  13.936  19.887  0.00  0.00    +0.000 NA
ATOM     23  C   UNL     1       2.095  13.319  19.493  0.00  0.00    +0.000 C 
ENDBRANCH   1  23
TORSDOF 3
ENDMDL
MODEL 9
REMARK VINA RESULT:      -6.6      1.903      2.518
REMARK  Name = 
REMARK  3 active torsions:
REMARK  status: ('A' for Active; 'I' for Inactive)
REMARK    1  A    between atoms: C_2  and  C_3
REMARK    2  A    between atoms: C_10  and  C_11
REMARK    3  A    between atoms: C_15  and  C_16
REMARK                            x       y       z     vdW  Elec       q    Type
REMARK                         _______ _______ _______ _____ _____    ______ ____
ROOT
ATOM      1  C   UNL     1       2.619   2.769  19.369  0.00  0.00    +0.000 C 
ATOM      2  F   UNL     1       1.739   1.757  19.599  0.00  0.00    +0.000 F 
ATOM      3  C   UNL     1       2.720   3.004  17.866  0.00  0.00    +0.000 C 
ATOM      4  C   UNL     1       3.087   4.478  17.766  0.00  0.00    +0.000 C 
ATOM      5  N   UNL     1       2.347   5.076  18.861  0.00  0.00    +0.000 N 
ATOM      6  C   UNL     1       2.191   6.412  19.045  0.00  0.00    +0.000 A 
ATOM      7  N   UNL     1       1.564   6.955  20.070  0.00  0.00    +0.000 NA
ATOM      8  C   UNL     1       1.550   8.343  19.969  0.00  0.00    +0.000 A 
ATOM      9  C   UNL     1       2.155   8.842  18.835  0.00  0.00    +0.000 A 
ATOM     10  S   UNL     1       2.798   7.571  17.905  0.00  0.00    +0.000 S 
ATOM     11  C   UNL     1       2.071   4.100  19.917  0.00  0.00    +0.000 C 
ENDROOT
BRANCH   8  12
ATOM     12  C   UNL     1       0.933   9.194  20.982  0.00  0.00    +0.000 A 
ATOM     13  C   UNL     1       0.572   8.664  22.219  0.00  0.00    +0.000 A 
ATOM     14  C   UNL     1      -0.007   9.504  23.154  0.00  0.00    +0.000 A 
ATOM     15  N   UNL     1      -0.248  10.817  22.941  0.00  0.00    +0.000 NA
ATOM     16  C   UNL     1       0.107  11.339  21.736  0.00  0.00    +0.000 A 
ATOM     17  C   UNL     1       0.695  10.553  20.743  0.00  0.00    +0.000 A 
BRANCH  16  18
ATOM     18  C   UNL     1      -0.137  12.815  21.445  0.00  0.00    +0.000 C 
ATOM     19  F   UNL     1       0.901  13.456  20.839  0.00  0.00    +0.000 F 
ATOM     20  F   UNL     1      -1.221  13.011  20.636  0.00  0.00    +0.000 F 
ATOM     21  F   UNL     1      -0.404  13.528  22.580  0.00  0.00    +0.000 F 
ENDBRANCH  16  18
ENDBRANCH   8  12
BRANCH   1  23
ATOM     22  N   UNL     1       4.951   2.119  20.404  0.00  0.00    +0.000 NA
ATOM     23  C   UNL     1       3.921   2.417  19.959  0.00  0.00    +0.000 C 
ENDBRANCH   1  23
TORSDOF 3
ENDMDL
