MODEL 1
REMARK VINA RESULT:      -6.7      0.000      0.000
REMARK  Name = 
REMARK  4 active torsions:
REMARK  status: ('A' for Active; 'I' for Inactive)
REMARK    1  A    between atoms: C_2  and  C_3
REMARK    2  A    between atoms: N_13  and  C_14
REMARK    3  A    between atoms: N_13  and  C_20
REMARK    4  A    between atoms: C_14  and  C_15
REMARK                            x       y       z     vdW  Elec       q    Type
REMARK                         _______ _______ _______ _____ _____    ______ ____
ROOT
ATOM      1  O   UNL     1       0.347  12.183  19.749  0.00  0.00    +0.000 OA
ATOM      2  C   UNL     1      -0.187  11.131  19.384  0.00  0.00    +0.000 C 
ATOM      3  N   UNL     1      -1.569  11.130  19.026  0.00  0.00    +0.000 N 
ENDROOT
BRANCH   2   4
ATOM      4  C   UNL     1       0.628   9.932  19.283  0.00  0.00    +0.000 A 
ATOM      5  S   UNL     1       1.673   9.819  17.920  0.00  0.00    +0.000 S 
ATOM      6  C   UNL     1       2.302   8.300  18.409  0.00  0.00    +0.000 A 
ATOM      7  C   UNL     1       3.259   7.523  17.724  0.00  0.00    +0.000 A 
ATOM      8  C   UNL     1       3.669   6.309  18.273  0.00  0.00    +0.000 A 
ATOM      9  C   UNL     1       3.137   5.868  19.475  0.00  0.00    +0.000 A 
ATOM     10  C   UNL     1       2.190   6.646  20.153  0.00  0.00    +0.000 A 
ATOM     11  C   UNL     1       1.752   7.891  19.626  0.00  0.00    +0.000 A 
ATOM     12  C   UNL     1       0.824   8.873  20.141  0.00  0.00    +0.000 A 
ATOM     13 CL   UNL     1       0.111   8.704  21.696  0.00  0.00    +0.000 Cl
ENDBRANCH   2   4
BRANCH   3  14
ATOM     14  C   UNL     1      -2.239  10.046  18.220  0.00  0.00    +0.000 C 
ATOM     15  C   UNL     1      -1.857   9.996  16.722  0.00  0.00    +0.000 C 
ATOM     16  C   UNL     1      -2.594  11.031  15.884  0.00  0.00    +0.000 C 
ATOM     17  N   UNL     1      -4.044  10.886  15.990  0.00  0.00    +0.000 NA
ATOM     18  C   UNL     1      -4.477  10.983  17.383  0.00  0.00    +0.000 C 
ATOM     19  C   UNL     1      -3.782   9.938  18.252  0.00  0.00    +0.000 C 
ATOM     20  H   UNL     1      -4.322   9.977  15.617  0.00  0.00    +0.000 HD
ENDBRANCH   3  14
BRANCH   3  21
ATOM     21  C   UNL     1      -2.232  12.426  19.294  0.00  0.00    +0.000 C 
BRANCH  21  22
ATOM     22  C   UNL     1      -2.933  12.558  20.619  0.00  0.00    +0.000 A 
ATOM     23  C   UNL     1      -2.458  12.468  21.914  0.00  0.00    +0.000 A 
ATOM     24  C   UNL     1      -3.489  12.662  22.886  0.00  0.00    +0.000 A 
ATOM     25  C   UNL     1      -4.705  12.939  22.310  0.00  0.00    +0.000 A 
ATOM     26  S   UNL     1      -4.611  12.959  20.606  0.00  0.00    +0.000 S 
ENDBRANCH  21  22
ENDBRANCH   3  21
TORSDOF 4
ENDMDL
MODEL 2
REMARK VINA RESULT:      -6.3      4.430      8.999
REMARK  Name = 
REMARK  4 active torsions:
REMARK  status: ('A' for Active; 'I' for Inactive)
REMARK    1  A    between atoms: C_2  and  C_3
REMARK    2  A    between atoms: N_13  and  C_14
REMARK    3  A    between atoms: N_13  and  C_20
REMARK    4  A    between atoms: C_14  and  C_15
REMARK                            x       y       z     vdW  Elec       q    Type
REMARK                         _______ _______ _______ _____ _____    ______ ____
ROOT
ATOM      1  O   UNL     1       4.859   6.242  19.734  0.00  0.00    +0.000 OA
ATOM      2  C   UNL     1       3.721   6.060  19.290  0.00  0.00    +0.000 C 
ATOM      3  N   UNL     1       3.417   4.843  18.607  0.00  0.00    +0.000 N 
ENDROOT
BRANCH   2   4
ATOM      4  C   UNL     1       2.709   7.077  19.524  0.00  0.00    +0.000 A 
ATOM      5  S   UNL     1       2.021   7.135  21.100  0.00  0.00    +0.000 S 
ATOM      6  C   UNL     1       1.013   8.468  20.713  0.00  0.00    +0.000 A 
ATOM      7  C   UNL     1       0.085   9.099  21.568  0.00  0.00    +0.000 A 
ATOM      8  C   UNL     1      -0.650  10.185  21.090  0.00  0.00    +0.000 A 
ATOM      9  C   UNL     1      -0.474  10.633  19.790  0.00  0.00    +0.000 A 
ATOM     10  C   UNL     1       0.453  10.005  18.949  0.00  0.00    +0.000 A 
ATOM     11  C   UNL     1       1.222   8.899  19.402  0.00  0.00    +0.000 A 
ATOM     12  C   UNL     1       2.245   8.114  18.746  0.00  0.00    +0.000 A 
ATOM     13 CL   UNL     1       2.816   8.517  17.177  0.00  0.00    +0.000 Cl
ENDBRANCH   2   4
BRANCH   3  14
ATOM     14  C   UNL     1       2.020   4.332  18.360  0.00  0.00    +0.000 C 
ATOM     15  C   UNL     1       1.263   3.827  19.611  0.00  0.00    +0.000 C 
ATOM     16  C   UNL     1       1.670   2.421  20.027  0.00  0.00    +0.000 C 
ATOM     17  N   UNL     1       1.468   1.454  18.951  0.00  0.00    +0.000 NA
ATOM     18  C   UNL     1       2.208   1.846  17.753  0.00  0.00    +0.000 C 
ATOM     19  C   UNL     1       1.804   3.241  17.284  0.00  0.00    +0.000 C 
ATOM     20  H   UNL     1       0.474   1.400  18.725  0.00  0.00    +0.000 HD
ENDBRANCH   3  14
BRANCH   3  21
ATOM     21  C   UNL     1       4.609   3.993  18.393  0.00  0.00    +0.000 C 
BRANCH  21  22
ATOM     22  C   UNL     1       5.381   4.229  17.124  0.00  0.00    +0.000 A 
ATOM     23  C   UNL     1       4.989   4.192  15.799  0.00  0.00    +0.000 A 
ATOM     24  C   UNL     1       6.066   4.485  14.904  0.00  0.00    +0.000 A 
ATOM     25  C   UNL     1       7.231   4.782  15.569  0.00  0.00    +0.000 A 
ATOM     26  S   UNL     1       7.034   4.702  17.262  0.00  0.00    +0.000 S 
ENDBRANCH  21  22
ENDBRANCH   3  21
TORSDOF 4
ENDMDL
MODEL 3
REMARK VINA RESULT:      -6.3      4.036      8.408
REMARK  Name = 
REMARK  4 active torsions:
REMARK  status: ('A' for Active; 'I' for Inactive)
REMARK    1  A    between atoms: C_2  and  C_3
REMARK    2  A    between atoms: N_13  and  C_14
REMARK    3  A    between atoms: N_13  and  C_20
REMARK    4  A    between atoms: C_14  and  C_15
REMARK                            x       y       z     vdW  Elec       q    Type
REMARK                         _______ _______ _______ _____ _____    ______ ____
ROOT
ATOM      1  O   UNL     1       3.296   7.754  17.972  0.00  0.00    +0.000 OA
ATOM      2  C   UNL     1       2.552   7.228  18.804  0.00  0.00    +0.000 C 
ATOM      3  N   UNL     1       2.560   5.809  18.960  0.00  0.00    +0.000 N 
ENDROOT
BRANCH   2   4
ATOM      4  C   UNL     1       1.723   8.083  19.638  0.00  0.00    +0.000 A 
ATOM      5  S   UNL     1       1.710   7.741  21.325  0.00  0.00    +0.000 S 
ATOM      6  C   UNL     1       0.644   9.038  21.675  0.00  0.00    +0.000 A 
ATOM      7  C   UNL     1       0.131   9.389  22.942  0.00  0.00    +0.000 A 
ATOM      8  C   UNL     1      -0.721  10.488  23.049  0.00  0.00    +0.000 A 
ATOM      9  C   UNL     1      -1.067  11.220  21.924  0.00  0.00    +0.000 A 
ATOM     10  C   UNL     1      -0.551  10.868  20.670  0.00  0.00    +0.000 A 
ATOM     11  C   UNL     1       0.324   9.759  20.523  0.00  0.00    +0.000 A 
ATOM     12  C   UNL     1       0.999   9.222  19.362  0.00  0.00    +0.000 A 
ATOM     13 CL   UNL     1       0.911  10.002  17.833  0.00  0.00    +0.000 Cl
ENDBRANCH   2   4
BRANCH   3  14
ATOM     14  C   UNL     1       2.010   5.081  20.162  0.00  0.00    +0.000 C 
ATOM     15  C   UNL     1       3.000   4.132  20.878  0.00  0.00    +0.000 C 
ATOM     16  C   UNL     1       3.154   2.791  20.176  0.00  0.00    +0.000 C 
ATOM     17  N   UNL     1       1.875   2.098  20.039  0.00  0.00    +0.000 NA
ATOM     18  C   UNL     1       0.910   2.923  19.315  0.00  0.00    +0.000 C 
ATOM     19  C   UNL     1       0.703   4.268  20.007  0.00  0.00    +0.000 C 
ATOM     20  H   UNL     1       1.504   1.885  20.966  0.00  0.00    +0.000 HD
ENDBRANCH   3  14
BRANCH   3  21
ATOM     21  C   UNL     1       3.398   5.126  17.951  0.00  0.00    +0.000 C 
BRANCH  21  22
ATOM     22  C   UNL     1       4.884   5.339  18.059  0.00  0.00    +0.000 A 
ATOM     23  C   UNL     1       5.728   5.327  19.153  0.00  0.00    +0.000 A 
ATOM     24  C   UNL     1       7.089   5.582  18.793  0.00  0.00    +0.000 A 
ATOM     25  C   UNL     1       7.251   5.733  17.438  0.00  0.00    +0.000 A 
ATOM     26  S   UNL     1       5.773   5.578  16.600  0.00  0.00    +0.000 S 
ENDBRANCH  21  22
ENDBRANCH   3  21
TORSDOF 4
ENDMDL
MODEL 4
REMARK VINA RESULT:      -6.3      4.239      8.886
REMARK  Name = 
REMARK  4 active torsions:
REMARK  status: ('A' for Active; 'I' for Inactive)
REMARK    1  A    between atoms: C_2  and  C_3
REMARK    2  A    between atoms: N_13  and  C_14
REMARK    3  A    between atoms: N_13  and  C_20
REMARK    4  A    between atoms: C_14  and  C_15
REMARK                            x       y       z     vdW  Elec       q    Type
REMARK                         _______ _______ _______ _____ _____    ______ ____
ROOT
ATOM      1  O   UNL     1       5.010   6.514  19.197  0.00  0.00    +0.000 OA
ATOM      2  C   UNL     1       3.844   6.278  18.866  0.00  0.00    +0.000 C 
ATOM      3  N   UNL     1       3.503   4.990  18.354  0.00  0.00    +0.000 N 
ENDROOT
BRANCH   2   4
ATOM      4  C   UNL     1       2.841   7.313  19.056  0.00  0.00    +0.000 A 
ATOM      5  S   UNL     1       2.567   8.378  17.732  0.00  0.00    +0.000 S 
ATOM      6  C   UNL     1       1.347   9.251  18.565  0.00  0.00    +0.000 A 
ATOM      7  C   UNL     1       0.627  10.363  18.082  0.00  0.00    +0.000 A 
ATOM      8  C   UNL     1      -0.344  10.950  18.893  0.00  0.00    +0.000 A 
ATOM      9  C   UNL     1      -0.593  10.449  20.162  0.00  0.00    +0.000 A 
ATOM     10  C   UNL     1       0.122   9.342  20.634  0.00  0.00    +0.000 A 
ATOM     11  C   UNL     1       1.115   8.715  19.834  0.00  0.00    +0.000 A 
ATOM     12  C   UNL     1       1.953   7.563  20.080  0.00  0.00    +0.000 A 
ATOM     13 CL   UNL     1       1.776   6.611  21.500  0.00  0.00    +0.000 Cl
ENDBRANCH   2   4
BRANCH   3  14
ATOM     14  C   UNL     1       2.097   4.450  18.276  0.00  0.00    +0.000 C 
ATOM     15  C   UNL     1       1.495   3.959  19.614  0.00  0.00    +0.000 C 
ATOM     16  C   UNL     1       1.974   2.569  20.008  0.00  0.00    +0.000 C 
ATOM     17  N   UNL     1       1.671   1.576  18.981  0.00  0.00    +0.000 NA
ATOM     18  C   UNL     1       2.265   1.954  17.700  0.00  0.00    +0.000 C 
ATOM     19  C   UNL     1       1.784   3.332  17.252  0.00  0.00    +0.000 C 
ATOM     20  H   UNL     1       0.659   1.500  18.869  0.00  0.00    +0.000 HD
ENDBRANCH   3  14
BRANCH   3  21
ATOM     21  C   UNL     1       4.685   4.123  18.150  0.00  0.00    +0.000 C 
BRANCH  21  22
ATOM     22  C   UNL     1       5.421   4.290  16.849  0.00  0.00    +0.000 A 
ATOM     23  C   UNL     1       4.977   4.253  15.540  0.00  0.00    +0.000 A 
ATOM     24  C   UNL     1       6.034   4.464  14.600  0.00  0.00    +0.000 A 
ATOM     25  C   UNL     1       7.239   4.702  15.215  0.00  0.00    +0.000 A 
ATOM     26  S   UNL     1       7.104   4.663  16.916  0.00  0.00    +0.000 S 
ENDBRANCH  21  22
ENDBRANCH   3  21
TORSDOF 4
ENDMDL
MODEL 5
REMARK VINA RESULT:      -6.1      1.469      1.613
REMARK  Name = 
REMARK  4 active torsions:
REMARK  status: ('A' for Active; 'I' for Inactive)
REMARK    1  A    between atoms: C_2  and  C_3
REMARK    2  A    between atoms: N_13  and  C_14
REMARK    3  A    between atoms: N_13  and  C_20
REMARK    4  A    between atoms: C_14  and  C_15
REMARK                            x       y       z     vdW  Elec       q    Type
REMARK                         _______ _______ _______ _____ _____    ______ ____
ROOT
ATOM      1  O   UNL     1       1.570  11.900  18.891  0.00  0.00    +0.000 OA
ATOM      2  C   UNL     1       0.732  10.994  18.929  0.00  0.00    +0.000 C 
ATOM      3  N   UNL     1      -0.649  11.304  18.745  0.00  0.00    +0.000 N 
ENDROOT
BRANCH   2   4
ATOM      4  C   UNL     1       1.190   9.627  19.112  0.00  0.00    +0.000 A 
ATOM      5  S   UNL     1       2.084   8.931  17.816  0.00  0.00    +0.000 S 
ATOM      6  C   UNL     1       2.312   7.447  18.647  0.00  0.00    +0.000 A 
ATOM      7  C   UNL     1       2.985   6.305  18.163  0.00  0.00    +0.000 A 
ATOM      8  C   UNL     1       3.088   5.180  18.981  0.00  0.00    +0.000 A 
ATOM      9  C   UNL     1       2.530   5.182  20.250  0.00  0.00    +0.000 A 
ATOM     10  C   UNL     1       1.868   6.320  20.725  0.00  0.00    +0.000 A 
ATOM     11  C   UNL     1       1.747   7.486  19.923  0.00  0.00    +0.000 A 
ATOM     12  C   UNL     1       1.147   8.774  20.193  0.00  0.00    +0.000 A 
ATOM     13 CL   UNL     1       0.509   9.159  21.742  0.00  0.00    +0.000 Cl
ENDBRANCH   2   4
BRANCH   3  14
ATOM     14  C   UNL     1      -1.709  10.290  18.391  0.00  0.00    +0.000 C 
ATOM     15  C   UNL     1      -1.764   9.874  16.902  0.00  0.00    +0.000 C 
ATOM     16  C   UNL     1      -2.485  10.888  16.026  0.00  0.00    +0.000 C 
ATOM     17  N   UNL     1      -3.851  11.128  16.483  0.00  0.00    +0.000 NA
ATOM     18  C   UNL     1      -3.864  11.582  17.872  0.00  0.00    +0.000 C 
ATOM     19  C   UNL     1      -3.176  10.575  18.790  0.00  0.00    +0.000 C 
ATOM     20  H   UNL     1      -4.391  10.264  16.410  0.00  0.00    +0.000 HD
ENDBRANCH   3  14
BRANCH   3  21
ATOM     21  C   UNL     1      -0.906  12.759  18.673  0.00  0.00    +0.000 C 
BRANCH  21  22
ATOM     22  C   UNL     1      -1.181  13.455  19.979  0.00  0.00    +0.000 A 
ATOM     23  C   UNL     1      -1.598  12.965  21.202  0.00  0.00    +0.000 A 
ATOM     24  C   UNL     1      -1.734  13.996  22.184  0.00  0.00    +0.000 A 
ATOM     25  C   UNL     1      -1.373  15.230  21.698  0.00  0.00    +0.000 A 
ATOM     26  S   UNL     1      -0.881  15.152  20.066  0.00  0.00    +0.000 S 
ENDBRANCH  21  22
ENDBRANCH   3  21
TORSDOF 4
ENDMDL
MODEL 6
REMARK VINA RESULT:      -6.0      6.499      8.874
REMARK  Name = 
REMARK  4 active torsions:
REMARK  status: ('A' for Active; 'I' for Inactive)
REMARK    1  A    between atoms: C_2  and  C_3
REMARK    2  A    between atoms: N_13  and  C_14
REMARK    3  A    between atoms: N_13  and  C_20
REMARK    4  A    between atoms: C_14  and  C_15
REMARK                            x       y       z     vdW  Elec       q    Type
REMARK                         _______ _______ _______ _____ _____    ______ ____
ROOT
ATOM      1  O   UNL     1       6.560   4.334  18.955  0.00  0.00    +0.000 OA
ATOM      2  C   UNL     1       5.719   4.592  18.088  0.00  0.00    +0.000 C 
ATOM      3  N   UNL     1       4.390   4.938  18.475  0.00  0.00    +0.000 N 
ENDROOT
BRANCH   2   4
ATOM      4  C   UNL     1       6.130   4.582  16.693  0.00  0.00    +0.000 A 
ATOM      5  S   UNL     1       5.408   3.391  15.683  0.00  0.00    +0.000 S 
ATOM      6  C   UNL     1       6.251   3.927  14.288  0.00  0.00    +0.000 A 
ATOM      7  C   UNL     1       6.177   3.373  12.993  0.00  0.00    +0.000 A 
ATOM      8  C   UNL     1       6.927   3.944  11.966  0.00  0.00    +0.000 A 
ATOM      9  C   UNL     1       7.741   5.038  12.216  0.00  0.00    +0.000 A 
ATOM     10  C   UNL     1       7.806   5.586  13.503  0.00  0.00    +0.000 A 
ATOM     11  C   UNL     1       7.052   5.034  14.574  0.00  0.00    +0.000 A 
ATOM     12  C   UNL     1       6.929   5.430  15.959  0.00  0.00    +0.000 A 
ATOM     13 CL   UNL     1       7.685   6.853  16.556  0.00  0.00    +0.000 Cl
ENDBRANCH   2   4
BRANCH   3  14
ATOM     14  C   UNL     1       3.395   5.631  17.578  0.00  0.00    +0.000 C 
ATOM     15  C   UNL     1       3.916   6.896  16.855  0.00  0.00    +0.000 C 
ATOM     16  C   UNL     1       3.925   8.130  17.746  0.00  0.00    +0.000 C 
ATOM     17  N   UNL     1       2.599   8.425  18.282  0.00  0.00    +0.000 NA
ATOM     18  C   UNL     1       2.074   7.284  19.030  0.00  0.00    +0.000 C 
ATOM     19  C   UNL     1       2.018   6.031  18.160  0.00  0.00    +0.000 C 
ATOM     20  H   UNL     1       1.962   8.641  17.514  0.00  0.00    +0.000 HD
ENDBRANCH   3  14
BRANCH   3  21
ATOM     21  C   UNL     1       4.160   4.792  19.929  0.00  0.00    +0.000 C 
BRANCH  21  22
ATOM     22  C   UNL     1       3.043   3.872  20.342  0.00  0.00    +0.000 A 
ATOM     23  C   UNL     1       2.124   3.960  21.371  0.00  0.00    +0.000 A 
ATOM     24  C   UNL     1       1.227   2.846  21.396  0.00  0.00    +0.000 A 
ATOM     25  C   UNL     1       1.456   1.968  20.364  0.00  0.00    +0.000 A 
ATOM     26  S   UNL     1       2.748   2.476  19.373  0.00  0.00    +0.000 S 
ENDBRANCH  21  22
ENDBRANCH   3  21
TORSDOF 4
ENDMDL
MODEL 7
REMARK VINA RESULT:      -6.0      2.388      3.305
REMARK  Name = 
REMARK  4 active torsions:
REMARK  status: ('A' for Active; 'I' for Inactive)
REMARK    1  A    between atoms: C_2  and  C_3
REMARK    2  A    between atoms: N_13  and  C_14
REMARK    3  A    between atoms: N_13  and  C_20
REMARK    4  A    between atoms: C_14  and  C_15
REMARK                            x       y       z     vdW  Elec       q    Type
REMARK                         _______ _______ _______ _____ _____    ______ ____
ROOT
ATOM      1  O   UNL     1       2.506  11.208  17.968  0.00  0.00    +0.000 OA
ATOM      2  C   UNL     1       1.604  10.632  18.583  0.00  0.00    +0.000 C 
ATOM      3  N   UNL     1       0.421  11.350  18.934  0.00  0.00    +0.000 N 
ENDROOT
BRANCH   2   4
ATOM      4  C   UNL     1       1.758   9.219  18.888  0.00  0.00    +0.000 A 
ATOM      5  S   UNL     1       2.385   8.221  17.634  0.00  0.00    +0.000 S 
ATOM      6  C   UNL     1       2.333   6.808  18.604  0.00  0.00    +0.000 A 
ATOM      7  C   UNL     1       2.701   5.503  18.214  0.00  0.00    +0.000 A 
ATOM      8  C   UNL     1       2.607   4.464  19.140  0.00  0.00    +0.000 A 
ATOM      9  C   UNL     1       2.150   4.710  20.425  0.00  0.00    +0.000 A 
ATOM     10  C   UNL     1       1.791   6.008  20.808  0.00  0.00    +0.000 A 
ATOM     11  C   UNL     1       1.879   7.092  19.893  0.00  0.00    +0.000 A 
ATOM     12  C   UNL     1       1.599   8.502  20.053  0.00  0.00    +0.000 A 
ATOM     13 CL   UNL     1       1.169   9.164  21.580  0.00  0.00    +0.000 Cl
ENDBRANCH   2   4
BRANCH   3  14
ATOM     14  C   UNL     1      -0.883  10.701  19.329  0.00  0.00    +0.000 C 
ATOM     15  C   UNL     1      -1.815  10.308  18.158  0.00  0.00    +0.000 C 
ATOM     16  C   UNL     1      -2.604  11.485  17.604  0.00  0.00    +0.000 C 
ATOM     17  N   UNL     1      -3.413  12.132  18.634  0.00  0.00    +0.000 NA
ATOM     18  C   UNL     1      -2.579  12.581  19.747  0.00  0.00    +0.000 C 
ATOM     19  C   UNL     1      -1.793  11.421  20.352  0.00  0.00    +0.000 C 
ATOM     20  H   UNL     1      -4.109  11.471  18.984  0.00  0.00    +0.000 HD
ENDBRANCH   3  14
BRANCH   3  21
ATOM     21  C   UNL     1       0.511  12.792  18.619  0.00  0.00    +0.000 C 
BRANCH  21  22
ATOM     22  C   UNL     1       1.170  13.664  19.653  0.00  0.00    +0.000 A 
ATOM     23  C   UNL     1       1.114  13.639  21.034  0.00  0.00    +0.000 A 
ATOM     24  C   UNL     1       1.909  14.669  21.629  0.00  0.00    +0.000 A 
ATOM     25  C   UNL     1       2.583  15.415  20.693  0.00  0.00    +0.000 A 
ATOM     26  S   UNL     1       2.255  14.887  19.104  0.00  0.00    +0.000 S 
ENDBRANCH  21  22
ENDBRANCH   3  21
TORSDOF 4
ENDMDL
MODEL 8
REMARK VINA RESULT:      -5.9      4.360      8.674
REMARK  Name = 
REMARK  4 active torsions:
REMARK  status: ('A' for Active; 'I' for Inactive)
REMARK    1  A    between atoms: C_2  and  C_3
REMARK    2  A    between atoms: N_13  and  C_14
REMARK    3  A    between atoms: N_13  and  C_20
REMARK    4  A    between atoms: C_14  and  C_15
REMARK                            x       y       z     vdW  Elec       q    Type
REMARK                         _______ _______ _______ _____ _____    ______ ____
ROOT
ATOM      1  O   UNL     1       3.715   7.269  17.502  0.00  0.00    +0.000 OA
ATOM      2  C   UNL     1       2.940   6.748  18.309  0.00  0.00    +0.000 C 
ATOM      3  N   UNL     1       2.872   5.325  18.403  0.00  0.00    +0.000 N 
ENDROOT
BRANCH   2   4
ATOM      4  C   UNL     1       2.153   7.608  19.177  0.00  0.00    +0.000 A 
ATOM      5  S   UNL     1       1.972   7.101  20.812  0.00  0.00    +0.000 S 
ATOM      6  C   UNL     1       1.038   8.476  21.234  0.00  0.00    +0.000 A 
ATOM      7  C   UNL     1       0.474   8.758  22.496  0.00  0.00    +0.000 A 
ATOM      8  C   UNL     1      -0.253   9.935  22.669  0.00  0.00    +0.000 A 
ATOM      9  C   UNL     1      -0.425  10.814  21.611  0.00  0.00    +0.000 A 
ATOM     10  C   UNL     1       0.141  10.531  20.362  0.00  0.00    +0.000 A 
ATOM     11  C   UNL     1       0.892   9.344  20.150  0.00  0.00    +0.000 A 
ATOM     12  C   UNL     1       1.588   8.849  18.982  0.00  0.00    +0.000 A 
ATOM     13 CL   UNL     1       1.706   9.785  17.546  0.00  0.00    +0.000 Cl
ENDBRANCH   2   4
BRANCH   3  14
ATOM     14  C   UNL     1       2.279   4.576  19.571  0.00  0.00    +0.000 C 
ATOM     15  C   UNL     1       3.180   3.482  20.189  0.00  0.00    +0.000 C 
ATOM     16  C   UNL     1       3.174   2.184  19.394  0.00  0.00    +0.000 C 
ATOM     17  N   UNL     1       1.826   1.639  19.252  0.00  0.00    +0.000 NA
ATOM     18  C   UNL     1       0.936   2.608  18.618  0.00  0.00    +0.000 C 
ATOM     19  C   UNL     1       0.890   3.916  19.404  0.00  0.00    +0.000 C 
ATOM     20  H   UNL     1       1.457   1.402  20.175  0.00  0.00    +0.000 HD
ENDBRANCH   3  14
BRANCH   3  21
ATOM     21  C   UNL     1       3.678   4.643  17.367  0.00  0.00    +0.000 C 
BRANCH  21  22
ATOM     22  C   UNL     1       5.173   4.763  17.495  0.00  0.00    +0.000 A 
ATOM     23  C   UNL     1       6.178   4.666  16.550  0.00  0.00    +0.000 A 
ATOM     24  C   UNL     1       7.478   4.849  17.118  0.00  0.00    +0.000 A 
ATOM     25  C   UNL     1       7.426   5.125  18.463  0.00  0.00    +0.000 A 
ATOM     26  S   UNL     1       5.821   5.157  19.043  0.00  0.00    +0.000 S 
ENDBRANCH  21  22
ENDBRANCH   3  21
TORSDOF 4
ENDMDL
MODEL 9
REMARK VINA RESULT:      -5.9      4.631      8.867
REMARK  Name = 
REMARK  4 active torsions:
REMARK  status: ('A' for Active; 'I' for Inactive)
REMARK    1  A    between atoms: C_2  and  C_3
REMARK    2  A    between atoms: N_13  and  C_14
REMARK    3  A    between atoms: N_13  and  C_20
REMARK    4  A    between atoms: C_14  and  C_15
REMARK                            x       y       z     vdW  Elec       q    Type
REMARK                         _______ _______ _______ _____ _____    ______ ____
ROOT
ATOM      1  O   UNL     1       1.586   4.863  17.863  0.00  0.00    +0.000 OA
ATOM      2  C   UNL     1       2.461   5.728  17.956  0.00  0.00    +0.000 C 
ATOM      3  N   UNL     1       3.759   5.479  17.417  0.00  0.00    +0.000 N 
ENDROOT
BRANCH   2   4
ATOM      4  C   UNL     1       2.122   7.000  18.573  0.00  0.00    +0.000 A 
ATOM      5  S   UNL     1       2.060   8.371  17.534  0.00  0.00    +0.000 S 
ATOM      6  C   UNL     1       1.614   9.432  18.806  0.00  0.00    +0.000 A 
ATOM      7  C   UNL     1       1.392  10.822  18.706  0.00  0.00    +0.000 A 
ATOM      8  C   UNL     1       1.023  11.535  19.847  0.00  0.00    +0.000 A 
ATOM      9  C   UNL     1       0.883  10.887  21.064  0.00  0.00    +0.000 A 
ATOM     10  C   UNL     1       1.100   9.507  21.155  0.00  0.00    +0.000 A 
ATOM     11  C   UNL     1       1.473   8.746  20.014  0.00  0.00    +0.000 A 
ATOM     12  C   UNL     1       1.721   7.331  19.848  0.00  0.00    +0.000 A 
ATOM     13 CL   UNL     1       1.471   6.220  21.135  0.00  0.00    +0.000 Cl
ENDBRANCH   2   4
BRANCH   3  14
ATOM     14  C   UNL     1       4.779   6.551  17.122  0.00  0.00    +0.000 C 
ATOM     15  C   UNL     1       5.142   6.733  15.629  0.00  0.00    +0.000 C 
ATOM     16  C   UNL     1       6.134   5.695  15.125  0.00  0.00    +0.000 C 
ATOM     17  N   UNL     1       7.372   5.704  15.900  0.00  0.00    +0.000 NA
ATOM     18  C   UNL     1       7.101   5.476  17.318  0.00  0.00    +0.000 C 
ATOM     19  C   UNL     1       6.133   6.519  17.870  0.00  0.00    +0.000 C 
ATOM     20  H   UNL     1       7.835   6.607  15.789  0.00  0.00    +0.000 HD
ENDBRANCH   3  14
BRANCH   3  21
ATOM     21  C   UNL     1       3.919   4.093  16.925  0.00  0.00    +0.000 C 
BRANCH  21  22
ATOM     22  C   UNL     1       3.972   3.013  17.971  0.00  0.00    +0.000 A 
ATOM     23  C   UNL     1       3.552   1.696  17.942  0.00  0.00    +0.000 A 
ATOM     24  C   UNL     1       3.800   1.018  19.177  0.00  0.00    +0.000 A 
ATOM     25  C   UNL     1       4.441   1.818  20.092  0.00  0.00    +0.000 A 
ATOM     26  S   UNL     1       4.737   3.380  19.473  0.00  0.00    +0.000 S 
ENDBRANCH  21  22
ENDBRANCH   3  21
TORSDOF 4
ENDMDL
