MODEL 1
REMARK VINA RESULT:      -7.5      0.000      0.000
REMARK  Name = 
REMARK  10 active torsions:
REMARK  status: ('A' for Active; 'I' for Inactive)
REMARK    1  A    between atoms: C_2  and  C_3
REMARK    2  A    between atoms: C_2  and  C_12
REMARK    3  A    between atoms: C_3  and  C_4
REMARK    4  A    between atoms: C_4  and  C_5
REMARK    5  A    between atoms: C_5  and  C_6
REMARK    6  A    between atoms: N_14  and  C_15
REMARK    7  A    between atoms: C_15  and  C_16
REMARK    8  A    between atoms: C_16  and  C_17
REMARK    9  A    between atoms: C_20  and  O_21
REMARK   10  A    between atoms: O_21  and  C_22
REMARK                            x       y       z     vdW  Elec       q    Type
REMARK                         _______ _______ _______ _____ _____    ______ ____
ROOT
ATOM      1  C   UNL     1       1.962   4.549  20.438  0.00  0.00    +0.000 C 
ATOM      2  O   UNL     1       1.230   4.440  19.466  0.00  0.00    +0.000 OA
ATOM      3  N   UNL     1       2.372   5.752  20.975  0.00  0.00    +0.000 N 
ATOM      4  H   UNL     1       3.101   5.726  21.686  0.00  0.00    +0.000 HD
ENDROOT
BRANCH   1   6
ATOM      5  O   UNL     1       2.177   3.095  22.312  0.00  0.00    +0.000 OA
ATOM      6  C   UNL     1       2.496   3.298  21.141  0.00  0.00    +0.000 C 
BRANCH   6   7
ATOM      7  C   UNL     1       3.428   2.425  20.329  0.00  0.00    +0.000 C 
BRANCH   7   8
ATOM      8  C   UNL     1       4.379   3.268  19.485  0.00  0.00    +0.000 C 
BRANCH   8   9
ATOM      9  C   UNL     1       4.167   3.044  17.986  0.00  0.00    +0.000 C 
BRANCH   9  10
ATOM     10  C   UNL     1       4.499   4.286  17.193  0.00  0.00    +0.000 A 
ATOM     11  C   UNL     1       5.151   4.184  15.957  0.00  0.00    +0.000 A 
ATOM     12  C   UNL     1       5.508   5.333  15.247  0.00  0.00    +0.000 A 
ATOM     13  C   UNL     1       5.212   6.593  15.764  0.00  0.00    +0.000 A 
ATOM     14  C   UNL     1       4.553   6.705  16.987  0.00  0.00    +0.000 A 
ATOM     15  C   UNL     1       4.201   5.558  17.701  0.00  0.00    +0.000 A 
ENDBRANCH   9  10
ENDBRANCH   8   9
ENDBRANCH   7   8
ENDBRANCH   6   7
ENDBRANCH   1   6
BRANCH   3  16
ATOM     16  C   UNL     1       1.968   6.990  20.341  0.00  0.00    +0.000 C 
BRANCH  16  17
ATOM     17  C   UNL     1       1.493   8.073  21.305  0.00  0.00    +0.000 C 
BRANCH  17  18
ATOM     18  C   UNL     1       0.720   9.178  20.630  0.00  0.00    +0.000 A 
ATOM     19  C   UNL     1       0.751   9.342  19.237  0.00  0.00    +0.000 A 
ATOM     20  C   UNL     1       0.014  10.360  18.626  0.00  0.00    +0.000 A 
ATOM     21  C   UNL     1      -0.772  11.211  19.400  0.00  0.00    +0.000 A 
ATOM     22  C   UNL     1      -0.760  11.087  20.792  0.00  0.00    +0.000 A 
ATOM     23  C   UNL     1      -0.047  10.058  21.401  0.00  0.00    +0.000 A 
BRANCH  21  24
ATOM     24  O   UNL     1      -1.493  12.162  18.714  0.00  0.00    +0.000 OA
BRANCH  24  25
ATOM     25  C   UNL     1      -2.769  11.868  18.283  0.00  0.00    +0.000 A 
ATOM     26  C   UNL     1      -3.803  12.181  19.167  0.00  0.00    +0.000 A 
ATOM     27  C   UNL     1      -5.126  11.882  18.831  0.00  0.00    +0.000 A 
ATOM     28  C   UNL     1      -5.416  11.277  17.608  0.00  0.00    +0.000 A 
ATOM     29  C   UNL     1      -4.391  11.001  16.706  0.00  0.00    +0.000 A 
ATOM     30  C   UNL     1      -3.076  11.327  17.031  0.00  0.00    +0.000 A 
ENDBRANCH  24  25
ENDBRANCH  21  24
ENDBRANCH  17  18
ENDBRANCH  16  17
ENDBRANCH   3  16
TORSDOF 10
ENDMDL
MODEL 2
REMARK VINA RESULT:      -7.5      7.420      9.844
REMARK  Name = 
REMARK  10 active torsions:
REMARK  status: ('A' for Active; 'I' for Inactive)
REMARK    1  A    between atoms: C_2  and  C_3
REMARK    2  A    between atoms: C_2  and  C_12
REMARK    3  A    between atoms: C_3  and  C_4
REMARK    4  A    between atoms: C_4  and  C_5
REMARK    5  A    between atoms: C_5  and  C_6
REMARK    6  A    between atoms: N_14  and  C_15
REMARK    7  A    between atoms: C_15  and  C_16
REMARK    8  A    between atoms: C_16  and  C_17
REMARK    9  A    between atoms: C_20  and  O_21
REMARK   10  A    between atoms: O_21  and  C_22
REMARK                            x       y       z     vdW  Elec       q    Type
REMARK                         _______ _______ _______ _____ _____    ______ ____
ROOT
ATOM      1  C   UNL     1       7.227   6.906  17.521  0.00  0.00    +0.000 C 
ATOM      2  O   UNL     1       6.605   7.415  16.601  0.00  0.00    +0.000 OA
ATOM      3  N   UNL     1       8.103   7.585  18.341  0.00  0.00    +0.000 N 
ATOM      4  H   UNL     1       8.680   7.033  18.973  0.00  0.00    +0.000 HD
ENDROOT
BRANCH   1   6
ATOM      5  O   UNL     1       7.884   4.623  17.355  0.00  0.00    +0.000 OA
ATOM      6  C   UNL     1       7.066   5.413  17.822  0.00  0.00    +0.000 C 
BRANCH   6   7
ATOM      7  C   UNL     1       5.859   5.028  18.651  0.00  0.00    +0.000 C 
BRANCH   7   8
ATOM      8  C   UNL     1       4.653   4.729  17.765  0.00  0.00    +0.000 C 
BRANCH   8   9
ATOM      9  C   UNL     1       4.098   3.324  18.009  0.00  0.00    +0.000 C 
BRANCH   9  10
ATOM     10  C   UNL     1       3.128   3.311  19.166  0.00  0.00    +0.000 A 
ATOM     11  C   UNL     1       3.451   2.640  20.354  0.00  0.00    +0.000 A 
ATOM     12  C   UNL     1       2.534   2.581  21.406  0.00  0.00    +0.000 A 
ATOM     13  C   UNL     1       1.289   3.195  21.283  0.00  0.00    +0.000 A 
ATOM     14  C   UNL     1       0.963   3.875  20.110  0.00  0.00    +0.000 A 
ATOM     15  C   UNL     1       1.875   3.930  19.055  0.00  0.00    +0.000 A 
ENDBRANCH   9  10
ENDBRANCH   8   9
ENDBRANCH   7   8
ENDBRANCH   6   7
ENDBRANCH   1   6
BRANCH   3  16
ATOM     16  C   UNL     1       8.368   8.988  18.094  0.00  0.00    +0.000 C 
BRANCH  16  17
ATOM     17  C   UNL     1       9.325   9.639  19.089  0.00  0.00    +0.000 C 
BRANCH  17  18
ATOM     18  C   UNL     1       9.206  11.141  19.137  0.00  0.00    +0.000 A 
ATOM     19  C   UNL     1       9.247  11.836  20.356  0.00  0.00    +0.000 A 
ATOM     20  C   UNL     1       9.153  13.230  20.381  0.00  0.00    +0.000 A 
ATOM     21  C   UNL     1       9.035  13.941  19.189  0.00  0.00    +0.000 A 
ATOM     22  C   UNL     1       8.936  13.250  17.978  0.00  0.00    +0.000 A 
ATOM     23  C   UNL     1       9.054  11.863  17.948  0.00  0.00    +0.000 A 
BRANCH  21  24
ATOM     24  O   UNL     1       8.986  15.312  19.303  0.00  0.00    +0.000 OA
BRANCH  24  25
ATOM     25  C   UNL     1      10.007  16.076  18.781  0.00  0.00    +0.000 A 
ATOM     26  C   UNL     1      11.235  15.993  19.439  0.00  0.00    +0.000 A 
ATOM     27  C   UNL     1      12.316  16.764  19.003  0.00  0.00    +0.000 A 
ATOM     28  C   UNL     1      12.172  17.611  17.904  0.00  0.00    +0.000 A 
ATOM     29  C   UNL     1      10.961  17.665  17.220  0.00  0.00    +0.000 A 
ATOM     30  C   UNL     1       9.892  16.875  17.639  0.00  0.00    +0.000 A 
ENDBRANCH  24  25
ENDBRANCH  21  24
ENDBRANCH  17  18
ENDBRANCH  16  17
ENDBRANCH   3  16
TORSDOF 10
ENDMDL
MODEL 3
REMARK VINA RESULT:      -7.5      2.932      4.453
REMARK  Name = 
REMARK  10 active torsions:
REMARK  status: ('A' for Active; 'I' for Inactive)
REMARK    1  A    between atoms: C_2  and  C_3
REMARK    2  A    between atoms: C_2  and  C_12
REMARK    3  A    between atoms: C_3  and  C_4
REMARK    4  A    between atoms: C_4  and  C_5
REMARK    5  A    between atoms: C_5  and  C_6
REMARK    6  A    between atoms: N_14  and  C_15
REMARK    7  A    between atoms: C_15  and  C_16
REMARK    8  A    between atoms: C_16  and  C_17
REMARK    9  A    between atoms: C_20  and  O_21
REMARK   10  A    between atoms: O_21  and  C_22
REMARK                            x       y       z     vdW  Elec       q    Type
REMARK                         _______ _______ _______ _____ _____    ______ ____
ROOT
ATOM      1  C   UNL     1       3.003   7.719  17.934  0.00  0.00    +0.000 C 
ATOM      2  O   UNL     1       2.659   8.684  17.268  0.00  0.00    +0.000 OA
ATOM      3  N   UNL     1       2.414   7.343  19.124  0.00  0.00    +0.000 N 
ATOM      4  H   UNL     1       2.876   6.619  19.670  0.00  0.00    +0.000 HD
ENDROOT
BRANCH   1   6
ATOM      5  O   UNL     1       4.593   6.978  16.323  0.00  0.00    +0.000 OA
ATOM      6  C   UNL     1       4.165   6.838  17.468  0.00  0.00    +0.000 C 
BRANCH   6   7
ATOM      7  C   UNL     1       4.669   5.818  18.467  0.00  0.00    +0.000 C 
BRANCH   7   8
ATOM      8  C   UNL     1       4.878   4.458  17.807  0.00  0.00    +0.000 C 
BRANCH   8   9
ATOM      9  C   UNL     1       3.553   3.743  17.535  0.00  0.00    +0.000 C 
BRANCH   9  10
ATOM     10  C   UNL     1       2.791   3.495  18.815  0.00  0.00    +0.000 A 
ATOM     11  C   UNL     1       1.474   3.953  18.956  0.00  0.00    +0.000 A 
ATOM     12  C   UNL     1       0.785   3.773  20.157  0.00  0.00    +0.000 A 
ATOM     13  C   UNL     1       1.404   3.128  21.226  0.00  0.00    +0.000 A 
ATOM     14  C   UNL     1       2.709   2.657  21.093  0.00  0.00    +0.000 A 
ATOM     15  C   UNL     1       3.402   2.843  19.894  0.00  0.00    +0.000 A 
ENDBRANCH   9  10
ENDBRANCH   8   9
ENDBRANCH   7   8
ENDBRANCH   6   7
ENDBRANCH   1   6
BRANCH   3  16
ATOM     16  C   UNL     1       1.346   8.150  19.676  0.00  0.00    +0.000 C 
BRANCH  16  17
ATOM     17  C   UNL     1       1.375   8.291  21.196  0.00  0.00    +0.000 C 
BRANCH  17  18
ATOM     18  C   UNL     1       0.609   9.487  21.701  0.00  0.00    +0.000 A 
ATOM     19  C   UNL     1       0.787  10.758  21.135  0.00  0.00    +0.000 A 
ATOM     20  C   UNL     1       0.056  11.852  21.604  0.00  0.00    +0.000 A 
ATOM     21  C   UNL     1      -0.871  11.682  22.630  0.00  0.00    +0.000 A 
ATOM     22  C   UNL     1      -1.010  10.430  23.235  0.00  0.00    +0.000 A 
ATOM     23  C   UNL     1      -0.300   9.333  22.753  0.00  0.00    +0.000 A 
BRANCH  21  24
ATOM     24  O   UNL     1      -1.574  12.805  23.005  0.00  0.00    +0.000 OA
BRANCH  24  25
ATOM     25  C   UNL     1      -2.952  12.783  22.985  0.00  0.00    +0.000 A 
ATOM     26  C   UNL     1      -3.548  12.798  21.723  0.00  0.00    +0.000 A 
ATOM     27  C   UNL     1      -4.940  12.819  21.607  0.00  0.00    +0.000 A 
ATOM     28  C   UNL     1      -5.737  12.817  22.753  0.00  0.00    +0.000 A 
ATOM     29  C   UNL     1      -5.146  12.761  24.012  0.00  0.00    +0.000 A 
ATOM     30  C   UNL     1      -3.758  12.711  24.125  0.00  0.00    +0.000 A 
ENDBRANCH  24  25
ENDBRANCH  21  24
ENDBRANCH  17  18
ENDBRANCH  16  17
ENDBRANCH   3  16
TORSDOF 10
ENDMDL
MODEL 4
REMARK VINA RESULT:      -7.5      4.588      5.794
REMARK  Name = 
REMARK  10 active torsions:
REMARK  status: ('A' for Active; 'I' for Inactive)
REMARK    1  A    between atoms: C_2  and  C_3
REMARK    2  A    between atoms: C_2  and  C_12
REMARK    3  A    between atoms: C_3  and  C_4
REMARK    4  A    between atoms: C_4  and  C_5
REMARK    5  A    between atoms: C_5  and  C_6
REMARK    6  A    between atoms: N_14  and  C_15
REMARK    7  A    between atoms: C_15  and  C_16
REMARK    8  A    between atoms: C_16  and  C_17
REMARK    9  A    between atoms: C_20  and  O_21
REMARK   10  A    between atoms: O_21  and  C_22
REMARK                            x       y       z     vdW  Elec       q    Type
REMARK                         _______ _______ _______ _____ _____    ______ ____
ROOT
ATOM      1  C   UNL     1       6.106   5.750  17.797  0.00  0.00    +0.000 C 
ATOM      2  O   UNL     1       6.166   4.645  17.281  0.00  0.00    +0.000 OA
ATOM      3  N   UNL     1       4.933   6.413  18.089  0.00  0.00    +0.000 N 
ATOM      4  H   UNL     1       5.000   7.388  18.374  0.00  0.00    +0.000 HD
ENDROOT
BRANCH   1   6
ATOM      5  O   UNL     1       8.212   5.951  18.890  0.00  0.00    +0.000 OA
ATOM      6  C   UNL     1       7.392   6.500  18.156  0.00  0.00    +0.000 C 
BRANCH   6   7
ATOM      7  C   UNL     1       7.522   7.903  17.601  0.00  0.00    +0.000 C 
BRANCH   7   8
ATOM      8  C   UNL     1       8.485   8.740  18.437  0.00  0.00    +0.000 C 
BRANCH   8   9
ATOM      9  C   UNL     1       8.556  10.190  17.949  0.00  0.00    +0.000 C 
BRANCH   9  10
ATOM     10  C   UNL     1       9.698  10.932  18.600  0.00  0.00    +0.000 A 
ATOM     11  C   UNL     1       9.746  11.078  19.993  0.00  0.00    +0.000 A 
ATOM     12  C   UNL     1      10.772  11.810  20.594  0.00  0.00    +0.000 A 
ATOM     13  C   UNL     1      11.762  12.399  19.810  0.00  0.00    +0.000 A 
ATOM     14  C   UNL     1      11.731  12.249  18.424  0.00  0.00    +0.000 A 
ATOM     15  C   UNL     1      10.702  11.523  17.821  0.00  0.00    +0.000 A 
ENDBRANCH   9  10
ENDBRANCH   8   9
ENDBRANCH   7   8
ENDBRANCH   6   7
ENDBRANCH   1   6
BRANCH   3  16
ATOM     16  C   UNL     1       3.665   5.810  17.729  0.00  0.00    +0.000 C 
BRANCH  16  17
ATOM     17  C   UNL     1       2.566   5.967  18.776  0.00  0.00    +0.000 C 
BRANCH  17  18
ATOM     18  C   UNL     1       2.066   7.383  18.911  0.00  0.00    +0.000 A 
ATOM     19  C   UNL     1       2.152   8.291  17.844  0.00  0.00    +0.000 A 
ATOM     20  C   UNL     1       1.668   9.594  17.981  0.00  0.00    +0.000 A 
ATOM     21  C   UNL     1       1.079   9.996  19.177  0.00  0.00    +0.000 A 
ATOM     22  C   UNL     1       1.043   9.114  20.261  0.00  0.00    +0.000 A 
ATOM     23  C   UNL     1       1.503   7.807  20.119  0.00  0.00    +0.000 A 
BRANCH  21  24
ATOM     24  O   UNL     1       0.596  11.285  19.213  0.00  0.00    +0.000 OA
BRANCH  24  25
ATOM     25  C   UNL     1      -0.763  11.504  19.157  0.00  0.00    +0.000 A 
ATOM     26  C   UNL     1      -1.436  10.927  18.078  0.00  0.00    +0.000 A 
ATOM     27  C   UNL     1      -2.809  11.130  17.920  0.00  0.00    +0.000 A 
ATOM     28  C   UNL     1      -3.512  11.903  18.843  0.00  0.00    +0.000 A 
ATOM     29  C   UNL     1      -2.853  12.446  19.943  0.00  0.00    +0.000 A 
ATOM     30  C   UNL     1      -1.489  12.219  20.115  0.00  0.00    +0.000 A 
ENDBRANCH  24  25
ENDBRANCH  21  24
ENDBRANCH  17  18
ENDBRANCH  16  17
ENDBRANCH   3  16
TORSDOF 10
ENDMDL
MODEL 5
REMARK VINA RESULT:      -7.4      6.942      9.737
REMARK  Name = 
REMARK  10 active torsions:
REMARK  status: ('A' for Active; 'I' for Inactive)
REMARK    1  A    between atoms: C_2  and  C_3
REMARK    2  A    between atoms: C_2  and  C_12
REMARK    3  A    between atoms: C_3  and  C_4
REMARK    4  A    between atoms: C_4  and  C_5
REMARK    5  A    between atoms: C_5  and  C_6
REMARK    6  A    between atoms: N_14  and  C_15
REMARK    7  A    between atoms: C_15  and  C_16
REMARK    8  A    between atoms: C_16  and  C_17
REMARK    9  A    between atoms: C_20  and  O_21
REMARK   10  A    between atoms: O_21  and  C_22
REMARK                            x       y       z     vdW  Elec       q    Type
REMARK                         _______ _______ _______ _____ _____    ______ ____
ROOT
ATOM      1  C   UNL     1       6.583   6.508  17.506  0.00  0.00    +0.000 C 
ATOM      2  O   UNL     1       7.485   5.721  17.752  0.00  0.00    +0.000 OA
ATOM      3  N   UNL     1       6.760   7.863  17.318  0.00  0.00    +0.000 N 
ATOM      4  H   UNL     1       5.925   8.445  17.272  0.00  0.00    +0.000 HD
ENDROOT
BRANCH   1   6
ATOM      5  O   UNL     1       4.291   6.483  18.152  0.00  0.00    +0.000 OA
ATOM      6  C   UNL     1       5.139   6.011  17.396  0.00  0.00    +0.000 C 
BRANCH   6   7
ATOM      7  C   UNL     1       4.885   4.925  16.372  0.00  0.00    +0.000 C 
BRANCH   7   8
ATOM      8  C   UNL     1       4.596   3.588  17.047  0.00  0.00    +0.000 C 
BRANCH   8   9
ATOM      9  C   UNL     1       3.094   3.321  17.171  0.00  0.00    +0.000 C 
BRANCH   9  10
ATOM     10  C   UNL     1       2.658   3.306  18.617  0.00  0.00    +0.000 A 
ATOM     11  C   UNL     1       3.416   2.625  19.579  0.00  0.00    +0.000 A 
ATOM     12  C   UNL     1       2.987   2.564  20.906  0.00  0.00    +0.000 A 
ATOM     13  C   UNL     1       1.800   3.186  21.286  0.00  0.00    +0.000 A 
ATOM     14  C   UNL     1       1.044   3.877  20.340  0.00  0.00    +0.000 A 
ATOM     15  C   UNL     1       1.468   3.934  19.010  0.00  0.00    +0.000 A 
ENDBRANCH   9  10
ENDBRANCH   8   9
ENDBRANCH   7   8
ENDBRANCH   6   7
ENDBRANCH   1   6
BRANCH   3  16
ATOM     16  C   UNL     1       8.082   8.436  17.464  0.00  0.00    +0.000 C 
BRANCH  16  17
ATOM     17  C   UNL     1       8.485   8.750  18.902  0.00  0.00    +0.000 C 
BRANCH  17  18
ATOM     18  C   UNL     1       9.211  10.064  19.047  0.00  0.00    +0.000 A 
ATOM     19  C   UNL     1       9.444  10.632  20.309  0.00  0.00    +0.000 A 
ATOM     20  C   UNL     1      10.133  11.841  20.425  0.00  0.00    +0.000 A 
ATOM     21  C   UNL     1      10.611  12.484  19.285  0.00  0.00    +0.000 A 
ATOM     22  C   UNL     1      10.330  11.951  18.024  0.00  0.00    +0.000 A 
ATOM     23  C   UNL     1       9.665  10.734  17.906  0.00  0.00    +0.000 A 
BRANCH  21  24
ATOM     24  O   UNL     1      11.311  13.650  19.495  0.00  0.00    +0.000 OA
BRANCH  24  25
ATOM     25  C   UNL     1      11.008  14.768  18.748  0.00  0.00    +0.000 A 
ATOM     26  C   UNL     1      11.963  15.156  17.806  0.00  0.00    +0.000 A 
ATOM     27  C   UNL     1      11.758  16.301  17.033  0.00  0.00    +0.000 A 
ATOM     28  C   UNL     1      10.595  17.055  17.196  0.00  0.00    +0.000 A 
ATOM     29  C   UNL     1       9.623  16.649  18.105  0.00  0.00    +0.000 A 
ATOM     30  C   UNL     1       9.815  15.491  18.855  0.00  0.00    +0.000 A 
ENDBRANCH  24  25
ENDBRANCH  21  24
ENDBRANCH  17  18
ENDBRANCH  16  17
ENDBRANCH   3  16
TORSDOF 10
ENDMDL
MODEL 6
REMARK VINA RESULT:      -7.4      7.103      9.673
REMARK  Name = 
REMARK  10 active torsions:
REMARK  status: ('A' for Active; 'I' for Inactive)
REMARK    1  A    between atoms: C_2  and  C_3
REMARK    2  A    between atoms: C_2  and  C_12
REMARK    3  A    between atoms: C_3  and  C_4
REMARK    4  A    between atoms: C_4  and  C_5
REMARK    5  A    between atoms: C_5  and  C_6
REMARK    6  A    between atoms: N_14  and  C_15
REMARK    7  A    between atoms: C_15  and  C_16
REMARK    8  A    between atoms: C_16  and  C_17
REMARK    9  A    between atoms: C_20  and  O_21
REMARK   10  A    between atoms: O_21  and  C_22
REMARK                            x       y       z     vdW  Elec       q    Type
REMARK                         _______ _______ _______ _____ _____    ______ ____
ROOT
ATOM      1  C   UNL     1       6.559   6.816  17.056  0.00  0.00    +0.000 C 
ATOM      2  O   UNL     1       5.546   7.371  17.453  0.00  0.00    +0.000 OA
ATOM      3  N   UNL     1       7.806   7.402  17.017  0.00  0.00    +0.000 N 
ATOM      4  H   UNL     1       8.546   6.903  16.527  0.00  0.00    +0.000 HD
ENDROOT
BRANCH   1   6
ATOM      5  O   UNL     1       7.530   4.712  16.508  0.00  0.00    +0.000 OA
ATOM      6  C   UNL     1       6.494   5.373  16.548  0.00  0.00    +0.000 C 
BRANCH   6   7
ATOM      7  C   UNL     1       5.135   4.890  16.085  0.00  0.00    +0.000 C 
BRANCH   7   8
ATOM      8  C   UNL     1       4.617   3.765  16.975  0.00  0.00    +0.000 C 
BRANCH   8   9
ATOM      9  C   UNL     1       4.894   4.032  18.457  0.00  0.00    +0.000 C 
BRANCH   9  10
ATOM     10  C   UNL     1       3.618   4.021  19.264  0.00  0.00    +0.000 A 
ATOM     11  C   UNL     1       3.026   2.807  19.638  0.00  0.00    +0.000 A 
ATOM     12  C   UNL     1       1.818   2.793  20.338  0.00  0.00    +0.000 A 
ATOM     13  C   UNL     1       1.192   3.991  20.675  0.00  0.00    +0.000 A 
ATOM     14  C   UNL     1       1.778   5.205  20.318  0.00  0.00    +0.000 A 
ATOM     15  C   UNL     1       2.983   5.221  19.613  0.00  0.00    +0.000 A 
ENDBRANCH   9  10
ENDBRANCH   8   9
ENDBRANCH   7   8
ENDBRANCH   6   7
ENDBRANCH   1   6
BRANCH   3  16
ATOM     16  C   UNL     1       7.956   8.785  17.420  0.00  0.00    +0.000 C 
BRANCH  16  17
ATOM     17  C   UNL     1       8.520   8.982  18.825  0.00  0.00    +0.000 C 
BRANCH  17  18
ATOM     18  C   UNL     1       9.216  10.306  19.010  0.00  0.00    +0.000 A 
ATOM     19  C   UNL     1       9.859  10.629  20.215  0.00  0.00    +0.000 A 
ATOM     20  C   UNL     1      10.513  11.854  20.364  0.00  0.00    +0.000 A 
ATOM     21  C   UNL     1      10.546  12.759  19.305  0.00  0.00    +0.000 A 
ATOM     22  C   UNL     1       9.857  12.466  18.124  0.00  0.00    +0.000 A 
ATOM     23  C   UNL     1       9.225  11.236  17.965  0.00  0.00    +0.000 A 
BRANCH  21  24
ATOM     24  O   UNL     1      11.244  13.925  19.526  0.00  0.00    +0.000 OA
BRANCH  24  25
ATOM     25  C   UNL     1      10.894  15.067  18.839  0.00  0.00    +0.000 A 
ATOM     26  C   UNL     1       9.908  15.861  19.426  0.00  0.00    +0.000 A 
ATOM     27  C   UNL     1       9.463  17.017  18.781  0.00  0.00    +0.000 A 
ATOM     28  C   UNL     1      10.008  17.384  17.550  0.00  0.00    +0.000 A 
ATOM     29  C   UNL     1      11.021  16.618  16.981  0.00  0.00    +0.000 A 
ATOM     30  C   UNL     1      11.484  15.481  17.640  0.00  0.00    +0.000 A 
ENDBRANCH  24  25
ENDBRANCH  21  24
ENDBRANCH  17  18
ENDBRANCH  16  17
ENDBRANCH   3  16
TORSDOF 10
ENDMDL
MODEL 7
REMARK VINA RESULT:      -7.4      2.584      9.622
REMARK  Name = 
REMARK  10 active torsions:
REMARK  status: ('A' for Active; 'I' for Inactive)
REMARK    1  A    between atoms: C_2  and  C_3
REMARK    2  A    between atoms: C_2  and  C_12
REMARK    3  A    between atoms: C_3  and  C_4
REMARK    4  A    between atoms: C_4  and  C_5
REMARK    5  A    between atoms: C_5  and  C_6
REMARK    6  A    between atoms: N_14  and  C_15
REMARK    7  A    between atoms: C_15  and  C_16
REMARK    8  A    between atoms: C_16  and  C_17
REMARK    9  A    between atoms: C_20  and  O_21
REMARK   10  A    between atoms: O_21  and  C_22
REMARK                            x       y       z     vdW  Elec       q    Type
REMARK                         _______ _______ _______ _____ _____    ______ ____
ROOT
ATOM      1  C   UNL     1       1.584   8.770  20.102  0.00  0.00    +0.000 C 
ATOM      2  O   UNL     1       1.551   9.174  18.949  0.00  0.00    +0.000 OA
ATOM      3  N   UNL     1       1.951   7.493  20.472  0.00  0.00    +0.000 N 
ATOM      4  H   UNL     1       1.795   7.220  21.440  0.00  0.00    +0.000 HD
ENDROOT
BRANCH   1   6
ATOM      5  O   UNL     1       1.507   9.391  22.400  0.00  0.00    +0.000 OA
ATOM      6  C   UNL     1       1.192   9.701  21.252  0.00  0.00    +0.000 C 
BRANCH   6   7
ATOM      7  C   UNL     1       0.391  10.929  20.872  0.00  0.00    +0.000 C 
BRANCH   7   8
ATOM      8  C   UNL     1      -1.037  10.558  20.484  0.00  0.00    +0.000 C 
BRANCH   8   9
ATOM      9  C   UNL     1      -1.753  11.706  19.768  0.00  0.00    +0.000 C 
BRANCH   9  10
ATOM     10  C   UNL     1      -2.362  11.245  18.465  0.00  0.00    +0.000 A 
ATOM     11  C   UNL     1      -3.611  11.730  18.056  0.00  0.00    +0.000 A 
ATOM     12  C   UNL     1      -4.202  11.266  16.879  0.00  0.00    +0.000 A 
ATOM     13  C   UNL     1      -3.547  10.316  16.097  0.00  0.00    +0.000 A 
ATOM     14  C   UNL     1      -2.298   9.835  16.489  0.00  0.00    +0.000 A 
ATOM     15  C   UNL     1      -1.709  10.294  17.669  0.00  0.00    +0.000 A 
ENDBRANCH   9  10
ENDBRANCH   8   9
ENDBRANCH   7   8
ENDBRANCH   6   7
ENDBRANCH   1   6
BRANCH   3  16
ATOM     16  C   UNL     1       2.280   6.522  19.449  0.00  0.00    +0.000 C 
BRANCH  16  17
ATOM     17  C   UNL     1       3.503   5.663  19.756  0.00  0.00    +0.000 C 
BRANCH  17  18
ATOM     18  C   UNL     1       4.507   5.627  18.632  0.00  0.00    +0.000 A 
ATOM     19  C   UNL     1       4.401   6.493  17.533  0.00  0.00    +0.000 A 
ATOM     20  C   UNL     1       5.350   6.458  16.509  0.00  0.00    +0.000 A 
ATOM     21  C   UNL     1       6.422   5.571  16.582  0.00  0.00    +0.000 A 
ATOM     22  C   UNL     1       6.499   4.667  17.646  0.00  0.00    +0.000 A 
ATOM     23  C   UNL     1       5.568   4.717  18.680  0.00  0.00    +0.000 A 
BRANCH  21  24
ATOM     24  O   UNL     1       7.330   5.629  15.549  0.00  0.00    +0.000 OA
BRANCH  24  25
ATOM     25  C   UNL     1       7.069   4.955  14.376  0.00  0.00    +0.000 A 
ATOM     26  C   UNL     1       7.825   5.336  13.266  0.00  0.00    +0.000 A 
ATOM     27  C   UNL     1       7.600   4.733  12.026  0.00  0.00    +0.000 A 
ATOM     28  C   UNL     1       6.625   3.744  11.896  0.00  0.00    +0.000 A 
ATOM     29  C   UNL     1       5.898   3.333  13.009  0.00  0.00    +0.000 A 
ATOM     30  C   UNL     1       6.143   3.914  14.251  0.00  0.00    +0.000 A 
ENDBRANCH  24  25
ENDBRANCH  21  24
ENDBRANCH  17  18
ENDBRANCH  16  17
ENDBRANCH   3  16
TORSDOF 10
ENDMDL
MODEL 8
REMARK VINA RESULT:      -7.4      3.080      5.118
REMARK  Name = 
REMARK  10 active torsions:
REMARK  status: ('A' for Active; 'I' for Inactive)
REMARK    1  A    between atoms: C_2  and  C_3
REMARK    2  A    between atoms: C_2  and  C_12
REMARK    3  A    between atoms: C_3  and  C_4
REMARK    4  A    between atoms: C_4  and  C_5
REMARK    5  A    between atoms: C_5  and  C_6
REMARK    6  A    between atoms: N_14  and  C_15
REMARK    7  A    between atoms: C_15  and  C_16
REMARK    8  A    between atoms: C_16  and  C_17
REMARK    9  A    between atoms: C_20  and  O_21
REMARK   10  A    between atoms: O_21  and  C_22
REMARK                            x       y       z     vdW  Elec       q    Type
REMARK                         _______ _______ _______ _____ _____    ______ ____
ROOT
ATOM      1  C   UNL     1       6.377   4.616  18.816  0.00  0.00    +0.000 C 
ATOM      2  O   UNL     1       6.536   5.319  19.802  0.00  0.00    +0.000 OA
ATOM      3  N   UNL     1       5.346   3.714  18.658  0.00  0.00    +0.000 N 
ATOM      4  H   UNL     1       5.396   3.073  17.868  0.00  0.00    +0.000 HD
ENDROOT
BRANCH   1   6
ATOM      5  O   UNL     1       8.451   4.127  17.752  0.00  0.00    +0.000 OA
ATOM      6  C   UNL     1       7.365   4.695  17.649  0.00  0.00    +0.000 C 
BRANCH   6   7
ATOM      7  C   UNL     1       6.927   5.524  16.460  0.00  0.00    +0.000 C 
BRANCH   7   8
ATOM      8  C   UNL     1       7.062   4.738  15.159  0.00  0.00    +0.000 C 
BRANCH   8   9
ATOM      9  C   UNL     1       5.834   4.903  14.260  0.00  0.00    +0.000 C 
BRANCH   9  10
ATOM     10  C   UNL     1       5.853   3.913  13.120  0.00  0.00    +0.000 A 
ATOM     11  C   UNL     1       7.070   3.442  12.610  0.00  0.00    +0.000 A 
ATOM     12  C   UNL     1       7.092   2.569  11.521  0.00  0.00    +0.000 A 
ATOM     13  C   UNL     1       5.898   2.155  10.934  0.00  0.00    +0.000 A 
ATOM     14  C   UNL     1       4.681   2.608  11.440  0.00  0.00    +0.000 A 
ATOM     15  C   UNL     1       4.657   3.486  12.526  0.00  0.00    +0.000 A 
ENDBRANCH   9  10
ENDBRANCH   8   9
ENDBRANCH   7   8
ENDBRANCH   6   7
ENDBRANCH   1   6
BRANCH   3  16
ATOM     16  C   UNL     1       4.395   3.524  19.735  0.00  0.00    +0.000 C 
BRANCH  16  17
ATOM     17  C   UNL     1       2.949   3.851  19.372  0.00  0.00    +0.000 C 
BRANCH  17  18
ATOM     18  C   UNL     1       2.706   5.322  19.153  0.00  0.00    +0.000 A 
ATOM     19  C   UNL     1       2.177   6.133  20.170  0.00  0.00    +0.000 A 
ATOM     20  C   UNL     1       1.974   7.498  19.955  0.00  0.00    +0.000 A 
ATOM     21  C   UNL     1       2.313   8.068  18.730  0.00  0.00    +0.000 A 
ATOM     22  C   UNL     1       2.785   7.255  17.697  0.00  0.00    +0.000 A 
ATOM     23  C   UNL     1       3.011   5.898  17.916  0.00  0.00    +0.000 A 
BRANCH  21  24
ATOM     24  O   UNL     1       2.115   9.426  18.618  0.00  0.00    +0.000 OA
BRANCH  24  25
ATOM     25  C   UNL     1       0.867   9.954  18.867  0.00  0.00    +0.000 A 
ATOM     26  C   UNL     1      -0.118   9.681  17.915  0.00  0.00    +0.000 A 
ATOM     27  C   UNL     1      -1.402  10.209  18.066  0.00  0.00    +0.000 A 
ATOM     28  C   UNL     1      -1.706  11.004  19.171  0.00  0.00    +0.000 A 
ATOM     29  C   UNL     1      -0.739  11.244  20.143  0.00  0.00    +0.000 A 
ATOM     30  C   UNL     1       0.534  10.693  20.007  0.00  0.00    +0.000 A 
ENDBRANCH  24  25
ENDBRANCH  21  24
ENDBRANCH  17  18
ENDBRANCH  16  17
ENDBRANCH   3  16
TORSDOF 10
ENDMDL
MODEL 9
REMARK VINA RESULT:      -7.4      2.431      8.430
REMARK  Name = 
REMARK  10 active torsions:
REMARK  status: ('A' for Active; 'I' for Inactive)
REMARK    1  A    between atoms: C_2  and  C_3
REMARK    2  A    between atoms: C_2  and  C_12
REMARK    3  A    between atoms: C_3  and  C_4
REMARK    4  A    between atoms: C_4  and  C_5
REMARK    5  A    between atoms: C_5  and  C_6
REMARK    6  A    between atoms: N_14  and  C_15
REMARK    7  A    between atoms: C_15  and  C_16
REMARK    8  A    between atoms: C_16  and  C_17
REMARK    9  A    between atoms: C_20  and  O_21
REMARK   10  A    between atoms: O_21  and  C_22
REMARK                            x       y       z     vdW  Elec       q    Type
REMARK                         _______ _______ _______ _____ _____    ______ ____
ROOT
ATOM      1  C   UNL     1       1.761   5.083  20.749  0.00  0.00    +0.000 C 
ATOM      2  O   UNL     1       2.524   4.540  21.534  0.00  0.00    +0.000 OA
ATOM      3  N   UNL     1       0.749   4.437  20.071  0.00  0.00    +0.000 N 
ATOM      4  H   UNL     1       0.275   4.950  19.330  0.00  0.00    +0.000 HD
ENDROOT
BRANCH   1   6
ATOM      5  O   UNL     1       1.219   7.375  21.099  0.00  0.00    +0.000 OA
ATOM      6  C   UNL     1       1.900   6.579  20.454  0.00  0.00    +0.000 C 
BRANCH   6   7
ATOM      7  C   UNL     1       2.852   6.952  19.338  0.00  0.00    +0.000 C 
BRANCH   7   8
ATOM      8  C   UNL     1       2.096   7.474  18.119  0.00  0.00    +0.000 C 
BRANCH   8   9
ATOM      9  C   UNL     1       2.427   8.939  17.823  0.00  0.00    +0.000 C 
BRANCH   9  10
ATOM     10  C   UNL     1       1.273   9.845  18.179  0.00  0.00    +0.000 A 
ATOM     11  C   UNL     1       1.503  11.064  18.829  0.00  0.00    +0.000 A 
ATOM     12  C   UNL     1       0.434  11.879  19.207  0.00  0.00    +0.000 A 
ATOM     13  C   UNL     1      -0.874  11.486  18.935  0.00  0.00    +0.000 A 
ATOM     14  C   UNL     1      -1.115  10.280  18.278  0.00  0.00    +0.000 A 
ATOM     15  C   UNL     1      -0.047   9.460  17.905  0.00  0.00    +0.000 A 
ENDBRANCH   9  10
ENDBRANCH   8   9
ENDBRANCH   7   8
ENDBRANCH   6   7
ENDBRANCH   1   6
BRANCH   3  16
ATOM     16  C   UNL     1       0.578   3.008  20.238  0.00  0.00    +0.000 C 
BRANCH  16  17
ATOM     17  C   UNL     1       1.095   2.165  19.075  0.00  0.00    +0.000 C 
BRANCH  17  18
ATOM     18  C   UNL     1       2.380   2.686  18.483  0.00  0.00    +0.000 A 
ATOM     19  C   UNL     1       3.626   2.346  19.033  0.00  0.00    +0.000 A 
ATOM     20  C   UNL     1       4.807   2.824  18.460  0.00  0.00    +0.000 A 
ATOM     21  C   UNL     1       4.755   3.630  17.325  0.00  0.00    +0.000 A 
ATOM     22  C   UNL     1       3.515   4.019  16.810  0.00  0.00    +0.000 A 
ATOM     23  C   UNL     1       2.337   3.524  17.364  0.00  0.00    +0.000 A 
BRANCH  21  24
ATOM     24  O   UNL     1       5.967   4.026  16.806  0.00  0.00    +0.000 OA
BRANCH  24  25
ATOM     25  C   UNL     1       6.610   5.122  17.340  0.00  0.00    +0.000 A 
ATOM     26  C   UNL     1       6.408   6.335  16.680  0.00  0.00    +0.000 A 
ATOM     27  C   UNL     1       7.053   7.491  17.127  0.00  0.00    +0.000 A 
ATOM     28  C   UNL     1       7.895   7.436  18.238  0.00  0.00    +0.000 A 
ATOM     29  C   UNL     1       8.067   6.236  18.923  0.00  0.00    +0.000 A 
ATOM     30  C   UNL     1       7.400   5.091  18.493  0.00  0.00    +0.000 A 
ENDBRANCH  24  25
ENDBRANCH  21  24
ENDBRANCH  17  18
ENDBRANCH  16  17
ENDBRANCH   3  16
TORSDOF 10
ENDMDL
