MODEL 1
REMARK VINA RESULT:      -8.5      0.000      0.000
REMARK  Name = 
REMARK  8 active torsions:
REMARK  status: ('A' for Active; 'I' for Inactive)
REMARK    1  A    between atoms: C_1  and  O_2
REMARK    2  A    between atoms: O_2  and  C_3
REMARK    3  A    between atoms: C_6  and  N_7
REMARK    4  A    between atoms: C_13  and  C_14
REMARK    5  A    between atoms: N_16  and  C_17
REMARK    6  A    between atoms: C_24  and  C_25
REMARK    7  A    between atoms: C_32  and  O_33
REMARK    8  A    between atoms: O_33  and  C_34
REMARK                            x       y       z     vdW  Elec       q    Type
REMARK                         _______ _______ _______ _____ _____    ______ ____
ROOT
ATOM      1  N   UNL     1       2.945   7.334  17.934  0.00  0.00    +0.000 N 
ATOM      2  C   UNL     1       2.232   8.026  18.873  0.00  0.00    +0.000 C 
ATOM      3  N   UNL     1       1.945   7.662  20.079  0.00  0.00    +0.000 NA
ATOM      4  C   UNL     1       1.215   8.595  20.773  0.00  0.00    +0.000 C 
ATOM      5  O   UNL     1       0.807   8.461  21.919  0.00  0.00    +0.000 OA
ATOM      6  C   UNL     1       0.963   9.808  19.956  0.00  0.00    +0.000 C 
ATOM      7  C   UNL     1       0.323  10.879  20.439  0.00  0.00    +0.000 C 
ATOM      8  S   UNL     1       1.635   9.597  18.385  0.00  0.00    +0.000 S 
ATOM      9  H   UNL     1       3.106   7.775  17.041  0.00  0.00    +0.000 HD
ENDROOT
BRANCH   1  13
ATOM     10  C   UNL     1       3.204   3.126  17.844  0.00  0.00    +0.000 A 
ATOM     11  C   UNL     1       1.964   3.752  17.789  0.00  0.00    +0.000 A 
ATOM     12  C   UNL     1       1.884   5.137  17.837  0.00  0.00    +0.000 A 
ATOM     13  C   UNL     1       3.040   5.927  17.891  0.00  0.00    +0.000 A 
ATOM     14  C   UNL     1       4.301   5.293  17.887  0.00  0.00    +0.000 A 
ATOM     15  C   UNL     1       4.370   3.891  17.892  0.00  0.00    +0.000 A 
BRANCH  10  17
ATOM     16  C   UNL     1       3.880   1.078  18.800  0.00  0.00    +0.000 C 
ATOM     17  O   UNL     1       3.166   1.760  17.777  0.00  0.00    +0.000 OA
ENDBRANCH  10  17
BRANCH  14  18
ATOM     18  O   UNL     1       5.401   6.117  17.908  0.00  0.00    +0.000 OA
ATOM     19  C   UNL     1       6.666   5.478  17.749  0.00  0.00    +0.000 C 
ENDBRANCH  14  18
ENDBRANCH   1  13
BRANCH   7  20
ATOM     20  C   UNL     1       0.109  12.078  19.713  0.00  0.00    +0.000 A 
ATOM     21  C   UNL     1       0.884  13.204  19.832  0.00  0.00    +0.000 A 
ATOM     22  N   UNL     1       0.247  14.190  19.116  0.00  0.00    +0.000 N 
ATOM     23  N   UNL     1      -0.857  13.714  18.484  0.00  0.00    +0.000 NA
ATOM     24  C   UNL     1      -0.939  12.417  18.818  0.00  0.00    +0.000 A 
BRANCH  22  25
ATOM     25  C   UNL     1       0.608  15.564  19.025  0.00  0.00    +0.000 A 
ATOM     26  C   UNL     1      -0.259  16.504  18.445  0.00  0.00    +0.000 A 
ATOM     27  C   UNL     1       0.126  17.846  18.349  0.00  0.00    +0.000 A 
ATOM     28  C   UNL     1       1.369  18.255  18.824  0.00  0.00    +0.000 A 
ATOM     29  C   UNL     1       2.235  17.326  19.402  0.00  0.00    +0.000 A 
ATOM     30  C   UNL     1       1.855  15.988  19.506  0.00  0.00    +0.000 A 
ENDBRANCH  22  25
BRANCH  24  31
ATOM     31  C   UNL     1      -2.015  11.565  18.299  0.00  0.00    +0.000 A 
ATOM     32  C   UNL     1      -1.745  10.517  17.405  0.00  0.00    +0.000 A 
ATOM     33  C   UNL     1      -2.780   9.728  16.894  0.00  0.00    +0.000 A 
ATOM     34  C   UNL     1      -4.098   9.983  17.267  0.00  0.00    +0.000 A 
ATOM     35  C   UNL     1      -4.381  11.019  18.155  0.00  0.00    +0.000 A 
ATOM     36  C   UNL     1      -3.347  11.805  18.669  0.00  0.00    +0.000 A 
ENDBRANCH  24  31
ENDBRANCH   7  20
TORSDOF 6
ENDMDL
MODEL 2
REMARK VINA RESULT:      -7.9      4.318      8.306
REMARK  Name = 
REMARK  8 active torsions:
REMARK  status: ('A' for Active; 'I' for Inactive)
REMARK    1  A    between atoms: C_1  and  O_2
REMARK    2  A    between atoms: O_2  and  C_3
REMARK    3  A    between atoms: C_6  and  N_7
REMARK    4  A    between atoms: C_13  and  C_14
REMARK    5  A    between atoms: N_16  and  C_17
REMARK    6  A    between atoms: C_24  and  C_25
REMARK    7  A    between atoms: C_32  and  O_33
REMARK    8  A    between atoms: O_33  and  C_34
REMARK                            x       y       z     vdW  Elec       q    Type
REMARK                         _______ _______ _______ _____ _____    ______ ____
ROOT
ATOM      1  N   UNL     1       4.574  14.629  17.778  0.00  0.00    +0.000 N 
ATOM      2  C   UNL     1       3.767  14.222  18.803  0.00  0.00    +0.000 C 
ATOM      3  N   UNL     1       3.935  14.415  20.070  0.00  0.00    +0.000 NA
ATOM      4  C   UNL     1       2.933  13.880  20.842  0.00  0.00    +0.000 C 
ATOM      5  O   UNL     1       2.890  13.917  22.064  0.00  0.00    +0.000 OA
ATOM      6  C   UNL     1       1.890  13.233  20.009  0.00  0.00    +0.000 C 
ATOM      7  C   UNL     1       0.783  12.695  20.535  0.00  0.00    +0.000 C 
ATOM      8  S   UNL     1       2.332  13.331  18.348  0.00  0.00    +0.000 S 
ATOM      9  H   UNL     1       4.285  14.420  16.834  0.00  0.00    +0.000 HD
ENDROOT
BRANCH   1  13
ATOM     10  C   UNL     1       8.726  15.252  18.181  0.00  0.00    +0.000 A 
ATOM     11  C   UNL     1       8.243  14.038  17.706  0.00  0.00    +0.000 A 
ATOM     12  C   UNL     1       6.875  13.833  17.592  0.00  0.00    +0.000 A 
ATOM     13  C   UNL     1       5.963  14.849  17.902  0.00  0.00    +0.000 A 
ATOM     14  C   UNL     1       6.456  16.101  18.329  0.00  0.00    +0.000 A 
ATOM     15  C   UNL     1       7.837  16.282  18.492  0.00  0.00    +0.000 A 
BRANCH  10  17
ATOM     16  C   UNL     1      10.720  15.837  17.064  0.00  0.00    +0.000 C 
ATOM     17  O   UNL     1      10.090  15.349  18.241  0.00  0.00    +0.000 OA
ENDBRANCH  10  17
BRANCH  14  18
ATOM     18  O   UNL     1       5.518  17.072  18.588  0.00  0.00    +0.000 OA
ATOM     19  C   UNL     1       5.513  17.602  19.913  0.00  0.00    +0.000 C 
ENDBRANCH  14  18
ENDBRANCH   1  13
BRANCH   7  20
ATOM     20  C   UNL     1      -0.264  12.116  19.774  0.00  0.00    +0.000 A 
ATOM     21  C   UNL     1      -1.468  12.725  19.524  0.00  0.00    +0.000 A 
ATOM     22  N   UNL     1      -2.265  11.778  18.924  0.00  0.00    +0.000 N 
ATOM     23  N   UNL     1      -1.588  10.619  18.713  0.00  0.00    +0.000 NA
ATOM     24  C   UNL     1      -0.356  10.820  19.202  0.00  0.00    +0.000 A 
BRANCH  22  25
ATOM     25  C   UNL     1      -3.638  11.900  18.572  0.00  0.00    +0.000 A 
ATOM     26  C   UNL     1      -4.084  11.592  17.277  0.00  0.00    +0.000 A 
ATOM     27  C   UNL     1      -5.437  11.738  16.949  0.00  0.00    +0.000 A 
ATOM     28  C   UNL     1      -6.345  12.191  17.902  0.00  0.00    +0.000 A 
ATOM     29  C   UNL     1      -5.908  12.497  19.192  0.00  0.00    +0.000 A 
ATOM     30  C   UNL     1      -4.562  12.349  19.526  0.00  0.00    +0.000 A 
ENDBRANCH  22  25
BRANCH  24  31
ATOM     31  C   UNL     1       0.671   9.773  19.132  0.00  0.00    +0.000 A 
ATOM     32  C   UNL     1       1.391   9.540  17.951  0.00  0.00    +0.000 A 
ATOM     33  C   UNL     1       2.347   8.522  17.885  0.00  0.00    +0.000 A 
ATOM     34  C   UNL     1       2.587   7.720  18.999  0.00  0.00    +0.000 A 
ATOM     35  C   UNL     1       1.879   7.940  20.179  0.00  0.00    +0.000 A 
ATOM     36  C   UNL     1       0.927   8.960  20.247  0.00  0.00    +0.000 A 
ENDBRANCH  24  31
ENDBRANCH   7  20
TORSDOF 6
ENDMDL
MODEL 3
REMARK VINA RESULT:      -7.8      4.307      8.226
REMARK  Name = 
REMARK  8 active torsions:
REMARK  status: ('A' for Active; 'I' for Inactive)
REMARK    1  A    between atoms: C_1  and  O_2
REMARK    2  A    between atoms: O_2  and  C_3
REMARK    3  A    between atoms: C_6  and  N_7
REMARK    4  A    between atoms: C_13  and  C_14
REMARK    5  A    between atoms: N_16  and  C_17
REMARK    6  A    between atoms: C_24  and  C_25
REMARK    7  A    between atoms: C_32  and  O_33
REMARK    8  A    between atoms: O_33  and  C_34
REMARK                            x       y       z     vdW  Elec       q    Type
REMARK                         _______ _______ _______ _____ _____    ______ ____
ROOT
ATOM      1  N   UNL     1       4.381  14.680  17.807  0.00  0.00    +0.000 N 
ATOM      2  C   UNL     1       3.599  14.262  18.847  0.00  0.00    +0.000 C 
ATOM      3  N   UNL     1       3.803  14.432  20.112  0.00  0.00    +0.000 NA
ATOM      4  C   UNL     1       2.818  13.894  20.902  0.00  0.00    +0.000 C 
ATOM      5  O   UNL     1       2.810  13.909  22.125  0.00  0.00    +0.000 OA
ATOM      6  C   UNL     1       1.746  13.271  20.089  0.00  0.00    +0.000 C 
ATOM      7  C   UNL     1       0.649  12.734  20.636  0.00  0.00    +0.000 C 
ATOM      8  S   UNL     1       2.143  13.393  18.417  0.00  0.00    +0.000 S 
ATOM      9  H   UNL     1       4.062  14.490  16.868  0.00  0.00    +0.000 HD
ENDROOT
BRANCH   1  13
ATOM     10  C   UNL     1       8.548  15.257  18.103  0.00  0.00    +0.000 A 
ATOM     11  C   UNL     1       8.040  14.057  17.620  0.00  0.00    +0.000 A 
ATOM     12  C   UNL     1       6.668  13.866  17.541  0.00  0.00    +0.000 A 
ATOM     13  C   UNL     1       5.774  14.885  17.896  0.00  0.00    +0.000 A 
ATOM     14  C   UNL     1       6.291  16.124  18.331  0.00  0.00    +0.000 A 
ATOM     15  C   UNL     1       7.678  16.289  18.458  0.00  0.00    +0.000 A 
BRANCH  10  17
ATOM     16  C   UNL     1      10.604  14.196  17.643  0.00  0.00    +0.000 C 
ATOM     17  O   UNL     1       9.913  15.340  18.126  0.00  0.00    +0.000 OA
ENDBRANCH  10  17
BRANCH  14  18
ATOM     18  O   UNL     1       5.370  17.098  18.635  0.00  0.00    +0.000 OA
ATOM     19  C   UNL     1       5.412  17.608  19.966  0.00  0.00    +0.000 C 
ENDBRANCH  14  18
ENDBRANCH   1  13
BRANCH   7  20
ATOM     20  C   UNL     1      -0.425  12.177  19.895  0.00  0.00    +0.000 A 
ATOM     21  C   UNL     1      -1.622  12.810  19.674  0.00  0.00    +0.000 A 
ATOM     22  N   UNL     1      -2.449  11.880  19.087  0.00  0.00    +0.000 N 
ATOM     23  N   UNL     1      -1.798  10.710  18.856  0.00  0.00    +0.000 NA
ATOM     24  C   UNL     1      -0.552  10.886  19.319  0.00  0.00    +0.000 A 
BRANCH  22  25
ATOM     25  C   UNL     1      -3.827  12.028  18.765  0.00  0.00    +0.000 A 
ATOM     26  C   UNL     1      -4.724  12.611  19.673  0.00  0.00    +0.000 A 
ATOM     27  C   UNL     1      -6.079  12.727  19.341  0.00  0.00    +0.000 A 
ATOM     28  C   UNL     1      -6.543  12.264  18.113  0.00  0.00    +0.000 A 
ATOM     29  C   UNL     1      -5.655  11.686  17.205  0.00  0.00    +0.000 A 
ATOM     30  C   UNL     1      -4.303  11.571  17.528  0.00  0.00    +0.000 A 
ENDBRANCH  22  25
BRANCH  24  31
ATOM     31  C   UNL     1       0.453   9.821  19.223  0.00  0.00    +0.000 A 
ATOM     32  C   UNL     1       0.824   9.068  20.348  0.00  0.00    +0.000 A 
ATOM     33  C   UNL     1       1.802   8.074  20.252  0.00  0.00    +0.000 A 
ATOM     34  C   UNL     1       2.426   7.827  19.031  0.00  0.00    +0.000 A 
ATOM     35  C   UNL     1       2.068   8.566  17.906  0.00  0.00    +0.000 A 
ATOM     36  C   UNL     1       1.087   9.556  17.999  0.00  0.00    +0.000 A 
ENDBRANCH  24  31
ENDBRANCH   7  20
TORSDOF 6
ENDMDL
MODEL 4
REMARK VINA RESULT:      -7.7      3.453     10.490
REMARK  Name = 
REMARK  8 active torsions:
REMARK  status: ('A' for Active; 'I' for Inactive)
REMARK    1  A    between atoms: C_1  and  O_2
REMARK    2  A    between atoms: O_2  and  C_3
REMARK    3  A    between atoms: C_6  and  N_7
REMARK    4  A    between atoms: C_13  and  C_14
REMARK    5  A    between atoms: N_16  and  C_17
REMARK    6  A    between atoms: C_24  and  C_25
REMARK    7  A    between atoms: C_32  and  O_33
REMARK    8  A    between atoms: O_33  and  C_34
REMARK                            x       y       z     vdW  Elec       q    Type
REMARK                         _______ _______ _______ _____ _____    ______ ____
ROOT
ATOM      1  N   UNL     1       1.277   8.915  18.953  0.00  0.00    +0.000 N 
ATOM      2  C   UNL     1       2.001   7.761  19.059  0.00  0.00    +0.000 C 
ATOM      3  N   UNL     1       1.957   6.880  20.004  0.00  0.00    +0.000 NA
ATOM      4  C   UNL     1       2.813   5.824  19.807  0.00  0.00    +0.000 C 
ATOM      5  O   UNL     1       2.962   4.886  20.578  0.00  0.00    +0.000 OA
ATOM      6  C   UNL     1       3.558   5.957  18.531  0.00  0.00    +0.000 C 
ATOM      7  C   UNL     1       4.406   5.018  18.094  0.00  0.00    +0.000 C 
ATOM      8  S   UNL     1       3.125   7.434  17.759  0.00  0.00    +0.000 S 
ATOM      9  H   UNL     1       1.410   9.486  18.131  0.00  0.00    +0.000 HD
ENDROOT
BRANCH   1  13
ATOM     10  C   UNL     1      -0.301  11.031  22.242  0.00  0.00    +0.000 A 
ATOM     11  C   UNL     1      -0.130   9.653  22.313  0.00  0.00    +0.000 A 
ATOM     12  C   UNL     1       0.374   8.961  21.221  0.00  0.00    +0.000 A 
ATOM     13  C   UNL     1       0.762   9.632  20.055  0.00  0.00    +0.000 A 
ATOM     14  C   UNL     1       0.643  11.037  20.005  0.00  0.00    +0.000 A 
ATOM     15  C   UNL     1       0.084  11.723  21.093  0.00  0.00    +0.000 A 
BRANCH  10  17
ATOM     16  C   UNL     1      -1.953  12.415  23.204  0.00  0.00    +0.000 C 
ATOM     17  O   UNL     1      -0.792  11.613  23.379  0.00  0.00    +0.000 OA
ENDBRANCH  10  17
BRANCH  14  18
ATOM     18  O   UNL     1       1.069  11.647  18.849  0.00  0.00    +0.000 OA
ATOM     19  C   UNL     1       2.093  12.628  18.999  0.00  0.00    +0.000 C 
ENDBRANCH  14  18
ENDBRANCH   1  13
BRANCH   7  20
ATOM     20  C   UNL     1       5.097   5.078  16.857  0.00  0.00    +0.000 A 
ATOM     21  C   UNL     1       4.735   4.376  15.735  0.00  0.00    +0.000 A 
ATOM     22  N   UNL     1       5.748   4.556  14.822  0.00  0.00    +0.000 N 
ATOM     23  N   UNL     1       6.697   5.407  15.293  0.00  0.00    +0.000 NA
ATOM     24  C   UNL     1       6.298   5.756  16.525  0.00  0.00    +0.000 A 
BRANCH  22  25
ATOM     25  C   UNL     1       5.883   3.942  13.546  0.00  0.00    +0.000 A 
ATOM     26  C   UNL     1       4.772   3.400  12.881  0.00  0.00    +0.000 A 
ATOM     27  C   UNL     1       4.934   2.783  11.636  0.00  0.00    +0.000 A 
ATOM     28  C   UNL     1       6.195   2.700  11.051  0.00  0.00    +0.000 A 
ATOM     29  C   UNL     1       7.303   3.238  11.707  0.00  0.00    +0.000 A 
ATOM     30  C   UNL     1       7.148   3.859  12.946  0.00  0.00    +0.000 A 
ENDBRANCH  22  25
BRANCH  24  31
ATOM     31  C   UNL     1       7.081   6.691  17.342  0.00  0.00    +0.000 A 
ATOM     32  C   UNL     1       7.203   8.042  16.984  0.00  0.00    +0.000 A 
ATOM     33  C   UNL     1       7.973   8.919  17.753  0.00  0.00    +0.000 A 
ATOM     34  C   UNL     1       8.637   8.452  18.885  0.00  0.00    +0.000 A 
ATOM     35  C   UNL     1       8.526   7.112  19.253  0.00  0.00    +0.000 A 
ATOM     36  C   UNL     1       7.752   6.236  18.488  0.00  0.00    +0.000 A 
ENDBRANCH  24  31
ENDBRANCH   7  20
TORSDOF 6
ENDMDL
MODEL 5
REMARK VINA RESULT:      -7.7      3.419     10.518
REMARK  Name = 
REMARK  8 active torsions:
REMARK  status: ('A' for Active; 'I' for Inactive)
REMARK    1  A    between atoms: C_1  and  O_2
REMARK    2  A    between atoms: O_2  and  C_3
REMARK    3  A    between atoms: C_6  and  N_7
REMARK    4  A    between atoms: C_13  and  C_14
REMARK    5  A    between atoms: N_16  and  C_17
REMARK    6  A    between atoms: C_24  and  C_25
REMARK    7  A    between atoms: C_32  and  O_33
REMARK    8  A    between atoms: O_33  and  C_34
REMARK                            x       y       z     vdW  Elec       q    Type
REMARK                         _______ _______ _______ _____ _____    ______ ____
ROOT
ATOM      1  N   UNL     1       1.322   8.914  18.948  0.00  0.00    +0.000 N 
ATOM      2  C   UNL     1       2.046   7.761  19.061  0.00  0.00    +0.000 C 
ATOM      3  N   UNL     1       2.001   6.885  20.011  0.00  0.00    +0.000 NA
ATOM      4  C   UNL     1       2.857   5.828  19.821  0.00  0.00    +0.000 C 
ATOM      5  O   UNL     1       3.005   4.895  20.597  0.00  0.00    +0.000 OA
ATOM      6  C   UNL     1       3.603   5.954  18.546  0.00  0.00    +0.000 C 
ATOM      7  C   UNL     1       4.452   5.013  18.114  0.00  0.00    +0.000 C 
ATOM      8  S   UNL     1       3.171   7.426  17.765  0.00  0.00    +0.000 S 
ATOM      9  H   UNL     1       1.456   9.480  18.123  0.00  0.00    +0.000 HD
ENDROOT
BRANCH   1  13
ATOM     10  C   UNL     1      -0.263  11.056  22.217  0.00  0.00    +0.000 A 
ATOM     11  C   UNL     1      -0.351   9.669  22.180  0.00  0.00    +0.000 A 
ATOM     12  C   UNL     1       0.157   8.972  21.094  0.00  0.00    +0.000 A 
ATOM     13  C   UNL     1       0.806   9.637  20.046  0.00  0.00    +0.000 A 
ATOM     14  C   UNL     1       0.946  11.039  20.111  0.00  0.00    +0.000 A 
ATOM     15  C   UNL     1       0.383  11.741  21.188  0.00  0.00    +0.000 A 
BRANCH  10  17
ATOM     16  C   UNL     1      -2.069  12.231  23.181  0.00  0.00    +0.000 C 
ATOM     17  O   UNL     1      -0.785  11.639  23.340  0.00  0.00    +0.000 OA
ENDBRANCH  10  17
BRANCH  14  18
ATOM     18  O   UNL     1       1.620  11.637  19.073  0.00  0.00    +0.000 OA
ATOM     19  C   UNL     1       1.049  12.840  18.565  0.00  0.00    +0.000 C 
ENDBRANCH  14  18
ENDBRANCH   1  13
BRANCH   7  20
ATOM     20  C   UNL     1       5.145   5.066  16.878  0.00  0.00    +0.000 A 
ATOM     21  C   UNL     1       4.777   4.368  15.755  0.00  0.00    +0.000 A 
ATOM     22  N   UNL     1       5.793   4.539  14.843  0.00  0.00    +0.000 N 
ATOM     23  N   UNL     1       6.750   5.380  15.315  0.00  0.00    +0.000 NA
ATOM     24  C   UNL     1       6.353   5.732  16.547  0.00  0.00    +0.000 A 
BRANCH  22  25
ATOM     25  C   UNL     1       5.923   3.923  13.567  0.00  0.00    +0.000 A 
ATOM     26  C   UNL     1       7.177   3.787  12.953  0.00  0.00    +0.000 A 
ATOM     27  C   UNL     1       7.277   3.196  11.688  0.00  0.00    +0.000 A 
ATOM     28  C   UNL     1       6.135   2.743  11.033  0.00  0.00    +0.000 A 
ATOM     29  C   UNL     1       4.885   2.874  11.639  0.00  0.00    +0.000 A 
ATOM     30  C   UNL     1       4.780   3.458  12.902  0.00  0.00    +0.000 A 
ENDBRANCH  22  25
BRANCH  24  31
ATOM     31  C   UNL     1       7.145   6.659  17.365  0.00  0.00    +0.000 A 
ATOM     32  C   UNL     1       7.795   6.225  18.530  0.00  0.00    +0.000 A 
ATOM     33  C   UNL     1       8.524   7.121  19.318  0.00  0.00    +0.000 A 
ATOM     34  C   UNL     1       8.604   8.463  18.952  0.00  0.00    +0.000 A 
ATOM     35  C   UNL     1       7.963   8.908  17.798  0.00  0.00    +0.000 A 
ATOM     36  C   UNL     1       7.238   8.012  17.007  0.00  0.00    +0.000 A 
ENDBRANCH  24  31
ENDBRANCH   7  20
TORSDOF 6
ENDMDL
MODEL 6
REMARK VINA RESULT:      -7.7      1.566      2.039
REMARK  Name = 
REMARK  8 active torsions:
REMARK  status: ('A' for Active; 'I' for Inactive)
REMARK    1  A    between atoms: C_1  and  O_2
REMARK    2  A    between atoms: O_2  and  C_3
REMARK    3  A    between atoms: C_6  and  N_7
REMARK    4  A    between atoms: C_13  and  C_14
REMARK    5  A    between atoms: N_16  and  C_17
REMARK    6  A    between atoms: C_24  and  C_25
REMARK    7  A    between atoms: C_32  and  O_33
REMARK    8  A    between atoms: O_33  and  C_34
REMARK                            x       y       z     vdW  Elec       q    Type
REMARK                         _______ _______ _______ _____ _____    ______ ____
ROOT
ATOM      1  N   UNL     1       2.849   7.429  18.221  0.00  0.00    +0.000 N 
ATOM      2  C   UNL     1       2.123   8.086  19.174  0.00  0.00    +0.000 C 
ATOM      3  N   UNL     1       1.759   7.650  20.335  0.00  0.00    +0.000 NA
ATOM      4  C   UNL     1       1.039   8.567  21.062  0.00  0.00    +0.000 C 
ATOM      5  O   UNL     1       0.569   8.370  22.174  0.00  0.00    +0.000 OA
ATOM      6  C   UNL     1       0.888   9.847  20.328  0.00  0.00    +0.000 C 
ATOM      7  C   UNL     1       0.277  10.912  20.860  0.00  0.00    +0.000 C 
ATOM      8  S   UNL     1       1.627   9.716  18.779  0.00  0.00    +0.000 S 
ATOM      9  H   UNL     1       3.076   7.924  17.371  0.00  0.00    +0.000 HD
ENDROOT
BRANCH   1  13
ATOM     10  C   UNL     1       2.912   3.230  17.827  0.00  0.00    +0.000 A 
ATOM     11  C   UNL     1       1.703   3.916  17.819  0.00  0.00    +0.000 A 
ATOM     12  C   UNL     1       1.687   5.296  17.966  0.00  0.00    +0.000 A 
ATOM     13  C   UNL     1       2.878   6.025  18.076  0.00  0.00    +0.000 A 
ATOM     14  C   UNL     1       4.108   5.335  18.025  0.00  0.00    +0.000 A 
ATOM     15  C   UNL     1       4.112   3.935  17.929  0.00  0.00    +0.000 A 
BRANCH  10  17
ATOM     16  C   UNL     1       3.719   1.097  18.430  0.00  0.00    +0.000 C 
ATOM     17  O   UNL     1       2.810   1.876  17.663  0.00  0.00    +0.000 OA
ENDBRANCH  10  17
BRANCH  14  18
ATOM     18  O   UNL     1       5.245   6.103  18.104  0.00  0.00    +0.000 OA
ATOM     19  C   UNL     1       6.268   5.621  18.972  0.00  0.00    +0.000 C 
ENDBRANCH  14  18
ENDBRANCH   1  13
BRANCH   7  20
ATOM     20  C   UNL     1       0.157  12.170  20.217  0.00  0.00    +0.000 A 
ATOM     21  C   UNL     1       1.167  12.780  19.517  0.00  0.00    +0.000 A 
ATOM     22  N   UNL     1       0.719  14.045  19.214  0.00  0.00    +0.000 N 
ATOM     23  N   UNL     1      -0.562  14.232  19.626  0.00  0.00    +0.000 NA
ATOM     24  C   UNL     1      -0.928  13.085  20.216  0.00  0.00    +0.000 A 
BRANCH  22  25
ATOM     25  C   UNL     1       1.449  15.095  18.589  0.00  0.00    +0.000 A 
ATOM     26  C   UNL     1       0.930  16.397  18.522  0.00  0.00    +0.000 A 
ATOM     27  C   UNL     1       1.657  17.409  17.884  0.00  0.00    +0.000 A 
ATOM     28  C   UNL     1       2.895  17.129  17.311  0.00  0.00    +0.000 A 
ATOM     29  C   UNL     1       3.417  15.836  17.376  0.00  0.00    +0.000 A 
ATOM     30  C   UNL     1       2.699  14.825  18.015  0.00  0.00    +0.000 A 
ENDBRANCH  22  25
BRANCH  24  31
ATOM     31  C   UNL     1      -2.275  12.913  20.775  0.00  0.00    +0.000 A 
ATOM     32  C   UNL     1      -3.382  12.681  19.944  0.00  0.00    +0.000 A 
ATOM     33  C   UNL     1      -4.665  12.547  20.484  0.00  0.00    +0.000 A 
ATOM     34  C   UNL     1      -4.855  12.650  21.860  0.00  0.00    +0.000 A 
ATOM     35  C   UNL     1      -3.765  12.880  22.697  0.00  0.00    +0.000 A 
ATOM     36  C   UNL     1      -2.482  13.009  22.159  0.00  0.00    +0.000 A 
ENDBRANCH  24  31
ENDBRANCH   7  20
TORSDOF 6
ENDMDL
MODEL 7
REMARK VINA RESULT:      -7.6      2.294      2.829
REMARK  Name = 
REMARK  8 active torsions:
REMARK  status: ('A' for Active; 'I' for Inactive)
REMARK    1  A    between atoms: C_1  and  O_2
REMARK    2  A    between atoms: O_2  and  C_3
REMARK    3  A    between atoms: C_6  and  N_7
REMARK    4  A    between atoms: C_13  and  C_14
REMARK    5  A    between atoms: N_16  and  C_17
REMARK    6  A    between atoms: C_24  and  C_25
REMARK    7  A    between atoms: C_32  and  O_33
REMARK    8  A    between atoms: O_33  and  C_34
REMARK                            x       y       z     vdW  Elec       q    Type
REMARK                         _______ _______ _______ _____ _____    ______ ____
ROOT
ATOM      1  N   UNL     1       2.063   8.113  19.469  0.00  0.00    +0.000 N 
ATOM      2  C   UNL     1       1.453   8.889  20.415  0.00  0.00    +0.000 C 
ATOM      3  N   UNL     1       1.320   8.644  21.676  0.00  0.00    +0.000 NA
ATOM      4  C   UNL     1       0.657   9.634  22.359  0.00  0.00    +0.000 C 
ATOM      5  O   UNL     1       0.393   9.610  23.553  0.00  0.00    +0.000 OA
ATOM      6  C   UNL     1       0.284  10.757  21.464  0.00  0.00    +0.000 C 
ATOM      7  C   UNL     1      -0.316  11.865  21.915  0.00  0.00    +0.000 C 
ATOM      8  S   UNL     1       0.768  10.397  19.851  0.00  0.00    +0.000 S 
ATOM      9  H   UNL     1       2.107   8.465  18.523  0.00  0.00    +0.000 HD
ENDROOT
BRANCH   1  13
ATOM     10  C   UNL     1       2.437   3.923  19.759  0.00  0.00    +0.000 A 
ATOM     11  C   UNL     1       1.633   4.617  20.655  0.00  0.00    +0.000 A 
ATOM     12  C   UNL     1       1.527   5.998  20.565  0.00  0.00    +0.000 A 
ATOM     13  C   UNL     1       2.182   6.709  19.551  0.00  0.00    +0.000 A 
ATOM     14  C   UNL     1       2.952   5.998  18.606  0.00  0.00    +0.000 A 
ATOM     15  C   UNL     1       3.095   4.608  18.736  0.00  0.00    +0.000 A 
BRANCH  10  17
ATOM     16  C   UNL     1       3.151   1.832  18.930  0.00  0.00    +0.000 C 
ATOM     17  O   UNL     1       2.458   2.566  19.931  0.00  0.00    +0.000 OA
ENDBRANCH  10  17
BRANCH  14  18
ATOM     18  O   UNL     1       3.545   6.742  17.614  0.00  0.00    +0.000 OA
ATOM     19  C   UNL     1       4.888   6.392  17.286  0.00  0.00    +0.000 C 
ENDBRANCH  14  18
ENDBRANCH   1  13
BRANCH   7  20
ATOM     20  C   UNL     1      -0.641  12.984  21.106  0.00  0.00    +0.000 A 
ATOM     21  C   UNL     1       0.255  13.644  20.303  0.00  0.00    +0.000 A 
ATOM     22  N   UNL     1      -0.394  14.765  19.839  0.00  0.00    +0.000 N 
ATOM     23  N   UNL     1      -1.688  14.799  20.253  0.00  0.00    +0.000 NA
ATOM     24  C   UNL     1      -1.861  13.702  21.005  0.00  0.00    +0.000 A 
BRANCH  22  25
ATOM     25  C   UNL     1       0.152  15.820  19.056  0.00  0.00    +0.000 A 
ATOM     26  C   UNL     1      -0.676  16.784  18.460  0.00  0.00    +0.000 A 
ATOM     27  C   UNL     1      -0.116  17.800  17.678  0.00  0.00    +0.000 A 
ATOM     28  C   UNL     1       1.261  17.860  17.484  0.00  0.00    +0.000 A 
ATOM     29  C   UNL     1       2.090  16.905  18.076  0.00  0.00    +0.000 A 
ATOM     30  C   UNL     1       1.539  15.892  18.860  0.00  0.00    +0.000 A 
ENDBRANCH  22  25
BRANCH  24  31
ATOM     31  C   UNL     1      -3.160  13.395  21.616  0.00  0.00    +0.000 A 
ATOM     32  C   UNL     1      -3.354  13.502  23.002  0.00  0.00    +0.000 A 
ATOM     33  C   UNL     1      -4.586  13.182  23.579  0.00  0.00    +0.000 A 
ATOM     34  C   UNL     1      -5.637  12.744  22.775  0.00  0.00    +0.000 A 
ATOM     35  C   UNL     1      -5.459  12.633  21.397  0.00  0.00    +0.000 A 
ATOM     36  C   UNL     1      -4.229  12.958  20.820  0.00  0.00    +0.000 A 
ENDBRANCH  24  31
ENDBRANCH   7  20
TORSDOF 6
ENDMDL
MODEL 8
REMARK VINA RESULT:      -7.5      1.625      2.250
REMARK  Name = 
REMARK  8 active torsions:
REMARK  status: ('A' for Active; 'I' for Inactive)
REMARK    1  A    between atoms: C_1  and  O_2
REMARK    2  A    between atoms: O_2  and  C_3
REMARK    3  A    between atoms: C_6  and  N_7
REMARK    4  A    between atoms: C_13  and  C_14
REMARK    5  A    between atoms: N_16  and  C_17
REMARK    6  A    between atoms: C_24  and  C_25
REMARK    7  A    between atoms: C_32  and  O_33
REMARK    8  A    between atoms: O_33  and  C_34
REMARK                            x       y       z     vdW  Elec       q    Type
REMARK                         _______ _______ _______ _____ _____    ______ ____
ROOT
ATOM      1  N   UNL     1       2.781   7.529  18.240  0.00  0.00    +0.000 N 
ATOM      2  C   UNL     1       2.038   8.173  19.189  0.00  0.00    +0.000 C 
ATOM      3  N   UNL     1       1.654   7.723  20.338  0.00  0.00    +0.000 NA
ATOM      4  C   UNL     1       0.920   8.628  21.063  0.00  0.00    +0.000 C 
ATOM      5  O   UNL     1       0.431   8.417  22.164  0.00  0.00    +0.000 OA
ATOM      6  C   UNL     1       0.778   9.917  20.342  0.00  0.00    +0.000 C 
ATOM      7  C   UNL     1       0.155  10.974  20.876  0.00  0.00    +0.000 C 
ATOM      8  S   UNL     1       1.545   9.807  18.804  0.00  0.00    +0.000 S 
ATOM      9  H   UNL     1       3.022   8.036  17.401  0.00  0.00    +0.000 HD
ENDROOT
BRANCH   1  13
ATOM     10  C   UNL     1       2.866   3.336  17.799  0.00  0.00    +0.000 A 
ATOM     11  C   UNL     1       1.651   4.007  17.879  0.00  0.00    +0.000 A 
ATOM     12  C   UNL     1       1.630   5.385  18.041  0.00  0.00    +0.000 A 
ATOM     13  C   UNL     1       2.817   6.127  18.079  0.00  0.00    +0.000 A 
ATOM     14  C   UNL     1       4.048   5.452  17.939  0.00  0.00    +0.000 A 
ATOM     15  C   UNL     1       4.062   4.054  17.828  0.00  0.00    +0.000 A 
BRANCH  10  17
ATOM     16  C   UNL     1       3.652   1.200  18.422  0.00  0.00    +0.000 C 
ATOM     17  O   UNL     1       2.769   1.982  17.628  0.00  0.00    +0.000 OA
ENDBRANCH  10  17
BRANCH  14  18
ATOM     18  O   UNL     1       5.179   6.233  17.950  0.00  0.00    +0.000 OA
ATOM     19  C   UNL     1       5.823   6.421  16.691  0.00  0.00    +0.000 C 
ENDBRANCH  14  18
ENDBRANCH   1  13
BRANCH   7  20
ATOM     20  C   UNL     1       0.043  12.240  20.246  0.00  0.00    +0.000 A 
ATOM     21  C   UNL     1       1.043  12.832  19.518  0.00  0.00    +0.000 A 
ATOM     22  N   UNL     1       0.615  14.109  19.239  0.00  0.00    +0.000 N 
ATOM     23  N   UNL     1      -0.647  14.322  19.694  0.00  0.00    +0.000 NA
ATOM     24  C   UNL     1      -1.020  13.178  20.287  0.00  0.00    +0.000 A 
BRANCH  22  25
ATOM     25  C   UNL     1       1.348  15.147  18.598  0.00  0.00    +0.000 A 
ATOM     26  C   UNL     1       2.626  14.911  18.069  0.00  0.00    +0.000 A 
ATOM     27  C   UNL     1       3.335  15.954  17.460  0.00  0.00    +0.000 A 
ATOM     28  C   UNL     1       2.779  17.227  17.379  0.00  0.00    +0.000 A 
ATOM     29  C   UNL     1       1.507  17.467  17.902  0.00  0.00    +0.000 A 
ATOM     30  C   UNL     1       0.793  16.432  18.505  0.00  0.00    +0.000 A 
ENDBRANCH  22  25
BRANCH  24  31
ATOM     31  C   UNL     1      -2.352  13.033  20.889  0.00  0.00    +0.000 A 
ATOM     32  C   UNL     1      -2.535  13.129  22.277  0.00  0.00    +0.000 A 
ATOM     33  C   UNL     1      -3.802  12.962  22.844  0.00  0.00    +0.000 A 
ATOM     34  C   UNL     1      -4.898  12.689  22.028  0.00  0.00    +0.000 A 
ATOM     35  C   UNL     1      -4.731  12.591  20.648  0.00  0.00    +0.000 A 
ATOM     36  C   UNL     1      -3.466  12.763  20.081  0.00  0.00    +0.000 A 
ENDBRANCH  24  31
ENDBRANCH   7  20
TORSDOF 6
ENDMDL
MODEL 9
REMARK VINA RESULT:      -7.3      2.568      4.829
REMARK  Name = 
REMARK  8 active torsions:
REMARK  status: ('A' for Active; 'I' for Inactive)
REMARK    1  A    between atoms: C_1  and  O_2
REMARK    2  A    between atoms: O_2  and  C_3
REMARK    3  A    between atoms: C_6  and  N_7
REMARK    4  A    between atoms: C_13  and  C_14
REMARK    5  A    between atoms: N_16  and  C_17
REMARK    6  A    between atoms: C_24  and  C_25
REMARK    7  A    between atoms: C_32  and  O_33
REMARK    8  A    between atoms: O_33  and  C_34
REMARK                            x       y       z     vdW  Elec       q    Type
REMARK                         _______ _______ _______ _____ _____    ______ ____
ROOT
ATOM      1  N   UNL     1       1.622   8.088  19.692  0.00  0.00    +0.000 N 
ATOM      2  C   UNL     1       1.097   8.778  20.749  0.00  0.00    +0.000 C 
ATOM      3  N   UNL     1       1.371   8.637  22.004  0.00  0.00    +0.000 NA
ATOM      4  C   UNL     1       0.671   9.494  22.817  0.00  0.00    +0.000 C 
ATOM      5  O   UNL     1       0.747   9.527  24.037  0.00  0.00    +0.000 OA
ATOM      6  C   UNL     1      -0.211  10.391  22.031  0.00  0.00    +0.000 C 
ATOM      7  C   UNL     1      -0.946  11.355  22.599  0.00  0.00    +0.000 C 
ATOM      8  S   UNL     1      -0.090  10.002  20.358  0.00  0.00    +0.000 S 
ATOM      9  H   UNL     1       1.320   8.341  18.763  0.00  0.00    +0.000 HD
ENDROOT
BRANCH   1  13
ATOM     10  C   UNL     1       3.151   4.169  19.995  0.00  0.00    +0.000 A 
ATOM     11  C   UNL     1       2.059   4.556  20.764  0.00  0.00    +0.000 A 
ATOM     12  C   UNL     1       1.571   5.851  20.672  0.00  0.00    +0.000 A 
ATOM     13  C   UNL     1       2.130   6.774  19.779  0.00  0.00    +0.000 A 
ATOM     14  C   UNL     1       3.201   6.364  18.956  0.00  0.00    +0.000 A 
ATOM     15  C   UNL     1       3.722   5.068  19.093  0.00  0.00    +0.000 A 
BRANCH  10  17
ATOM     16  C   UNL     1       3.633   2.104  18.959  0.00  0.00    +0.000 C 
ATOM     17  O   UNL     1       3.540   2.867  20.155  0.00  0.00    +0.000 OA
ENDBRANCH  10  17
BRANCH  14  18
ATOM     18  O   UNL     1       3.689   7.299  18.075  0.00  0.00    +0.000 OA
ATOM     19  C   UNL     1       4.477   6.794  16.998  0.00  0.00    +0.000 C 
ENDBRANCH  14  18
ENDBRANCH   1  13
BRANCH   7  20
ATOM     20  C   UNL     1      -1.760  12.269  21.883  0.00  0.00    +0.000 A 
ATOM     21  C   UNL     1      -3.132  12.243  21.877  0.00  0.00    +0.000 A 
ATOM     22  N   UNL     1      -3.532  13.157  20.930  0.00  0.00    +0.000 N 
ATOM     23  N   UNL     1      -2.473  13.815  20.393  0.00  0.00    +0.000 NA
ATOM     24  C   UNL     1      -1.384  13.302  20.986  0.00  0.00    +0.000 A 
BRANCH  22  25
ATOM     25  C   UNL     1      -4.859  13.415  20.483  0.00  0.00    +0.000 A 
ATOM     26  C   UNL     1      -5.340  14.728  20.364  0.00  0.00    +0.000 A 
ATOM     27  C   UNL     1      -6.655  14.955  19.941  0.00  0.00    +0.000 A 
ATOM     28  C   UNL     1      -7.491  13.884  19.640  0.00  0.00    +0.000 A 
ATOM     29  C   UNL     1      -7.017  12.576  19.755  0.00  0.00    +0.000 A 
ATOM     30  C   UNL     1      -5.706  12.342  20.171  0.00  0.00    +0.000 A 
ENDBRANCH  22  25
BRANCH  24  31
ATOM     31  C   UNL     1      -0.039  13.791  20.660  0.00  0.00    +0.000 A 
ATOM     32  C   UNL     1       0.445  13.764  19.342  0.00  0.00    +0.000 A 
ATOM     33  C   UNL     1       1.737  14.206  19.046  0.00  0.00    +0.000 A 
ATOM     34  C   UNL     1       2.563  14.674  20.065  0.00  0.00    +0.000 A 
ATOM     35  C   UNL     1       2.097  14.708  21.378  0.00  0.00    +0.000 A 
ATOM     36  C   UNL     1       0.803  14.271  21.674  0.00  0.00    +0.000 A 
ENDBRANCH  24  31
ENDBRANCH   7  20
TORSDOF 6
ENDMDL
