MODEL 1
REMARK VINA RESULT:      -7.8      0.000      0.000
REMARK  Name = 
REMARK  9 active torsions:
REMARK  status: ('A' for Active; 'I' for Inactive)
REMARK    1  A    between atoms: C_1  and  C_2
REMARK    2  A    between atoms: C_3  and  C_4
REMARK    3  A    between atoms: C_4  and  C_6
REMARK    4  A    between atoms: C_10  and  O_11
REMARK    5  A    between atoms: O_11  and  C_12
REMARK    6  A    between atoms: C_12  and  C_13
REMARK    7  A    between atoms: C_13  and  O_15
REMARK    8  A    between atoms: C_20  and  C_21
REMARK    9  A    between atoms: C_21  and  C_22
REMARK                            x       y       z     vdW  Elec       q    Type
REMARK                         _______ _______ _______ _____ _____    ______ ____
ROOT
ATOM      1  C   UNL     1       1.557   3.951  21.266  0.00  0.00    +0.000 C 
ATOM      2  C   UNL     1       2.305   4.733  20.231  0.00  0.00    +0.000 A 
ATOM      3  C   UNL     1       3.337   4.276  19.309  0.00  0.00    +0.000 A 
ATOM      4  C   UNL     1       3.533   5.336  18.401  0.00  0.00    +0.000 A 
ATOM      5  C   UNL     1       4.236   5.549  17.151  0.00  0.00    +0.000 A 
ATOM      6  C   UNL     1       4.278   6.788  16.611  0.00  0.00    +0.000 A 
ATOM      7  C   UNL     1       3.721   7.941  17.281  0.00  0.00    +0.000 A 
ATOM      8  C   UNL     1       3.036   7.750  18.405  0.00  0.00    +0.000 A 
ATOM      9  N   UNL     1       2.887   6.464  18.933  0.00  0.00    +0.000 N 
ATOM     10  C   UNL     1       2.088   6.091  19.996  0.00  0.00    +0.000 A 
ENDROOT
BRANCH   3  11
ATOM     11  C   UNL     1       4.066   2.985  19.265  0.00  0.00    +0.000 C 
ATOM     12  O   UNL     1       5.062   2.749  19.956  0.00  0.00    +0.000 OA
BRANCH  11  13
ATOM     13  C   UNL     1       3.585   1.763  18.472  0.00  0.00    +0.000 C 
ATOM     14  N   UNL     1       4.330   0.619  18.657  0.00  0.00    +0.000 N 
ATOM     15  O   UNL     1       2.673   1.820  17.663  0.00  0.00    +0.000 OA
ATOM     16  H   UNL     1       5.257   0.712  19.057  0.00  0.00    +0.000 HD
ATOM     17  H   UNL     1       4.178  -0.129  17.993  0.00  0.00    +0.000 HD
ENDBRANCH  11  13
ENDBRANCH   3  11
BRANCH   5  18
ATOM     18  O   UNL     1       4.762   4.432  16.524  0.00  0.00    +0.000 OA
BRANCH  18  19
ATOM     19  C   UNL     1       6.126   4.539  16.108  0.00  0.00    +0.000 C 
BRANCH  19  20
ATOM     20  C   UNL     1       7.082   4.963  17.217  0.00  0.00    +0.000 C 
ATOM     21  O   UNL     1       7.699   6.020  17.235  0.00  0.00    +0.000 OA
BRANCH  20  22
ATOM     22  O   UNL     1       7.168   4.052  18.218  0.00  0.00    +0.000 OA
ATOM     23  H   UNL     1       8.060   3.644  18.236  0.00  0.00    +0.000 HD
ENDBRANCH  20  22
ENDBRANCH  19  20
ENDBRANCH  18  19
ENDBRANCH   5  18
BRANCH  10  24
ATOM     24  C   UNL     1       1.076   7.050  20.625  0.00  0.00    +0.000 C 
BRANCH  24  25
ATOM     25  C   UNL     1       1.554   8.513  20.800  0.00  0.00    +0.000 C 
ATOM     26  C   UNL     1       0.814   9.559  19.941  0.00  0.00    +0.000 C 
ATOM     27  C   UNL     1      -0.524  10.073  20.484  0.00  0.00    +0.000 C 
ATOM     28  C   UNL     1      -0.530  10.382  21.976  0.00  0.00    +0.000 C 
ATOM     29  C   UNL     1       0.129   9.291  22.806  0.00  0.00    +0.000 C 
ATOM     30  C   UNL     1       1.519   8.940  22.284  0.00  0.00    +0.000 C 
ENDBRANCH  24  25
ENDBRANCH  10  24
TORSDOF 8
ENDMDL
MODEL 2
REMARK VINA RESULT:      -7.8      2.702      4.607
REMARK  Name = 
REMARK  9 active torsions:
REMARK  status: ('A' for Active; 'I' for Inactive)
REMARK    1  A    between atoms: C_1  and  C_2
REMARK    2  A    between atoms: C_3  and  C_4
REMARK    3  A    between atoms: C_4  and  C_6
REMARK    4  A    between atoms: C_10  and  O_11
REMARK    5  A    between atoms: O_11  and  C_12
REMARK    6  A    between atoms: C_12  and  C_13
REMARK    7  A    between atoms: C_13  and  O_15
REMARK    8  A    between atoms: C_20  and  C_21
REMARK    9  A    between atoms: C_21  and  C_22
REMARK                            x       y       z     vdW  Elec       q    Type
REMARK                         _______ _______ _______ _____ _____    ______ ____
ROOT
ATOM      1  C   UNL     1       4.781   3.009  20.469  0.00  0.00    +0.000 C 
ATOM      2  C   UNL     1       4.510   4.311  19.782  0.00  0.00    +0.000 A 
ATOM      3  C   UNL     1       5.377   5.075  18.895  0.00  0.00    +0.000 A 
ATOM      4  C   UNL     1       4.563   6.083  18.341  0.00  0.00    +0.000 A 
ATOM      5  C   UNL     1       4.665   7.073  17.287  0.00  0.00    +0.000 A 
ATOM      6  C   UNL     1       3.670   7.972  17.116  0.00  0.00    +0.000 A 
ATOM      7  C   UNL     1       2.535   8.046  18.007  0.00  0.00    +0.000 A 
ATOM      8  C   UNL     1       2.409   7.116  18.949  0.00  0.00    +0.000 A 
ATOM      9  N   UNL     1       3.371   6.110  19.084  0.00  0.00    +0.000 N 
ATOM     10  C   UNL     1       3.303   5.001  19.905  0.00  0.00    +0.000 A 
ENDROOT
BRANCH   3  11
ATOM     11  C   UNL     1       6.816   4.890  18.583  0.00  0.00    +0.000 C 
ATOM     12  O   UNL     1       7.226   4.081  17.745  0.00  0.00    +0.000 OA
BRANCH  11  13
ATOM     13  C   UNL     1       7.931   5.774  19.158  0.00  0.00    +0.000 C 
ATOM     14  N   UNL     1       8.524   5.290  20.303  0.00  0.00    +0.000 N 
ATOM     15  O   UNL     1       8.207   6.869  18.697  0.00  0.00    +0.000 OA
ATOM     16  H   UNL     1       8.038   4.571  20.826  0.00  0.00    +0.000 HD
ATOM     17  H   UNL     1       9.098   5.942  20.822  0.00  0.00    +0.000 HD
ENDBRANCH  11  13
ENDBRANCH   3  11
BRANCH   5  18
ATOM     18  O   UNL     1       5.760   6.986  16.443  0.00  0.00    +0.000 OA
BRANCH  18  19
ATOM     19  C   UNL     1       5.535   6.309  15.204  0.00  0.00    +0.000 C 
BRANCH  19  20
ATOM     20  C   UNL     1       6.529   5.190  14.919  0.00  0.00    +0.000 C 
ATOM     21  O   UNL     1       7.672   5.363  14.517  0.00  0.00    +0.000 OA
BRANCH  20  22
ATOM     22  O   UNL     1       6.028   3.957  15.181  0.00  0.00    +0.000 OA
ATOM     23  H   UNL     1       5.302   4.013  15.837  0.00  0.00    +0.000 HD
ENDBRANCH  20  22
ENDBRANCH  19  20
ENDBRANCH  18  19
ENDBRANCH   5  18
BRANCH  10  24
ATOM     24  C   UNL     1       2.023   4.623  20.651  0.00  0.00    +0.000 C 
BRANCH  24  25
ATOM     25  C   UNL     1       0.974   3.833  19.830  0.00  0.00    +0.000 C 
ATOM     26  C   UNL     1       1.001   4.079  18.308  0.00  0.00    +0.000 C 
ATOM     27  C   UNL     1       2.034   3.284  17.502  0.00  0.00    +0.000 C 
ATOM     28  C   UNL     1       2.156   1.816  17.893  0.00  0.00    +0.000 C 
ATOM     29  C   UNL     1       2.214   1.612  19.399  0.00  0.00    +0.000 C 
ATOM     30  C   UNL     1       1.066   2.318  20.114  0.00  0.00    +0.000 C 
ENDBRANCH  24  25
ENDBRANCH  10  24
TORSDOF 8
ENDMDL
MODEL 3
REMARK VINA RESULT:      -7.7      0.803      1.171
REMARK  Name = 
REMARK  9 active torsions:
REMARK  status: ('A' for Active; 'I' for Inactive)
REMARK    1  A    between atoms: C_1  and  C_2
REMARK    2  A    between atoms: C_3  and  C_4
REMARK    3  A    between atoms: C_4  and  C_6
REMARK    4  A    between atoms: C_10  and  O_11
REMARK    5  A    between atoms: O_11  and  C_12
REMARK    6  A    between atoms: C_12  and  C_13
REMARK    7  A    between atoms: C_13  and  O_15
REMARK    8  A    between atoms: C_20  and  C_21
REMARK    9  A    between atoms: C_21  and  C_22
REMARK                            x       y       z     vdW  Elec       q    Type
REMARK                         _______ _______ _______ _____ _____    ______ ____
ROOT
ATOM      1  C   UNL     1       1.480   3.907  21.207  0.00  0.00    +0.000 C 
ATOM      2  C   UNL     1       2.273   4.675  20.197  0.00  0.00    +0.000 A 
ATOM      3  C   UNL     1       3.327   4.201  19.309  0.00  0.00    +0.000 A 
ATOM      4  C   UNL     1       3.569   5.256  18.407  0.00  0.00    +0.000 A 
ATOM      5  C   UNL     1       4.315   5.456  17.180  0.00  0.00    +0.000 A 
ATOM      6  C   UNL     1       4.394   6.693  16.641  0.00  0.00    +0.000 A 
ATOM      7  C   UNL     1       3.835   7.856  17.291  0.00  0.00    +0.000 A 
ATOM      8  C   UNL     1       3.111   7.677  18.393  0.00  0.00    +0.000 A 
ATOM      9  N   UNL     1       2.924   6.395  18.916  0.00  0.00    +0.000 N 
ATOM     10  C   UNL     1       2.085   6.037  19.954  0.00  0.00    +0.000 A 
ENDROOT
BRANCH   3  11
ATOM     11  C   UNL     1       4.037   2.898  19.291  0.00  0.00    +0.000 C 
ATOM     12  O   UNL     1       4.993   2.640  20.029  0.00  0.00    +0.000 OA
BRANCH  11  13
ATOM     13  C   UNL     1       3.577   1.690  18.463  0.00  0.00    +0.000 C 
ATOM     14  N   UNL     1       4.339   0.554  18.620  0.00  0.00    +0.000 N 
ATOM     15  O   UNL     1       2.667   1.756  17.653  0.00  0.00    +0.000 OA
ATOM     16  H   UNL     1       5.263   0.650  19.026  0.00  0.00    +0.000 HD
ATOM     17  H   UNL     1       4.201  -0.178  17.936  0.00  0.00    +0.000 HD
ENDBRANCH  11  13
ENDBRANCH   3  11
BRANCH   5  18
ATOM     18  O   UNL     1       4.845   4.330  16.572  0.00  0.00    +0.000 OA
BRANCH  18  19
ATOM     19  C   UNL     1       6.265   4.323  16.410  0.00  0.00    +0.000 C 
BRANCH  19  20
ATOM     20  C   UNL     1       6.725   4.445  14.962  0.00  0.00    +0.000 C 
ATOM     21  O   UNL     1       6.290   3.773  14.037  0.00  0.00    +0.000 OA
BRANCH  20  22
ATOM     22  O   UNL     1       7.665   5.407  14.785  0.00  0.00    +0.000 OA
ATOM     23  H   UNL     1       8.553   5.005  14.679  0.00  0.00    +0.000 HD
ENDBRANCH  20  22
ENDBRANCH  19  20
ENDBRANCH  18  19
ENDBRANCH   5  18
BRANCH  10  24
ATOM     24  C   UNL     1       1.068   7.012  20.548  0.00  0.00    +0.000 C 
BRANCH  24  25
ATOM     25  C   UNL     1       1.566   8.465  20.747  0.00  0.00    +0.000 C 
ATOM     26  C   UNL     1       0.862   9.532  19.885  0.00  0.00    +0.000 C 
ATOM     27  C   UNL     1      -0.478  10.062  20.407  0.00  0.00    +0.000 C 
ATOM     28  C   UNL     1      -0.509  10.356  21.902  0.00  0.00    +0.000 C 
ATOM     29  C   UNL     1       0.116   9.246  22.733  0.00  0.00    +0.000 C 
ATOM     30  C   UNL     1       1.510   8.877  22.235  0.00  0.00    +0.000 C 
ENDBRANCH  24  25
ENDBRANCH  10  24
TORSDOF 8
ENDMDL
MODEL 4
REMARK VINA RESULT:      -7.6      3.151      6.223
REMARK  Name = 
REMARK  9 active torsions:
REMARK  status: ('A' for Active; 'I' for Inactive)
REMARK    1  A    between atoms: C_1  and  C_2
REMARK    2  A    between atoms: C_3  and  C_4
REMARK    3  A    between atoms: C_4  and  C_6
REMARK    4  A    between atoms: C_10  and  O_11
REMARK    5  A    between atoms: O_11  and  C_12
REMARK    6  A    between atoms: C_12  and  C_13
REMARK    7  A    between atoms: C_13  and  O_15
REMARK    8  A    between atoms: C_20  and  C_21
REMARK    9  A    between atoms: C_21  and  C_22
REMARK                            x       y       z     vdW  Elec       q    Type
REMARK                         _______ _______ _______ _____ _____    ______ ____
ROOT
ATOM      1  C   UNL     1       4.378   3.320  18.564  0.00  0.00    +0.000 C 
ATOM      2  C   UNL     1       3.639   4.621  18.600  0.00  0.00    +0.000 A 
ATOM      3  C   UNL     1       2.754   5.142  19.634  0.00  0.00    +0.000 A 
ATOM      4  C   UNL     1       2.517   6.487  19.290  0.00  0.00    +0.000 A 
ATOM      5  C   UNL     1       1.909   7.651  19.905  0.00  0.00    +0.000 A 
ATOM      6  C   UNL     1       1.770   8.789  19.189  0.00  0.00    +0.000 A 
ATOM      7  C   UNL     1       2.126   8.870  17.791  0.00  0.00    +0.000 A 
ATOM      8  C   UNL     1       2.725   7.823  17.229  0.00  0.00    +0.000 A 
ATOM      9  N   UNL     1       2.977   6.668  17.975  0.00  0.00    +0.000 N 
ATOM     10  C   UNL     1       3.716   5.570  17.580  0.00  0.00    +0.000 A 
ENDROOT
BRANCH   3  11
ATOM     11  C   UNL     1       2.187   4.466  20.827  0.00  0.00    +0.000 C 
ATOM     12  O   UNL     1       2.309   4.907  21.974  0.00  0.00    +0.000 OA
BRANCH  11  13
ATOM     13  C   UNL     1       1.275   3.234  20.753  0.00  0.00    +0.000 C 
ATOM     14  N   UNL     1       1.346   2.392  21.841  0.00  0.00    +0.000 N 
ATOM     15  O   UNL     1       0.611   2.965  19.766  0.00  0.00    +0.000 OA
ATOM     16  H   UNL     1       2.146   2.475  22.459  0.00  0.00    +0.000 HD
ATOM     17  H   UNL     1       0.933   1.476  21.729  0.00  0.00    +0.000 HD
ENDBRANCH  11  13
ENDBRANCH   3  11
BRANCH   5  18
ATOM     18  O   UNL     1       1.574   7.555  21.246  0.00  0.00    +0.000 OA
BRANCH  18  19
ATOM     19  C   UNL     1       0.502   8.394  21.679  0.00  0.00    +0.000 C 
BRANCH  19  20
ATOM     20  C   UNL     1       0.881   9.361  22.795  0.00  0.00    +0.000 C 
ATOM     21  O   UNL     1       0.077   9.991  23.470  0.00  0.00    +0.000 OA
BRANCH  20  22
ATOM     22  O   UNL     1       2.220   9.442  22.993  0.00  0.00    +0.000 OA
ATOM     23  H   UNL     1       2.622   8.548  22.994  0.00  0.00    +0.000 HD
ENDBRANCH  20  22
ENDBRANCH  19  20
ENDBRANCH  18  19
ENDBRANCH   5  18
BRANCH  10  24
ATOM     24  C   UNL     1       4.548   5.573  16.297  0.00  0.00    +0.000 C 
BRANCH  24  25
ATOM     25  C   UNL     1       5.918   6.290  16.385  0.00  0.00    +0.000 C 
ATOM     26  C   UNL     1       6.268   6.882  17.766  0.00  0.00    +0.000 C 
ATOM     27  C   UNL     1       6.859   5.915  18.798  0.00  0.00    +0.000 C 
ATOM     28  C   UNL     1       7.912   4.961  18.250  0.00  0.00    +0.000 C 
ATOM     29  C   UNL     1       7.501   4.326  16.930  0.00  0.00    +0.000 C 
ATOM     30  C   UNL     1       7.063   5.370  15.907  0.00  0.00    +0.000 C 
ENDBRANCH  24  25
ENDBRANCH  10  24
TORSDOF 8
ENDMDL
MODEL 5
REMARK VINA RESULT:      -7.2      1.932      4.094
REMARK  Name = 
REMARK  9 active torsions:
REMARK  status: ('A' for Active; 'I' for Inactive)
REMARK    1  A    between atoms: C_1  and  C_2
REMARK    2  A    between atoms: C_3  and  C_4
REMARK    3  A    between atoms: C_4  and  C_6
REMARK    4  A    between atoms: C_10  and  O_11
REMARK    5  A    between atoms: O_11  and  C_12
REMARK    6  A    between atoms: C_12  and  C_13
REMARK    7  A    between atoms: C_13  and  O_15
REMARK    8  A    between atoms: C_20  and  C_21
REMARK    9  A    between atoms: C_21  and  C_22
REMARK                            x       y       z     vdW  Elec       q    Type
REMARK                         _______ _______ _______ _____ _____    ______ ____
ROOT
ATOM      1  C   UNL     1       4.238   7.155  16.926  0.00  0.00    +0.000 C 
ATOM      2  C   UNL     1       3.738   6.049  17.802  0.00  0.00    +0.000 A 
ATOM      3  C   UNL     1       4.363   4.766  18.102  0.00  0.00    +0.000 A 
ATOM      4  C   UNL     1       3.604   4.209  19.150  0.00  0.00    +0.000 A 
ATOM      5  C   UNL     1       3.713   3.086  20.061  0.00  0.00    +0.000 A 
ATOM      6  C   UNL     1       2.687   2.801  20.894  0.00  0.00    +0.000 A 
ATOM      7  C   UNL     1       1.436   3.521  20.853  0.00  0.00    +0.000 A 
ATOM      8  C   UNL     1       1.342   4.580  20.054  0.00  0.00    +0.000 A 
ATOM      9  N   UNL     1       2.424   4.963  19.256  0.00  0.00    +0.000 N 
ATOM     10  C   UNL     1       2.529   6.112  18.497  0.00  0.00    +0.000 A 
ENDROOT
BRANCH   3  11
ATOM     11  C   UNL     1       5.549   4.122  17.487  0.00  0.00    +0.000 C 
ATOM     12  O   UNL     1       5.468   3.266  16.601  0.00  0.00    +0.000 OA
BRANCH  11  13
ATOM     13  C   UNL     1       6.995   4.548  17.778  0.00  0.00    +0.000 C 
ATOM     14  N   UNL     1       7.823   4.583  16.678  0.00  0.00    +0.000 N 
ATOM     15  O   UNL     1       7.409   4.744  18.908  0.00  0.00    +0.000 OA
ATOM     16  H   UNL     1       7.529   4.089  15.842  0.00  0.00    +0.000 HD
ATOM     17  H   UNL     1       8.816   4.642  16.863  0.00  0.00    +0.000 HD
ENDBRANCH  11  13
ENDBRANCH   3  11
BRANCH   5  18
ATOM     18  O   UNL     1       4.920   2.408  20.086  0.00  0.00    +0.000 OA
BRANCH  18  19
ATOM     19  C   UNL     1       4.831   0.982  20.028  0.00  0.00    +0.000 C 
BRANCH  19  20
ATOM     20  C   UNL     1       5.729   0.262  21.027  0.00  0.00    +0.000 C 
ATOM     21  O   UNL     1       6.217  -0.846  20.848  0.00  0.00    +0.000 OA
BRANCH  20  22
ATOM     22  O   UNL     1       5.962   0.988  22.148  0.00  0.00    +0.000 OA
ATOM     23  H   UNL     1       6.655   0.563  22.696  0.00  0.00    +0.000 HD
ENDBRANCH  20  22
ENDBRANCH  19  20
ENDBRANCH  18  19
ENDBRANCH   5  18
BRANCH  10  24
ATOM     24  C   UNL     1       1.511   7.248  18.599  0.00  0.00    +0.000 C 
BRANCH  24  25
ATOM     25  C   UNL     1       1.931   8.452  19.476  0.00  0.00    +0.000 C 
ATOM     26  C   UNL     1       1.434   9.830  18.994  0.00  0.00    +0.000 C 
ATOM     27  C   UNL     1       0.003  10.219  19.382  0.00  0.00    +0.000 C 
ATOM     28  C   UNL     1      -0.378   9.893  20.821  0.00  0.00    +0.000 C 
ATOM     29  C   UNL     1       0.049   8.496  21.241  0.00  0.00    +0.000 C 
ATOM     30  C   UNL     1       1.526   8.240  20.952  0.00  0.00    +0.000 C 
ENDBRANCH  24  25
ENDBRANCH  10  24
TORSDOF 8
ENDMDL
MODEL 6
REMARK VINA RESULT:      -7.2      3.213      6.318
REMARK  Name = 
REMARK  9 active torsions:
REMARK  status: ('A' for Active; 'I' for Inactive)
REMARK    1  A    between atoms: C_1  and  C_2
REMARK    2  A    between atoms: C_3  and  C_4
REMARK    3  A    between atoms: C_4  and  C_6
REMARK    4  A    between atoms: C_10  and  O_11
REMARK    5  A    between atoms: O_11  and  C_12
REMARK    6  A    between atoms: C_12  and  C_13
REMARK    7  A    between atoms: C_13  and  O_15
REMARK    8  A    between atoms: C_20  and  C_21
REMARK    9  A    between atoms: C_21  and  C_22
REMARK                            x       y       z     vdW  Elec       q    Type
REMARK                         _______ _______ _______ _____ _____    ______ ____
ROOT
ATOM      1  C   UNL     1       4.420   3.317  18.669  0.00  0.00    +0.000 C 
ATOM      2  C   UNL     1       3.661   4.607  18.684  0.00  0.00    +0.000 A 
ATOM      3  C   UNL     1       2.771   5.133  19.711  0.00  0.00    +0.000 A 
ATOM      4  C   UNL     1       2.512   6.468  19.344  0.00  0.00    +0.000 A 
ATOM      5  C   UNL     1       1.888   7.633  19.940  0.00  0.00    +0.000 A 
ATOM      6  C   UNL     1       1.730   8.756  19.203  0.00  0.00    +0.000 A 
ATOM      7  C   UNL     1       2.080   8.817  17.803  0.00  0.00    +0.000 A 
ATOM      8  C   UNL     1       2.694   7.770  17.259  0.00  0.00    +0.000 A 
ATOM      9  N   UNL     1       2.966   6.632  18.024  0.00  0.00    +0.000 N 
ATOM     10  C   UNL     1       3.721   5.539  17.646  0.00  0.00    +0.000 A 
ENDROOT
BRANCH   3  11
ATOM     11  C   UNL     1       2.219   4.470  20.918  0.00  0.00    +0.000 C 
ATOM     12  O   UNL     1       2.407   4.889  22.064  0.00  0.00    +0.000 OA
BRANCH  11  13
ATOM     13  C   UNL     1       1.243   3.286  20.866  0.00  0.00    +0.000 C 
ATOM     14  N   UNL     1       0.344   3.319  19.823  0.00  0.00    +0.000 N 
ATOM     15  O   UNL     1       1.199   2.431  21.735  0.00  0.00    +0.000 OA
ATOM     16  H   UNL     1       0.198   4.201  19.345  0.00  0.00    +0.000 HD
ATOM     17  H   UNL     1      -0.441   2.684  19.885  0.00  0.00    +0.000 HD
ENDBRANCH  11  13
ENDBRANCH   3  11
BRANCH   5  18
ATOM     18  O   UNL     1       1.558   7.556  21.283  0.00  0.00    +0.000 OA
BRANCH  18  19
ATOM     19  C   UNL     1       1.361   8.806  21.946  0.00  0.00    +0.000 C 
BRANCH  19  20
ATOM     20  C   UNL     1      -0.097   9.243  22.027  0.00  0.00    +0.000 C 
ATOM     21  O   UNL     1      -0.582  10.165  21.384  0.00  0.00    +0.000 OA
BRANCH  20  22
ATOM     22  O   UNL     1      -0.830   8.484  22.878  0.00  0.00    +0.000 OA
ATOM     23  H   UNL     1      -1.299   9.049  23.528  0.00  0.00    +0.000 HD
ENDBRANCH  20  22
ENDBRANCH  19  20
ENDBRANCH  18  19
ENDBRANCH   5  18
BRANCH  10  24
ATOM     24  C   UNL     1       4.550   5.532  16.362  0.00  0.00    +0.000 C 
BRANCH  24  25
ATOM     25  C   UNL     1       5.911   6.265  16.435  0.00  0.00    +0.000 C 
ATOM     26  C   UNL     1       6.268   6.865  17.811  0.00  0.00    +0.000 C 
ATOM     27  C   UNL     1       6.880   5.908  18.840  0.00  0.00    +0.000 C 
ATOM     28  C   UNL     1       7.940   4.965  18.283  0.00  0.00    +0.000 C 
ATOM     29  C   UNL     1       7.523   4.322  16.969  0.00  0.00    +0.000 C 
ATOM     30  C   UNL     1       7.063   5.359  15.948  0.00  0.00    +0.000 C 
ENDBRANCH  24  25
ENDBRANCH  10  24
TORSDOF 8
ENDMDL
MODEL 7
REMARK VINA RESULT:      -7.1      3.180      6.719
REMARK  Name = 
REMARK  9 active torsions:
REMARK  status: ('A' for Active; 'I' for Inactive)
REMARK    1  A    between atoms: C_1  and  C_2
REMARK    2  A    between atoms: C_3  and  C_4
REMARK    3  A    between atoms: C_4  and  C_6
REMARK    4  A    between atoms: C_10  and  O_11
REMARK    5  A    between atoms: O_11  and  C_12
REMARK    6  A    between atoms: C_12  and  C_13
REMARK    7  A    between atoms: C_13  and  O_15
REMARK    8  A    between atoms: C_20  and  C_21
REMARK    9  A    between atoms: C_21  and  C_22
REMARK                            x       y       z     vdW  Elec       q    Type
REMARK                         _______ _______ _______ _____ _____    ______ ____
ROOT
ATOM      1  C   UNL     1       4.966   3.609  19.028  0.00  0.00    +0.000 C 
ATOM      2  C   UNL     1       4.083   4.813  18.920  0.00  0.00    +0.000 A 
ATOM      3  C   UNL     1       2.994   5.229  19.794  0.00  0.00    +0.000 A 
ATOM      4  C   UNL     1       2.657   6.535  19.387  0.00  0.00    +0.000 A 
ATOM      5  C   UNL     1       1.828   7.621  19.875  0.00  0.00    +0.000 A 
ATOM      6  C   UNL     1       1.669   8.731  19.119  0.00  0.00    +0.000 A 
ATOM      7  C   UNL     1       2.224   8.847  17.791  0.00  0.00    +0.000 A 
ATOM      8  C   UNL     1       3.022   7.876  17.352  0.00  0.00    +0.000 A 
ATOM      9  N   UNL     1       3.289   6.763  18.154  0.00  0.00    +0.000 N 
ATOM     10  C   UNL     1       4.204   5.759  17.901  0.00  0.00    +0.000 A 
ENDROOT
BRANCH   3  11
ATOM     11  C   UNL     1       2.334   4.496  20.902  0.00  0.00    +0.000 C 
ATOM     12  O   UNL     1       2.396   4.857  22.081  0.00  0.00    +0.000 OA
BRANCH  11  13
ATOM     13  C   UNL     1       1.391   3.303  20.690  0.00  0.00    +0.000 C 
ATOM     14  N   UNL     1       0.260   3.580  19.955  0.00  0.00    +0.000 N 
ATOM     15  O   UNL     1       1.576   2.217  21.214  0.00  0.00    +0.000 OA
ATOM     16  H   UNL     1      -0.012   4.551  19.842  0.00  0.00    +0.000 HD
ATOM     17  H   UNL     1      -0.477   2.888  19.984  0.00  0.00    +0.000 HD
ENDBRANCH  11  13
ENDBRANCH   3  11
BRANCH   5  18
ATOM     18  O   UNL     1       1.305   7.492  21.150  0.00  0.00    +0.000 OA
BRANCH  18  19
ATOM     19  C   UNL     1       0.372   8.501  21.543  0.00  0.00    +0.000 C 
BRANCH  19  20
ATOM     20  C   UNL     1       0.835   9.352  22.720  0.00  0.00    +0.000 C 
ATOM     21  O   UNL     1       0.090   9.999  23.443  0.00  0.00    +0.000 OA
BRANCH  20  22
ATOM     22  O   UNL     1       2.177   9.304  22.912  0.00  0.00    +0.000 OA
ATOM     23  H   UNL     1       2.651   9.457  22.068  0.00  0.00    +0.000 HD
ENDBRANCH  20  22
ENDBRANCH  19  20
ENDBRANCH  18  19
ENDBRANCH   5  18
BRANCH  10  24
ATOM     24  C   UNL     1       5.219   5.855  16.761  0.00  0.00    +0.000 C 
BRANCH  24  25
ATOM     25  C   UNL     1       5.912   4.529  16.364  0.00  0.00    +0.000 C 
ATOM     26  C   UNL     1       5.142   3.655  15.354  0.00  0.00    +0.000 C 
ATOM     27  C   UNL     1       5.292   4.021  13.873  0.00  0.00    +0.000 C 
ATOM     28  C   UNL     1       6.714   4.358  13.440  0.00  0.00    +0.000 C 
ATOM     29  C   UNL     1       7.419   5.292  14.412  0.00  0.00    +0.000 C 
ATOM     30  C   UNL     1       7.347   4.780  15.848  0.00  0.00    +0.000 C 
ENDBRANCH  24  25
ENDBRANCH  10  24
TORSDOF 8
ENDMDL
MODEL 8
REMARK VINA RESULT:      -7.1      1.947      4.178
REMARK  Name = 
REMARK  9 active torsions:
REMARK  status: ('A' for Active; 'I' for Inactive)
REMARK    1  A    between atoms: C_1  and  C_2
REMARK    2  A    between atoms: C_3  and  C_4
REMARK    3  A    between atoms: C_4  and  C_6
REMARK    4  A    between atoms: C_10  and  O_11
REMARK    5  A    between atoms: O_11  and  C_12
REMARK    6  A    between atoms: C_12  and  C_13
REMARK    7  A    between atoms: C_13  and  O_15
REMARK    8  A    between atoms: C_20  and  C_21
REMARK    9  A    between atoms: C_21  and  C_22
REMARK                            x       y       z     vdW  Elec       q    Type
REMARK                         _______ _______ _______ _____ _____    ______ ____
ROOT
ATOM      1  C   UNL     1       4.296   7.947  16.941  0.00  0.00    +0.000 C 
ATOM      2  C   UNL     1       3.764   6.842  17.799  0.00  0.00    +0.000 A 
ATOM      3  C   UNL     1       4.192   5.451  17.869  0.00  0.00    +0.000 A 
ATOM      4  C   UNL     1       3.536   4.906  18.991  0.00  0.00    +0.000 A 
ATOM      5  C   UNL     1       3.596   3.684  19.769  0.00  0.00    +0.000 A 
ATOM      6  C   UNL     1       2.693   3.474  20.753  0.00  0.00    +0.000 A 
ATOM      7  C   UNL     1       1.602   4.385  21.007  0.00  0.00    +0.000 A 
ATOM      8  C   UNL     1       1.563   5.530  20.331  0.00  0.00    +0.000 A 
ATOM      9  N   UNL     1       2.544   5.823  19.379  0.00  0.00    +0.000 N 
ATOM     10  C   UNL     1       2.722   7.019  18.712  0.00  0.00    +0.000 A 
ENDROOT
BRANCH   3  11
ATOM     11  C   UNL     1       5.122   4.699  16.991  0.00  0.00    +0.000 C 
ATOM     12  O   UNL     1       4.749   4.065  15.999  0.00  0.00    +0.000 OA
BRANCH  11  13
ATOM     13  C   UNL     1       6.649   4.744  17.134  0.00  0.00    +0.000 C 
ATOM     14  N   UNL     1       7.134   4.290  18.340  0.00  0.00    +0.000 N 
ATOM     15  O   UNL     1       7.376   5.235  16.286  0.00  0.00    +0.000 OA
ATOM     16  H   UNL     1       6.489   4.221  19.120  0.00  0.00    +0.000 HD
ATOM     17  H   UNL     1       8.099   4.508  18.549  0.00  0.00    +0.000 HD
ENDBRANCH  11  13
ENDBRANCH   3  11
BRANCH   5  18
ATOM     18  O   UNL     1       4.649   2.822  19.510  0.00  0.00    +0.000 OA
BRANCH  18  19
ATOM     19  C   UNL     1       4.378   1.434  19.715  0.00  0.00    +0.000 C 
BRANCH  19  20
ATOM     20  C   UNL     1       5.350   0.745  20.666  0.00  0.00    +0.000 C 
ATOM     21  O   UNL     1       5.655   1.169  21.773  0.00  0.00    +0.000 OA
BRANCH  20  22
ATOM     22  O   UNL     1       5.837  -0.421  20.173  0.00  0.00    +0.000 OA
ATOM     23  H   UNL     1       5.969  -1.071  20.895  0.00  0.00    +0.000 HD
ENDBRANCH  20  22
ENDBRANCH  19  20
ENDBRANCH  18  19
ENDBRANCH   5  18
BRANCH  10  24
ATOM     24  C   UNL     1       1.955   8.284  19.098  0.00  0.00    +0.000 C 
BRANCH  24  25
ATOM     25  C   UNL     1       1.485   9.172  17.919  0.00  0.00    +0.000 C 
ATOM     26  C   UNL     1      -0.043   9.294  17.749  0.00  0.00    +0.000 C 
ATOM     27  C   UNL     1      -0.753  10.325  18.633  0.00  0.00    +0.000 C 
ATOM     28  C   UNL     1      -0.036  11.664  18.754  0.00  0.00    +0.000 C 
ATOM     29  C   UNL     1       1.456  11.512  19.009  0.00  0.00    +0.000 C 
ATOM     30  C   UNL     1       2.115  10.581  17.994  0.00  0.00    +0.000 C 
ENDBRANCH  24  25
ENDBRANCH  10  24
TORSDOF 8
ENDMDL
MODEL 9
REMARK VINA RESULT:      -7.1      1.616      2.517
REMARK  Name = 
REMARK  9 active torsions:
REMARK  status: ('A' for Active; 'I' for Inactive)
REMARK    1  A    between atoms: C_1  and  C_2
REMARK    2  A    between atoms: C_3  and  C_4
REMARK    3  A    between atoms: C_4  and  C_6
REMARK    4  A    between atoms: C_10  and  O_11
REMARK    5  A    between atoms: O_11  and  C_12
REMARK    6  A    between atoms: C_12  and  C_13
REMARK    7  A    between atoms: C_13  and  O_15
REMARK    8  A    between atoms: C_20  and  C_21
REMARK    9  A    between atoms: C_21  and  C_22
REMARK                            x       y       z     vdW  Elec       q    Type
REMARK                         _______ _______ _______ _____ _____    ______ ____
ROOT
ATOM      1  C   UNL     1       1.110   4.698  20.262  0.00  0.00    +0.000 C 
ATOM      2  C   UNL     1       2.253   5.115  19.390  0.00  0.00    +0.000 A 
ATOM      3  C   UNL     1       3.069   4.299  18.500  0.00  0.00    +0.000 A 
ATOM      4  C   UNL     1       3.836   5.209  17.746  0.00  0.00    +0.000 A 
ATOM      5  C   UNL     1       4.707   5.162  16.587  0.00  0.00    +0.000 A 
ATOM      6  C   UNL     1       5.375   6.275  16.208  0.00  0.00    +0.000 A 
ATOM      7  C   UNL     1       5.326   7.502  16.969  0.00  0.00    +0.000 A 
ATOM      8  C   UNL     1       4.496   7.570  18.007  0.00  0.00    +0.000 A 
ATOM      9  N   UNL     1       3.714   6.467  18.361  0.00  0.00    +0.000 N 
ATOM     10  C   UNL     1       2.708   6.432  19.307  0.00  0.00    +0.000 A 
ENDROOT
BRANCH   3  11
ATOM     11  C   UNL     1       3.130   2.824  18.354  0.00  0.00    +0.000 C 
ATOM     12  O   UNL     1       2.434   2.196  17.551  0.00  0.00    +0.000 OA
BRANCH  11  13
ATOM     13  C   UNL     1       4.157   1.940  19.076  0.00  0.00    +0.000 C 
ATOM     14  N   UNL     1       4.292   0.670  18.562  0.00  0.00    +0.000 N 
ATOM     15  O   UNL     1       4.737   2.297  20.087  0.00  0.00    +0.000 OA
ATOM     16  H   UNL     1       3.558   0.317  17.958  0.00  0.00    +0.000 HD
ATOM     17  H   UNL     1       4.786   0.001  19.139  0.00  0.00    +0.000 HD
ENDBRANCH  11  13
ENDBRANCH   3  11
BRANCH   5  18
ATOM     18  O   UNL     1       4.741   3.977  15.871  0.00  0.00    +0.000 OA
BRANCH  18  19
ATOM     19  C   UNL     1       6.020   3.601  15.356  0.00  0.00    +0.000 C 
BRANCH  19  20
ATOM     20  C   UNL     1       6.261   4.031  13.914  0.00  0.00    +0.000 C 
ATOM     21  O   UNL     1       5.679   3.563  12.944  0.00  0.00    +0.000 OA
BRANCH  20  22
ATOM     22  O   UNL     1       7.182   5.020  13.803  0.00  0.00    +0.000 OA
ATOM     23  H   UNL     1       7.718   4.901  12.991  0.00  0.00    +0.000 HD
ENDBRANCH  20  22
ENDBRANCH  19  20
ENDBRANCH  18  19
ENDBRANCH   5  18
BRANCH  10  24
ATOM     24  C   UNL     1       2.174   7.702  19.970  0.00  0.00    +0.000 C 
BRANCH  24  25
ATOM     25  C   UNL     1       0.967   8.371  19.267  0.00  0.00    +0.000 C 
ATOM     26  C   UNL     1       0.198   9.406  20.113  0.00  0.00    +0.000 C 
ATOM     27  C   UNL     1       0.782  10.823  20.163  0.00  0.00    +0.000 C 
ATOM     28  C   UNL     1       1.270  11.359  18.823  0.00  0.00    +0.000 C 
ATOM     29  C   UNL     1       2.099  10.345  18.050  0.00  0.00    +0.000 C 
ATOM     30  C   UNL     1       1.382   9.004  17.921  0.00  0.00    +0.000 C 
ENDBRANCH  24  25
ENDBRANCH  10  24
TORSDOF 8
ENDMDL
