MODEL 1
REMARK VINA RESULT:      -6.8      0.000      0.000
REMARK  Name = 
REMARK  7 active torsions:
REMARK  status: ('A' for Active; 'I' for Inactive)
REMARK    1  A    between atoms: C_1  and  N_2
REMARK    2  A    between atoms: N_4  and  C_5
REMARK    3  A    between atoms: N_14  and  C_15
REMARK    4  A    between atoms: C_15  and  C_16
REMARK    5  A    between atoms: C_16  and  C_17
REMARK    6  A    between atoms: C_17  and  C_18
REMARK    7  A    between atoms: C_18  and  C_19
REMARK                            x       y       z     vdW  Elec       q    Type
REMARK                         _______ _______ _______ _____ _____    ______ ____
ROOT
ATOM      1  C   UNL     1      -3.527  11.658  17.249  0.00  0.00    +0.000 C 
ATOM      2  N   UNL     1      -2.212  11.467  17.805  0.00  0.00    +0.000 N 
ATOM      3  C   UNL     1      -1.257  12.522  17.918  0.00  0.00    +0.000 C 
ATOM      4  N   UNL     1      -0.182  11.970  18.737  0.00  0.00    +0.000 N 
ATOM      5  C   UNL     1      -0.349  10.477  18.859  0.00  0.00    +0.000 C 
ATOM      6  C   UNL     1      -0.429   9.908  20.280  0.00  0.00    +0.000 C 
ATOM      7  C   UNL     1       0.929   9.568  20.877  0.00  0.00    +0.000 C 
ATOM      8  N   UNL     1       1.803   8.802  19.985  0.00  0.00    +0.000 NA
ATOM      9  C   UNL     1       1.950   9.404  18.660  0.00  0.00    +0.000 C 
ATOM     10  C   UNL     1       0.639   9.720  17.965  0.00  0.00    +0.000 C 
ATOM     11  C   UNL     1      -1.747  10.249  18.247  0.00  0.00    +0.000 C 
ATOM     12  O   UNL     1      -2.354   9.190  18.166  0.00  0.00    +0.000 OA
ENDROOT
BRANCH   4  13
ATOM     13  C   UNL     1       0.437  12.766  19.689  0.00  0.00    +0.000 A 
ATOM     14  C   UNL     1       1.821  12.968  19.746  0.00  0.00    +0.000 A 
ATOM     15  C   UNL     1       2.412  13.819  20.695  0.00  0.00    +0.000 A 
ATOM     16  C   UNL     1       1.628  14.522  21.599  0.00  0.00    +0.000 A 
ATOM     17  C   UNL     1       0.261  14.320  21.596  0.00  0.00    +0.000 A 
ATOM     18  C   UNL     1      -0.302  13.417  20.685  0.00  0.00    +0.000 A 
ENDBRANCH   4  13
BRANCH   8  19
ATOM     19  C   UNL     1       1.456   7.382  19.942  0.00  0.00    +0.000 C 
BRANCH  19  20
ATOM     20  C   UNL     1       2.627   6.522  19.446  0.00  0.00    +0.000 C 
BRANCH  20  21
ATOM     21  C   UNL     1       2.314   5.673  18.200  0.00  0.00    +0.000 C 
BRANCH  21  22
ATOM     22  C   UNL     1       2.947   4.274  18.203  0.00  0.00    +0.000 C 
ATOM     23  O   UNL     1       3.059   3.721  19.520  0.00  0.00    +0.000 OA
ATOM     24  C   UNL     1       2.705   2.350  19.373  0.00  0.00    +0.000 C 
ATOM     25  C   UNL     1       1.691   2.371  18.268  0.00  0.00    +0.000 C 
ATOM     26  O   UNL     1       2.151   3.392  17.383  0.00  0.00    +0.000 OA
BRANCH  22  27
ATOM     27  C   UNL     1       4.332   4.325  17.583  0.00  0.00    +0.000 A 
ATOM     28  C   UNL     1       4.671   4.217  16.244  0.00  0.00    +0.000 A 
ATOM     29  C   UNL     1       6.066   4.365  16.010  0.00  0.00    +0.000 A 
ATOM     30  C   UNL     1       6.762   4.581  17.179  0.00  0.00    +0.000 A 
ATOM     31  S   UNL     1       5.734   4.617  18.541  0.00  0.00    +0.000 S 
ENDBRANCH  22  27
ENDBRANCH  21  22
ENDBRANCH  20  21
ENDBRANCH  19  20
ENDBRANCH   8  19
TORSDOF 6
ENDMDL
MODEL 2
REMARK VINA RESULT:      -6.8      1.872      3.724
REMARK  Name = 
REMARK  7 active torsions:
REMARK  status: ('A' for Active; 'I' for Inactive)
REMARK    1  A    between atoms: C_1  and  N_2
REMARK    2  A    between atoms: N_4  and  C_5
REMARK    3  A    between atoms: N_14  and  C_15
REMARK    4  A    between atoms: C_15  and  C_16
REMARK    5  A    between atoms: C_16  and  C_17
REMARK    6  A    between atoms: C_17  and  C_18
REMARK    7  A    between atoms: C_18  and  C_19
REMARK                            x       y       z     vdW  Elec       q    Type
REMARK                         _______ _______ _______ _____ _____    ______ ____
ROOT
ATOM      1  C   UNL     1       1.413  15.416  18.920  0.00  0.00    +0.000 C 
ATOM      2  N   UNL     1       0.689  14.223  19.274  0.00  0.00    +0.000 N 
ATOM      3  C   UNL     1      -0.737  14.163  19.309  0.00  0.00    +0.000 C 
ATOM      4  N   UNL     1      -1.050  12.746  19.468  0.00  0.00    +0.000 N 
ATOM      5  C   UNL     1       0.199  11.986  19.838  0.00  0.00    +0.000 C 
ATOM      6  C   UNL     1       0.586  10.816  18.929  0.00  0.00    +0.000 C 
ATOM      7  C   UNL     1      -0.053   9.495  19.329  0.00  0.00    +0.000 C 
ATOM      8  N   UNL     1       0.048   9.187  20.758  0.00  0.00    +0.000 NA
ATOM      9  C   UNL     1      -0.416  10.275  21.619  0.00  0.00    +0.000 C 
ATOM     10  C   UNL     1       0.221  11.621  21.327  0.00  0.00    +0.000 C 
ATOM     11  C   UNL     1       1.303  13.046  19.638  0.00  0.00    +0.000 C 
ATOM     12  O   UNL     1       2.508  12.888  19.766  0.00  0.00    +0.000 OA
ENDROOT
BRANCH   4  13
ATOM     13  C   UNL     1      -2.122  12.196  18.783  0.00  0.00    +0.000 A 
ATOM     14  C   UNL     1      -3.402  12.058  19.334  0.00  0.00    +0.000 A 
ATOM     15  C   UNL     1      -4.480  11.540  18.595  0.00  0.00    +0.000 A 
ATOM     16  C   UNL     1      -4.315  11.174  17.266  0.00  0.00    +0.000 A 
ATOM     17  C   UNL     1      -3.058  11.264  16.700  0.00  0.00    +0.000 A 
ATOM     18  C   UNL     1      -1.983  11.720  17.473  0.00  0.00    +0.000 A 
ENDBRANCH   4  13
BRANCH   8  19
ATOM     19  C   UNL     1       1.365   8.673  21.130  0.00  0.00    +0.000 C 
BRANCH  19  20
ATOM     20  C   UNL     1       1.455   7.150  20.955  0.00  0.00    +0.000 C 
BRANCH  20  21
ATOM     21  C   UNL     1       2.372   6.691  19.807  0.00  0.00    +0.000 C 
BRANCH  21  22
ATOM     22  C   UNL     1       2.544   5.169  19.695  0.00  0.00    +0.000 C 
ATOM     23  O   UNL     1       2.862   4.554  20.950  0.00  0.00    +0.000 OA
ATOM     24  C   UNL     1       2.097   3.354  20.975  0.00  0.00    +0.000 C 
ATOM     25  C   UNL     1       0.862   3.715  20.204  0.00  0.00    +0.000 C 
ATOM     26  O   UNL     1       1.326   4.591  19.178  0.00  0.00    +0.000 OA
BRANCH  22  27
ATOM     27  C   UNL     1       3.645   4.838  18.705  0.00  0.00    +0.000 A 
ATOM     28  C   UNL     1       3.529   4.193  17.484  0.00  0.00    +0.000 A 
ATOM     29  C   UNL     1       4.764   4.098  16.786  0.00  0.00    +0.000 A 
ATOM     30  C   UNL     1       5.798   4.672  17.491  0.00  0.00    +0.000 A 
ATOM     31  S   UNL     1       5.274   5.330  18.977  0.00  0.00    +0.000 S 
ENDBRANCH  22  27
ENDBRANCH  21  22
ENDBRANCH  20  21
ENDBRANCH  19  20
ENDBRANCH   8  19
TORSDOF 6
ENDMDL
MODEL 3
REMARK VINA RESULT:      -6.7      6.475     10.112
REMARK  Name = 
REMARK  7 active torsions:
REMARK  status: ('A' for Active; 'I' for Inactive)
REMARK    1  A    between atoms: C_1  and  N_2
REMARK    2  A    between atoms: N_4  and  C_5
REMARK    3  A    between atoms: N_14  and  C_15
REMARK    4  A    between atoms: C_15  and  C_16
REMARK    5  A    between atoms: C_16  and  C_17
REMARK    6  A    between atoms: C_17  and  C_18
REMARK    7  A    between atoms: C_18  and  C_19
REMARK                            x       y       z     vdW  Elec       q    Type
REMARK                         _______ _______ _______ _____ _____    ______ ____
ROOT
ATOM      1  C   UNL     1       5.989   3.369  13.201  0.00  0.00    +0.000 C 
ATOM      2  N   UNL     1       5.810   4.121  14.416  0.00  0.00    +0.000 N 
ATOM      3  C   UNL     1       4.607   4.078  15.184  0.00  0.00    +0.000 C 
ATOM      4  N   UNL     1       4.930   4.771  16.428  0.00  0.00    +0.000 N 
ATOM      5  C   UNL     1       6.242   5.500  16.280  0.00  0.00    +0.000 C 
ATOM      6  C   UNL     1       7.333   5.166  17.301  0.00  0.00    +0.000 C 
ATOM      7  C   UNL     1       7.272   6.017  18.560  0.00  0.00    +0.000 C 
ATOM      8  N   UNL     1       7.122   7.452  18.308  0.00  0.00    +0.000 NA
ATOM      9  C   UNL     1       6.015   7.770  17.408  0.00  0.00    +0.000 C 
ATOM     10  C   UNL     1       6.034   7.008  16.096  0.00  0.00    +0.000 C 
ATOM     11  C   UNL     1       6.766   4.969  14.929  0.00  0.00    +0.000 C 
ATOM     12  O   UNL     1       7.834   5.233  14.397  0.00  0.00    +0.000 OA
ENDROOT
BRANCH   4  13
ATOM     13  C   UNL     1       4.438   4.291  17.631  0.00  0.00    +0.000 A 
ATOM     14  C   UNL     1       3.832   5.104  18.598  0.00  0.00    +0.000 A 
ATOM     15  C   UNL     1       3.299   4.578  19.787  0.00  0.00    +0.000 A 
ATOM     16  C   UNL     1       3.328   3.212  20.031  0.00  0.00    +0.000 A 
ATOM     17  C   UNL     1       3.949   2.383  19.116  0.00  0.00    +0.000 A 
ATOM     18  C   UNL     1       4.532   2.935  17.969  0.00  0.00    +0.000 A 
ENDBRANCH   4  13
BRANCH   8  19
ATOM     19  C   UNL     1       8.382   8.090  17.928  0.00  0.00    +0.000 C 
BRANCH  19  20
ATOM     20  C   UNL     1       8.739   9.256  18.862  0.00  0.00    +0.000 C 
BRANCH  20  21
ATOM     21  C   UNL     1       8.631  10.649  18.216  0.00  0.00    +0.000 C 
BRANCH  21  22
ATOM     22  C   UNL     1       9.686  11.658  18.692  0.00  0.00    +0.000 C 
ATOM     23  O   UNL     1      10.962  11.052  18.933  0.00  0.00    +0.000 OA
ATOM     24  C   UNL     1      11.912  11.979  18.418  0.00  0.00    +0.000 C 
ATOM     25  C   UNL     1      11.190  12.608  17.264  0.00  0.00    +0.000 C 
ATOM     26  O   UNL     1       9.834  12.694  17.697  0.00  0.00    +0.000 OA
BRANCH  22  27
ATOM     27  C   UNL     1       9.225  12.335  19.970  0.00  0.00    +0.000 A 
ATOM     28  C   UNL     1       9.331  11.864  21.269  0.00  0.00    +0.000 A 
ATOM     29  C   UNL     1       8.841  12.786  22.235  0.00  0.00    +0.000 A 
ATOM     30  C   UNL     1       8.369  13.940  21.650  0.00  0.00    +0.000 A 
ATOM     31  S   UNL     1       8.531  13.911  19.951  0.00  0.00    +0.000 S 
ENDBRANCH  22  27
ENDBRANCH  21  22
ENDBRANCH  20  21
ENDBRANCH  19  20
ENDBRANCH   8  19
TORSDOF 6
ENDMDL
MODEL 4
REMARK VINA RESULT:      -6.5      0.852      1.352
REMARK  Name = 
REMARK  7 active torsions:
REMARK  status: ('A' for Active; 'I' for Inactive)
REMARK    1  A    between atoms: C_1  and  N_2
REMARK    2  A    between atoms: N_4  and  C_5
REMARK    3  A    between atoms: N_14  and  C_15
REMARK    4  A    between atoms: C_15  and  C_16
REMARK    5  A    between atoms: C_16  and  C_17
REMARK    6  A    between atoms: C_17  and  C_18
REMARK    7  A    between atoms: C_18  and  C_19
REMARK                            x       y       z     vdW  Elec       q    Type
REMARK                         _______ _______ _______ _____ _____    ______ ____
ROOT
ATOM      1  C   UNL     1      -3.421  11.606  17.110  0.00  0.00    +0.000 C 
ATOM      2  N   UNL     1      -2.137  11.434  17.738  0.00  0.00    +0.000 N 
ATOM      3  C   UNL     1      -1.150  12.466  17.779  0.00  0.00    +0.000 C 
ATOM      4  N   UNL     1      -0.128  11.971  18.696  0.00  0.00    +0.000 N 
ATOM      5  C   UNL     1      -0.353  10.506  18.969  0.00  0.00    +0.000 C 
ATOM      6  C   UNL     1      -0.507  10.096  20.437  0.00  0.00    +0.000 C 
ATOM      7  C   UNL     1       0.814   9.780  21.124  0.00  0.00    +0.000 C 
ATOM      8  N   UNL     1       1.694   8.896  20.356  0.00  0.00    +0.000 NA
ATOM      9  C   UNL     1       1.913   9.347  18.982  0.00  0.00    +0.000 C 
ATOM     10  C   UNL     1       0.642   9.627  18.203  0.00  0.00    +0.000 C 
ATOM     11  C   UNL     1      -1.733  10.257  18.327  0.00  0.00    +0.000 C 
ATOM     12  O   UNL     1      -2.373   9.216  18.333  0.00  0.00    +0.000 OA
ENDROOT
BRANCH   4  13
ATOM     13  C   UNL     1       0.482  12.845  19.584  0.00  0.00    +0.000 A 
ATOM     14  C   UNL     1      -0.229  13.685  20.451  0.00  0.00    +0.000 A 
ATOM     15  C   UNL     1       0.419  14.524  21.374  0.00  0.00    +0.000 A 
ATOM     16  C   UNL     1       1.804  14.524  21.477  0.00  0.00    +0.000 A 
ATOM     17  C   UNL     1       2.539  13.735  20.613  0.00  0.00    +0.000 A 
ATOM     18  C   UNL     1       1.876  12.956  19.657  0.00  0.00    +0.000 A 
ENDBRANCH   4  13
BRANCH   8  19
ATOM     19  C   UNL     1       1.299   7.491  20.449  0.00  0.00    +0.000 C 
BRANCH  19  20
ATOM     20  C   UNL     1       2.309   6.565  19.757  0.00  0.00    +0.000 C 
BRANCH  20  21
ATOM     21  C   UNL     1       2.446   5.173  20.400  0.00  0.00    +0.000 C 
BRANCH  21  22
ATOM     22  C   UNL     1       2.725   4.034  19.408  0.00  0.00    +0.000 C 
ATOM     23  O   UNL     1       2.800   2.752  20.045  0.00  0.00    +0.000 OA
ATOM     24  C   UNL     1       2.118   1.865  19.165  0.00  0.00    +0.000 C 
ATOM     25  C   UNL     1       1.059   2.733  18.552  0.00  0.00    +0.000 C 
ATOM     26  O   UNL     1       1.682   4.008  18.411  0.00  0.00    +0.000 OA
BRANCH  22  27
ATOM     27  C   UNL     1       4.031   4.285  18.677  0.00  0.00    +0.000 A 
ATOM     28  C   UNL     1       5.290   4.479  19.224  0.00  0.00    +0.000 A 
ATOM     29  C   UNL     1       6.304   4.633  18.239  0.00  0.00    +0.000 A 
ATOM     30  C   UNL     1       5.796   4.556  16.961  0.00  0.00    +0.000 A 
ATOM     31  S   UNL     1       4.111   4.286  16.956  0.00  0.00    +0.000 S 
ENDBRANCH  22  27
ENDBRANCH  21  22
ENDBRANCH  20  21
ENDBRANCH  19  20
ENDBRANCH   8  19
TORSDOF 6
ENDMDL
MODEL 5
REMARK VINA RESULT:      -6.5      1.648      2.139
REMARK  Name = 
REMARK  7 active torsions:
REMARK  status: ('A' for Active; 'I' for Inactive)
REMARK    1  A    between atoms: C_1  and  N_2
REMARK    2  A    between atoms: N_4  and  C_5
REMARK    3  A    between atoms: N_14  and  C_15
REMARK    4  A    between atoms: C_15  and  C_16
REMARK    5  A    between atoms: C_16  and  C_17
REMARK    6  A    between atoms: C_17  and  C_18
REMARK    7  A    between atoms: C_18  and  C_19
REMARK                            x       y       z     vdW  Elec       q    Type
REMARK                         _______ _______ _______ _____ _____    ______ ____
ROOT
ATOM      1  C   UNL     1      -5.397  11.203  17.780  0.00  0.00    +0.000 C 
ATOM      2  N   UNL     1      -4.056  11.405  18.265  0.00  0.00    +0.000 N 
ATOM      3  C   UNL     1      -3.676  12.540  19.044  0.00  0.00    +0.000 C 
ATOM      4  N   UNL     1      -2.331  12.235  19.520  0.00  0.00    +0.000 N 
ATOM      5  C   UNL     1      -1.781  11.047  18.772  0.00  0.00    +0.000 C 
ATOM      6  C   UNL     1      -1.316   9.857  19.618  0.00  0.00    +0.000 C 
ATOM      7  C   UNL     1       0.137   9.954  20.058  0.00  0.00    +0.000 C 
ATOM      8  N   UNL     1       1.068  10.312  18.985  0.00  0.00    +0.000 NA
ATOM      9  C   UNL     1       0.666  11.507  18.244  0.00  0.00    +0.000 C 
ATOM     10  C   UNL     1      -0.756  11.467  17.714  0.00  0.00    +0.000 C 
ATOM     11  C   UNL     1      -3.018  10.542  17.999  0.00  0.00    +0.000 C 
ATOM     12  O   UNL     1      -3.086   9.555  17.280  0.00  0.00    +0.000 OA
ENDROOT
BRANCH   4  13
ATOM     13  C   UNL     1      -1.962  12.581  20.811  0.00  0.00    +0.000 A 
ATOM     14  C   UNL     1      -0.785  13.275  21.119  0.00  0.00    +0.000 A 
ATOM     15  C   UNL     1      -0.465  13.653  22.434  0.00  0.00    +0.000 A 
ATOM     16  C   UNL     1      -1.333  13.375  23.480  0.00  0.00    +0.000 A 
ATOM     17  C   UNL     1      -2.487  12.660  23.220  0.00  0.00    +0.000 A 
ATOM     18  C   UNL     1      -2.755  12.236  21.913  0.00  0.00    +0.000 A 
ENDBRANCH   4  13
BRANCH   8  19
ATOM     19  C   UNL     1       1.395   9.177  18.124  0.00  0.00    +0.000 C 
BRANCH  19  20
ATOM     20  C   UNL     1       2.252   8.132  18.853  0.00  0.00    +0.000 C 
BRANCH  20  21
ATOM     21  C   UNL     1       3.181   7.314  17.938  0.00  0.00    +0.000 C 
BRANCH  21  22
ATOM     22  C   UNL     1       3.370   5.850  18.362  0.00  0.00    +0.000 C 
ATOM     23  O   UNL     1       3.443   5.692  19.785  0.00  0.00    +0.000 OA
ATOM     24  C   UNL     1       2.687   4.518  20.062  0.00  0.00    +0.000 C 
ATOM     25  C   UNL     1       1.621   4.535  19.007  0.00  0.00    +0.000 C 
ATOM     26  O   UNL     1       2.273   5.063  17.852  0.00  0.00    +0.000 OA
BRANCH  22  27
ATOM     27  C   UNL     1       4.640   5.288  17.750  0.00  0.00    +0.000 A 
ATOM     28  C   UNL     1       4.787   4.645  16.532  0.00  0.00    +0.000 A 
ATOM     29  C   UNL     1       6.136   4.297  16.247  0.00  0.00    +0.000 A 
ATOM     30  C   UNL     1       6.990   4.681  17.257  0.00  0.00    +0.000 A 
ATOM     31  S   UNL     1       6.167   5.466  18.529  0.00  0.00    +0.000 S 
ENDBRANCH  22  27
ENDBRANCH  21  22
ENDBRANCH  20  21
ENDBRANCH  19  20
ENDBRANCH   8  19
TORSDOF 6
ENDMDL
MODEL 6
REMARK VINA RESULT:      -6.4      2.444      4.156
REMARK  Name = 
REMARK  7 active torsions:
REMARK  status: ('A' for Active; 'I' for Inactive)
REMARK    1  A    between atoms: C_1  and  N_2
REMARK    2  A    between atoms: N_4  and  C_5
REMARK    3  A    between atoms: N_14  and  C_15
REMARK    4  A    between atoms: C_15  and  C_16
REMARK    5  A    between atoms: C_16  and  C_17
REMARK    6  A    between atoms: C_17  and  C_18
REMARK    7  A    between atoms: C_18  and  C_19
REMARK                            x       y       z     vdW  Elec       q    Type
REMARK                         _______ _______ _______ _____ _____    ______ ____
ROOT
ATOM      1  C   UNL     1       1.660  16.382  19.275  0.00  0.00    +0.000 C 
ATOM      2  N   UNL     1       1.204  15.105  19.759  0.00  0.00    +0.000 N 
ATOM      3  C   UNL     1       0.489  14.951  20.985  0.00  0.00    +0.000 C 
ATOM      4  N   UNL     1       0.017  13.570  20.974  0.00  0.00    +0.000 N 
ATOM      5  C   UNL     1       0.712  12.802  19.878  0.00  0.00    +0.000 C 
ATOM      6  C   UNL     1      -0.186  12.110  18.847  0.00  0.00    +0.000 C 
ATOM      7  C   UNL     1      -0.601  10.702  19.248  0.00  0.00    +0.000 C 
ATOM      8  N   UNL     1       0.501   9.863  19.724  0.00  0.00    +0.000 NA
ATOM      9  C   UNL     1       1.296  10.494  20.777  0.00  0.00    +0.000 C 
ATOM     10  C   UNL     1       1.804  11.882  20.434  0.00  0.00    +0.000 C 
ATOM     11  C   UNL     1       1.441  13.919  19.102  0.00  0.00    +0.000 C 
ATOM     12  O   UNL     1       2.108  13.796  18.085  0.00  0.00    +0.000 OA
ENDROOT
BRANCH   4  13
ATOM     13  C   UNL     1      -1.250  13.271  21.452  0.00  0.00    +0.000 A 
ATOM     14  C   UNL     1      -2.430  13.727  20.850  0.00  0.00    +0.000 A 
ATOM     15  C   UNL     1      -3.700  13.366  21.332  0.00  0.00    +0.000 A 
ATOM     16  C   UNL     1      -3.827  12.507  22.415  0.00  0.00    +0.000 A 
ATOM     17  C   UNL     1      -2.685  12.066  23.056  0.00  0.00    +0.000 A 
ATOM     18  C   UNL     1      -1.430  12.490  22.600  0.00  0.00    +0.000 A 
ENDBRANCH   4  13
BRANCH   8  19
ATOM     19  C   UNL     1       1.309   9.324  18.631  0.00  0.00    +0.000 C 
BRANCH  19  20
ATOM     20  C   UNL     1       2.055   8.047  19.046  0.00  0.00    +0.000 C 
BRANCH  20  21
ATOM     21  C   UNL     1       2.090   6.948  17.969  0.00  0.00    +0.000 C 
BRANCH  21  22
ATOM     22  C   UNL     1       2.959   5.732  18.324  0.00  0.00    +0.000 C 
ATOM     23  O   UNL     1       3.770   5.293  17.227  0.00  0.00    +0.000 OA
ATOM     24  C   UNL     1       5.029   4.969  17.809  0.00  0.00    +0.000 C 
ATOM     25  C   UNL     1       5.143   5.938  18.948  0.00  0.00    +0.000 C 
ATOM     26  O   UNL     1       3.810   6.067  19.440  0.00  0.00    +0.000 OA
BRANCH  22  27
ATOM     27  C   UNL     1       2.082   4.575  18.767  0.00  0.00    +0.000 A 
ATOM     28  C   UNL     1       1.668   3.484  18.019  0.00  0.00    +0.000 A 
ATOM     29  C   UNL     1       0.895   2.557  18.771  0.00  0.00    +0.000 A 
ATOM     30  C   UNL     1       0.733   2.963  20.077  0.00  0.00    +0.000 A 
ATOM     31  S   UNL     1       1.521   4.444  20.391  0.00  0.00    +0.000 S 
ENDBRANCH  22  27
ENDBRANCH  21  22
ENDBRANCH  20  21
ENDBRANCH  19  20
ENDBRANCH   8  19
TORSDOF 6
ENDMDL
MODEL 7
REMARK VINA RESULT:      -6.4      2.175      3.373
REMARK  Name = 
REMARK  7 active torsions:
REMARK  status: ('A' for Active; 'I' for Inactive)
REMARK    1  A    between atoms: C_1  and  N_2
REMARK    2  A    between atoms: N_4  and  C_5
REMARK    3  A    between atoms: N_14  and  C_15
REMARK    4  A    between atoms: C_15  and  C_16
REMARK    5  A    between atoms: C_16  and  C_17
REMARK    6  A    between atoms: C_17  and  C_18
REMARK    7  A    between atoms: C_18  and  C_19
REMARK                            x       y       z     vdW  Elec       q    Type
REMARK                         _______ _______ _______ _____ _____    ______ ____
ROOT
ATOM      1  C   UNL     1       1.917  16.137  18.968  0.00  0.00    +0.000 C 
ATOM      2  N   UNL     1       1.372  14.918  19.507  0.00  0.00    +0.000 N 
ATOM      3  C   UNL     1       0.616  14.876  20.718  0.00  0.00    +0.000 C 
ATOM      4  N   UNL     1       0.061  13.526  20.767  0.00  0.00    +0.000 N 
ATOM      5  C   UNL     1       0.737  12.658  19.736  0.00  0.00    +0.000 C 
ATOM      6  C   UNL     1      -0.174  11.965  18.718  0.00  0.00    +0.000 C 
ATOM      7  C   UNL     1      -0.685  10.608  19.182  0.00  0.00    +0.000 C 
ATOM      8  N   UNL     1       0.351   9.734  19.735  0.00  0.00    +0.000 NA
ATOM      9  C   UNL     1       1.154  10.374  20.776  0.00  0.00    +0.000 C 
ATOM     10  C   UNL     1       1.755  11.708  20.374  0.00  0.00    +0.000 C 
ATOM     11  C   UNL     1       1.554  13.685  18.923  0.00  0.00    +0.000 C 
ATOM     12  O   UNL     1       2.239  13.466  17.935  0.00  0.00    +0.000 OA
ENDROOT
BRANCH   4  13
ATOM     13  C   UNL     1      -1.234  13.331  21.222  0.00  0.00    +0.000 A 
ATOM     14  C   UNL     1      -2.359  13.913  20.624  0.00  0.00    +0.000 A 
ATOM     15  C   UNL     1      -3.663  13.655  21.081  0.00  0.00    +0.000 A 
ATOM     16  C   UNL     1      -3.883  12.778  22.134  0.00  0.00    +0.000 A 
ATOM     17  C   UNL     1      -2.795  12.213  22.771  0.00  0.00    +0.000 A 
ATOM     18  C   UNL     1      -1.501  12.534  22.343  0.00  0.00    +0.000 A 
ENDBRANCH   4  13
BRANCH   8  19
ATOM     19  C   UNL     1       1.154   9.087  18.698  0.00  0.00    +0.000 C 
BRANCH  19  20
ATOM     20  C   UNL     1       2.046   7.977  19.273  0.00  0.00    +0.000 C 
BRANCH  20  21
ATOM     21  C   UNL     1       3.003   7.333  18.254  0.00  0.00    +0.000 C 
BRANCH  21  22
ATOM     22  C   UNL     1       3.254   5.833  18.470  0.00  0.00    +0.000 C 
ATOM     23  O   UNL     1       3.280   5.472  19.856  0.00  0.00    +0.000 OA
ATOM     24  C   UNL     1       2.578   4.235  19.926  0.00  0.00    +0.000 C 
ATOM     25  C   UNL     1       1.554   4.358  18.837  0.00  0.00    +0.000 C 
ATOM     26  O   UNL     1       2.220   5.079  17.802  0.00  0.00    +0.000 OA
BRANCH  22  27
ATOM     27  C   UNL     1       4.575   5.428  17.842  0.00  0.00    +0.000 A 
ATOM     28  C   UNL     1       4.805   5.001  16.544  0.00  0.00    +0.000 A 
ATOM     29  C   UNL     1       6.180   4.755  16.277  0.00  0.00    +0.000 A 
ATOM     30  C   UNL     1       6.969   4.997  17.379  0.00  0.00    +0.000 A 
ATOM     31  S   UNL     1       6.054   5.530  18.718  0.00  0.00    +0.000 S 
ENDBRANCH  22  27
ENDBRANCH  21  22
ENDBRANCH  20  21
ENDBRANCH  19  20
ENDBRANCH   8  19
TORSDOF 6
ENDMDL
MODEL 8
REMARK VINA RESULT:      -6.4      2.079      4.112
REMARK  Name = 
REMARK  7 active torsions:
REMARK  status: ('A' for Active; 'I' for Inactive)
REMARK    1  A    between atoms: C_1  and  N_2
REMARK    2  A    between atoms: N_4  and  C_5
REMARK    3  A    between atoms: N_14  and  C_15
REMARK    4  A    between atoms: C_15  and  C_16
REMARK    5  A    between atoms: C_16  and  C_17
REMARK    6  A    between atoms: C_17  and  C_18
REMARK    7  A    between atoms: C_18  and  C_19
REMARK                            x       y       z     vdW  Elec       q    Type
REMARK                         _______ _______ _______ _____ _____    ______ ____
ROOT
ATOM      1  C   UNL     1       2.057  15.261  18.136  0.00  0.00    +0.000 C 
ATOM      2  N   UNL     1       1.325  14.149  18.686  0.00  0.00    +0.000 N 
ATOM      3  C   UNL     1      -0.051  14.234  19.056  0.00  0.00    +0.000 C 
ATOM      4  N   UNL     1      -0.453  12.857  19.327  0.00  0.00    +0.000 N 
ATOM      5  C   UNL     1       0.769  11.977  19.416  0.00  0.00    +0.000 C 
ATOM      6  C   UNL     1       0.815  10.769  18.475  0.00  0.00    +0.000 C 
ATOM      7  C   UNL     1       0.163   9.521  19.054  0.00  0.00    +0.000 C 
ATOM      8  N   UNL     1       0.569   9.213  20.427  0.00  0.00    +0.000 NA
ATOM      9  C   UNL     1       0.430  10.347  21.341  0.00  0.00    +0.000 C 
ATOM     10  C   UNL     1       1.106  11.620  20.867  0.00  0.00    +0.000 C 
ATOM     11  C   UNL     1       1.891  12.918  18.930  0.00  0.00    +0.000 C 
ATOM     12  O   UNL     1       3.071  12.641  18.776  0.00  0.00    +0.000 OA
ENDROOT
BRANCH   4  13
ATOM     13  C   UNL     1      -1.705  12.414  18.929  0.00  0.00    +0.000 A 
ATOM     14  C   UNL     1      -1.968  11.878  17.662  0.00  0.00    +0.000 A 
ATOM     15  C   UNL     1      -3.238  11.393  17.307  0.00  0.00    +0.000 A 
ATOM     16  C   UNL     1      -4.280  11.402  18.224  0.00  0.00    +0.000 A 
ATOM     17  C   UNL     1      -4.067  11.957  19.472  0.00  0.00    +0.000 A 
ATOM     18  C   UNL     1      -2.812  12.494  19.783  0.00  0.00    +0.000 A 
ENDBRANCH   4  13
BRANCH   8  19
ATOM     19  C   UNL     1       1.881   8.571  20.495  0.00  0.00    +0.000 C 
BRANCH  19  20
ATOM     20  C   UNL     1       1.857   7.156  19.899  0.00  0.00    +0.000 C 
BRANCH  20  21
ATOM     21  C   UNL     1       2.766   6.962  18.672  0.00  0.00    +0.000 C 
BRANCH  21  22
ATOM     22  C   UNL     1       3.482   5.605  18.613  0.00  0.00    +0.000 C 
ATOM     23  O   UNL     1       4.095   5.358  17.342  0.00  0.00    +0.000 OA
ATOM     24  C   UNL     1       5.350   4.759  17.650  0.00  0.00    +0.000 C 
ATOM     25  C   UNL     1       5.728   5.401  18.952  0.00  0.00    +0.000 C 
ATOM     26  O   UNL     1       4.491   5.557  19.644  0.00  0.00    +0.000 OA
BRANCH  22  27
ATOM     27  C   UNL     1       2.501   4.483  18.900  0.00  0.00    +0.000 A 
ATOM     28  C   UNL     1       1.515   3.980  18.067  0.00  0.00    +0.000 A 
ATOM     29  C   UNL     1       0.810   2.885  18.640  0.00  0.00    +0.000 A 
ATOM     30  C   UNL     1       1.274   2.579  19.900  0.00  0.00    +0.000 A 
ATOM     31  S   UNL     1       2.557   3.598  20.377  0.00  0.00    +0.000 S 
ENDBRANCH  22  27
ENDBRANCH  21  22
ENDBRANCH  20  21
ENDBRANCH  19  20
ENDBRANCH   8  19
TORSDOF 6
ENDMDL
MODEL 9
REMARK VINA RESULT:      -6.4      2.855      8.922
REMARK  Name = 
REMARK  7 active torsions:
REMARK  status: ('A' for Active; 'I' for Inactive)
REMARK    1  A    between atoms: C_1  and  N_2
REMARK    2  A    between atoms: N_4  and  C_5
REMARK    3  A    between atoms: N_14  and  C_15
REMARK    4  A    between atoms: C_15  and  C_16
REMARK    5  A    between atoms: C_16  and  C_17
REMARK    6  A    between atoms: C_17  and  C_18
REMARK    7  A    between atoms: C_18  and  C_19
REMARK                            x       y       z     vdW  Elec       q    Type
REMARK                         _______ _______ _______ _____ _____    ______ ____
ROOT
ATOM      1  C   UNL     1       7.418   4.763  16.562  0.00  0.00    +0.000 C 
ATOM      2  N   UNL     1       6.044   5.025  16.908  0.00  0.00    +0.000 N 
ATOM      3  C   UNL     1       4.991   4.095  16.655  0.00  0.00    +0.000 C 
ATOM      4  N   UNL     1       3.835   4.635  17.364  0.00  0.00    +0.000 N 
ATOM      5  C   UNL     1       4.115   6.053  17.792  0.00  0.00    +0.000 C 
ATOM      6  C   UNL     1       3.972   6.362  19.285  0.00  0.00    +0.000 C 
ATOM      7  C   UNL     1       2.563   6.767  19.692  0.00  0.00    +0.000 C 
ATOM      8  N   UNL     1       1.953   7.776  18.822  0.00  0.00    +0.000 NA
ATOM      9  C   UNL     1       2.008   7.427  17.403  0.00  0.00    +0.000 C 
ATOM     10  C   UNL     1       3.393   7.068  16.898  0.00  0.00    +0.000 C 
ATOM     11  C   UNL     1       5.620   6.200  17.484  0.00  0.00    +0.000 C 
ATOM     12  O   UNL     1       6.327   7.172  17.708  0.00  0.00    +0.000 OA
ENDROOT
BRANCH   4  13
ATOM     13  C   UNL     1       2.973   3.776  18.029  0.00  0.00    +0.000 A 
ATOM     14  C   UNL     1       1.577   3.856  17.934  0.00  0.00    +0.000 A 
ATOM     15  C   UNL     1       0.732   2.940  18.583  0.00  0.00    +0.000 A 
ATOM     16  C   UNL     1       1.262   1.892  19.324  0.00  0.00    +0.000 A 
ATOM     17  C   UNL     1       2.633   1.803  19.469  0.00  0.00    +0.000 A 
ATOM     18  C   UNL     1       3.455   2.765  18.869  0.00  0.00    +0.000 A 
ENDBRANCH   4  13
BRANCH   8  19
ATOM     19  C   UNL     1       2.434   9.127  19.106  0.00  0.00    +0.000 C 
BRANCH  19  20
ATOM     20  C   UNL     1       1.790  10.170  18.182  0.00  0.00    +0.000 C 
BRANCH  20  21
ATOM     21  C   UNL     1       1.123  11.349  18.914  0.00  0.00    +0.000 C 
BRANCH  21  22
ATOM     22  C   UNL     1      -0.363  11.141  19.242  0.00  0.00    +0.000 C 
ATOM     23  O   UNL     1      -1.183  12.236  18.814  0.00  0.00    +0.000 OA
ATOM     24  C   UNL     1      -2.355  11.629  18.280  0.00  0.00    +0.000 C 
ATOM     25  C   UNL     1      -1.846  10.341  17.705  0.00  0.00    +0.000 C 
ATOM     26  O   UNL     1      -0.823   9.928  18.608  0.00  0.00    +0.000 OA
BRANCH  22  27
ATOM     27  C   UNL     1      -0.548  10.957  20.737  0.00  0.00    +0.000 A 
ATOM     28  C   UNL     1      -1.015  11.881  21.658  0.00  0.00    +0.000 A 
ATOM     29  C   UNL     1      -1.113  11.352  22.974  0.00  0.00    +0.000 A 
ATOM     30  C   UNL     1      -0.715  10.035  23.029  0.00  0.00    +0.000 A 
ATOM     31  S   UNL     1      -0.242   9.443  21.500  0.00  0.00    +0.000 S 
ENDBRANCH  22  27
ENDBRANCH  21  22
ENDBRANCH  20  21
ENDBRANCH  19  20
ENDBRANCH   8  19
TORSDOF 6
ENDMDL
