MODEL 1
REMARK VINA RESULT:      -8.9      0.000      0.000
REMARK  Name = 
REMARK  9 active torsions:
REMARK  status: ('A' for Active; 'I' for Inactive)
REMARK    1  A    between atoms: C_4  and  C_5
REMARK    2  A    between atoms: C_4  and  C_7
REMARK    3  A    between atoms: C_5  and  O_6
REMARK    4  A    between atoms: C_7  and  O_8
REMARK    5  A    between atoms: O_8  and  C_9
REMARK    6  A    between atoms: C_9  and  C_11
REMARK    7  A    between atoms: C_14  and  C_15
REMARK    8  A    between atoms: C_23  and  C_24
REMARK    9  A    between atoms: C_27  and  C_28
REMARK                            x       y       z     vdW  Elec       q    Type
REMARK                         _______ _______ _______ _____ _____    ______ ____
ROOT
ATOM      1  O   UNL     1       1.444   7.978  20.539  0.00  0.00    +0.000 OA
ATOM      2  C   UNL     1       2.136   7.389  19.734  0.00  0.00    +0.000 C 
ATOM      3  O   UNL     1       2.759   6.204  19.983  0.00  0.00    +0.000 OA
ATOM      4  C   UNL     1       3.383   5.672  18.793  0.00  0.00    +0.000 C 
ATOM      5  C   UNL     1       3.473   6.843  17.818  0.00  0.00    +0.000 C 
ATOM      6  C   UNL     1       2.469   7.796  18.352  0.00  0.00    +0.000 C 
ATOM      7  C   UNL     1       1.968   8.839  17.674  0.00  0.00    +0.000 C 
ENDROOT
BRANCH   7   8
ATOM      8  C   UNL     1       1.009   9.813  18.192  0.00  0.00    +0.000 A 
ATOM      9  C   UNL     1      -0.360   9.616  17.987  0.00  0.00    +0.000 A 
ATOM     10  C   UNL     1      -1.288  10.507  18.529  0.00  0.00    +0.000 A 
ATOM     11  C   UNL     1      -0.861  11.607  19.288  0.00  0.00    +0.000 A 
ATOM     12  C   UNL     1       0.517  11.814  19.463  0.00  0.00    +0.000 A 
ATOM     13  C   UNL     1       1.447  10.923  18.918  0.00  0.00    +0.000 A 
BRANCH  11  14
ATOM     14  C   UNL     1      -1.857  12.541  19.930  0.00  0.00    +0.000 C 
ATOM     15  F   UNL     1      -3.123  12.409  19.441  0.00  0.00    +0.000 F 
ATOM     16  F   UNL     1      -1.959  12.339  21.274  0.00  0.00    +0.000 F 
ATOM     17  F   UNL     1      -1.530  13.853  19.773  0.00  0.00    +0.000 F 
ENDBRANCH  11  14
ENDBRANCH   7   8
BRANCH   4  18
ATOM     18  C   UNL     1       2.509   4.519  18.261  0.00  0.00    +0.000 C 
BRANCH  18  19
ATOM     19  O   UNL     1       1.732   3.927  19.301  0.00  0.00    +0.000 OA
ATOM     20  H   UNL     1       1.368   4.658  19.835  0.00  0.00    +0.000 HD
ENDBRANCH  18  19
ENDBRANCH   4  18
BRANCH   4  21
ATOM     21  C   UNL     1       4.789   5.178  19.169  0.00  0.00    +0.000 C 
BRANCH  21  22
ATOM     22  O   UNL     1       5.792   5.834  18.369  0.00  0.00    +0.000 OA
BRANCH  22  23
ATOM     23  C   UNL     1       6.790   5.046  17.908  0.00  0.00    +0.000 C 
ATOM     24  O   UNL     1       7.754   4.669  18.554  0.00  0.00    +0.000 OA
BRANCH  23  25
ATOM     25  C   UNL     1       6.581   4.691  16.478  0.00  0.00    +0.000 A 
ATOM     26  C   UNL     1       5.488   3.872  16.174  0.00  0.00    +0.000 A 
ATOM     27  C   UNL     1       5.238   3.484  14.858  0.00  0.00    +0.000 A 
ATOM     28  C   UNL     1       6.080   3.907  13.820  0.00  0.00    +0.000 A 
ATOM     29  C   UNL     1       7.176   4.730  14.129  0.00  0.00    +0.000 A 
ATOM     30  C   UNL     1       7.428   5.122  15.450  0.00  0.00    +0.000 A 
BRANCH  28  31
ATOM     31  C   UNL     1       5.815   3.486  12.394  0.00  0.00    +0.000 C 
ATOM     32  F   UNL     1       5.929   2.142  12.196  0.00  0.00    +0.000 F 
ATOM     33  F   UNL     1       4.562   3.818  11.979  0.00  0.00    +0.000 F 
ATOM     34  F   UNL     1       6.673   4.067  11.512  0.00  0.00    +0.000 F 
ENDBRANCH  28  31
ENDBRANCH  23  25
ENDBRANCH  22  23
ENDBRANCH  21  22
ENDBRANCH   4  21
TORSDOF 9
ENDMDL
MODEL 2
REMARK VINA RESULT:      -8.7      0.544      1.458
REMARK  Name = 
REMARK  9 active torsions:
REMARK  status: ('A' for Active; 'I' for Inactive)
REMARK    1  A    between atoms: C_4  and  C_5
REMARK    2  A    between atoms: C_4  and  C_7
REMARK    3  A    between atoms: C_5  and  O_6
REMARK    4  A    between atoms: C_7  and  O_8
REMARK    5  A    between atoms: O_8  and  C_9
REMARK    6  A    between atoms: C_9  and  C_11
REMARK    7  A    between atoms: C_14  and  C_15
REMARK    8  A    between atoms: C_23  and  C_24
REMARK    9  A    between atoms: C_27  and  C_28
REMARK                            x       y       z     vdW  Elec       q    Type
REMARK                         _______ _______ _______ _____ _____    ______ ____
ROOT
ATOM      1  O   UNL     1       1.145   8.052  20.762  0.00  0.00    +0.000 OA
ATOM      2  C   UNL     1       1.854   7.555  19.911  0.00  0.00    +0.000 C 
ATOM      3  O   UNL     1       2.499   6.364  20.052  0.00  0.00    +0.000 OA
ATOM      4  C   UNL     1       3.140   5.959  18.823  0.00  0.00    +0.000 C 
ATOM      5  C   UNL     1       3.212   7.218  17.962  0.00  0.00    +0.000 C 
ATOM      6  C   UNL     1       2.186   8.096  18.576  0.00  0.00    +0.000 C 
ATOM      7  C   UNL     1       1.668   9.189  17.995  0.00  0.00    +0.000 C 
ENDROOT
BRANCH   7   8
ATOM      8  C   UNL     1       0.686  10.091  18.596  0.00  0.00    +0.000 A 
ATOM      9  C   UNL     1       1.105  11.061  19.512  0.00  0.00    +0.000 A 
ATOM     10  C   UNL     1       0.187  11.966  20.046  0.00  0.00    +0.000 A 
ATOM     11  C   UNL     1      -1.164  11.917  19.670  0.00  0.00    +0.000 A 
ATOM     12  C   UNL     1      -1.581  10.920  18.773  0.00  0.00    +0.000 A 
ATOM     13  C   UNL     1      -0.662  10.011  18.240  0.00  0.00    +0.000 A 
BRANCH  11  14
ATOM     14  C   UNL     1      -2.153  12.929  20.193  0.00  0.00    +0.000 C 
ATOM     15  F   UNL     1      -2.328  12.874  21.544  0.00  0.00    +0.000 F 
ATOM     16  F   UNL     1      -1.771  14.209  19.924  0.00  0.00    +0.000 F 
ATOM     17  F   UNL     1      -3.394  12.788  19.650  0.00  0.00    +0.000 F 
ENDBRANCH  11  14
ENDBRANCH   7   8
BRANCH   4  18
ATOM     18  C   UNL     1       2.293   4.844  18.178  0.00  0.00    +0.000 C 
BRANCH  18  19
ATOM     19  O   UNL     1       2.838   3.552  18.441  0.00  0.00    +0.000 OA
ATOM     20  H   UNL     1       2.209   3.093  19.029  0.00  0.00    +0.000 HD
ENDBRANCH  18  19
ENDBRANCH   4  18
BRANCH   4  21
ATOM     21  C   UNL     1       4.553   5.459  19.161  0.00  0.00    +0.000 C 
BRANCH  21  22
ATOM     22  O   UNL     1       5.508   5.927  18.188  0.00  0.00    +0.000 OA
BRANCH  22  23
ATOM     23  C   UNL     1       6.488   5.058  17.855  0.00  0.00    +0.000 C 
ATOM     24  O   UNL     1       7.359   4.647  18.605  0.00  0.00    +0.000 OA
BRANCH  23  25
ATOM     25  C   UNL     1       6.392   4.655  16.426  0.00  0.00    +0.000 A 
ATOM     26  C   UNL     1       7.404   5.095  15.566  0.00  0.00    +0.000 A 
ATOM     27  C   UNL     1       7.372   4.770  14.210  0.00  0.00    +0.000 A 
ATOM     28  C   UNL     1       6.324   4.000  13.688  0.00  0.00    +0.000 A 
ATOM     29  C   UNL     1       5.309   3.559  14.556  0.00  0.00    +0.000 A 
ATOM     30  C   UNL     1       5.341   3.882  15.917  0.00  0.00    +0.000 A 
BRANCH  28  31
ATOM     31  C   UNL     1       6.284   3.649  12.220  0.00  0.00    +0.000 C 
ATOM     32  F   UNL     1       6.796   2.417  11.943  0.00  0.00    +0.000 F 
ATOM     33  F   UNL     1       5.017   3.645  11.721  0.00  0.00    +0.000 F 
ATOM     34  F   UNL     1       6.988   4.527  11.455  0.00  0.00    +0.000 F 
ENDBRANCH  28  31
ENDBRANCH  23  25
ENDBRANCH  22  23
ENDBRANCH  21  22
ENDBRANCH   4  21
TORSDOF 9
ENDMDL
MODEL 3
REMARK VINA RESULT:      -8.6      0.733      1.404
REMARK  Name = 
REMARK  9 active torsions:
REMARK  status: ('A' for Active; 'I' for Inactive)
REMARK    1  A    between atoms: C_4  and  C_5
REMARK    2  A    between atoms: C_4  and  C_7
REMARK    3  A    between atoms: C_5  and  O_6
REMARK    4  A    between atoms: C_7  and  O_8
REMARK    5  A    between atoms: O_8  and  C_9
REMARK    6  A    between atoms: C_9  and  C_11
REMARK    7  A    between atoms: C_14  and  C_15
REMARK    8  A    between atoms: C_23  and  C_24
REMARK    9  A    between atoms: C_27  and  C_28
REMARK                            x       y       z     vdW  Elec       q    Type
REMARK                         _______ _______ _______ _____ _____    ______ ____
ROOT
ATOM      1  O   UNL     1       1.199   8.546  20.809  0.00  0.00    +0.000 OA
ATOM      2  C   UNL     1       1.809   7.915  19.971  0.00  0.00    +0.000 C 
ATOM      3  O   UNL     1       2.432   6.728  20.211  0.00  0.00    +0.000 OA
ATOM      4  C   UNL     1       2.941   6.141  18.993  0.00  0.00    +0.000 C 
ATOM      5  C   UNL     1       2.965   7.274  17.969  0.00  0.00    +0.000 C 
ATOM      6  C   UNL     1       2.026   8.264  18.552  0.00  0.00    +0.000 C 
ATOM      7  C   UNL     1       1.485   9.291  17.879  0.00  0.00    +0.000 C 
ENDROOT
BRANCH   7   8
ATOM      8  C   UNL     1       0.590  10.301  18.441  0.00  0.00    +0.000 A 
ATOM      9  C   UNL     1      -0.794  10.114  18.379  0.00  0.00    +0.000 A 
ATOM     10  C   UNL     1      -1.657  11.043  18.965  0.00  0.00    +0.000 A 
ATOM     11  C   UNL     1      -1.148  12.171  19.626  0.00  0.00    +0.000 A 
ATOM     12  C   UNL     1       0.243  12.367  19.656  0.00  0.00    +0.000 A 
ATOM     13  C   UNL     1       1.107  11.439  19.066  0.00  0.00    +0.000 A 
BRANCH  11  14
ATOM     14  C   UNL     1      -2.067  13.148  20.315  0.00  0.00    +0.000 C 
ATOM     15  F   UNL     1      -1.746  14.453  20.089  0.00  0.00    +0.000 F 
ATOM     16  F   UNL     1      -3.361  13.012  19.909  0.00  0.00    +0.000 F 
ATOM     17  F   UNL     1      -2.083  12.996  21.668  0.00  0.00    +0.000 F 
ENDBRANCH  11  14
ENDBRANCH   7   8
BRANCH   4  18
ATOM     18  C   UNL     1       2.007   4.986  18.583  0.00  0.00    +0.000 C 
BRANCH  18  19
ATOM     19  O   UNL     1       2.744   3.843  18.153  0.00  0.00    +0.000 OA
ATOM     20  H   UNL     1       2.572   3.134  18.802  0.00  0.00    +0.000 HD
ENDBRANCH  18  19
ENDBRANCH   4  18
BRANCH   4  21
ATOM     21  C   UNL     1       4.367   5.635  19.264  0.00  0.00    +0.000 C 
BRANCH  21  22
ATOM     22  O   UNL     1       5.223   5.885  18.133  0.00  0.00    +0.000 OA
BRANCH  22  23
ATOM     23  C   UNL     1       6.153   4.939  17.873  0.00  0.00    +0.000 C 
ATOM     24  O   UNL     1       6.889   4.420  18.698  0.00  0.00    +0.000 OA
BRANCH  23  25
ATOM     25  C   UNL     1       6.190   4.599  16.426  0.00  0.00    +0.000 A 
ATOM     26  C   UNL     1       7.295   5.040  15.690  0.00  0.00    +0.000 A 
ATOM     27  C   UNL     1       7.391   4.773  14.325  0.00  0.00    +0.000 A 
ATOM     28  C   UNL     1       6.379   4.060  13.668  0.00  0.00    +0.000 A 
ATOM     29  C   UNL     1       5.270   3.617  14.410  0.00  0.00    +0.000 A 
ATOM     30  C   UNL     1       5.173   3.883  15.781  0.00  0.00    +0.000 A 
BRANCH  28  31
ATOM     31  C   UNL     1       6.477   3.772  12.188  0.00  0.00    +0.000 C 
ATOM     32  F   UNL     1       5.267   3.728  11.564  0.00  0.00    +0.000 F 
ATOM     33  F   UNL     1       7.205   4.710  11.524  0.00  0.00    +0.000 F 
ATOM     34  F   UNL     1       7.074   2.577  11.929  0.00  0.00    +0.000 F 
ENDBRANCH  28  31
ENDBRANCH  23  25
ENDBRANCH  22  23
ENDBRANCH  21  22
ENDBRANCH   4  21
TORSDOF 9
ENDMDL
MODEL 4
REMARK VINA RESULT:      -8.5      0.969      1.416
REMARK  Name = 
REMARK  9 active torsions:
REMARK  status: ('A' for Active; 'I' for Inactive)
REMARK    1  A    between atoms: C_4  and  C_5
REMARK    2  A    between atoms: C_4  and  C_7
REMARK    3  A    between atoms: C_5  and  O_6
REMARK    4  A    between atoms: C_7  and  O_8
REMARK    5  A    between atoms: O_8  and  C_9
REMARK    6  A    between atoms: C_9  and  C_11
REMARK    7  A    between atoms: C_14  and  C_15
REMARK    8  A    between atoms: C_23  and  C_24
REMARK    9  A    between atoms: C_27  and  C_28
REMARK                            x       y       z     vdW  Elec       q    Type
REMARK                         _______ _______ _______ _____ _____    ______ ____
ROOT
ATOM      1  O   UNL     1       1.537   8.049  20.627  0.00  0.00    +0.000 OA
ATOM      2  C   UNL     1       2.043   7.243  19.874  0.00  0.00    +0.000 C 
ATOM      3  O   UNL     1       2.434   5.991  20.243  0.00  0.00    +0.000 OA
ATOM      4  C   UNL     1       2.858   5.211  19.103  0.00  0.00    +0.000 C 
ATOM      5  C   UNL     1       3.113   6.219  17.986  0.00  0.00    +0.000 C 
ATOM      6  C   UNL     1       2.356   7.413  18.439  0.00  0.00    +0.000 C 
ATOM      7  C   UNL     1       2.028   8.452  17.657  0.00  0.00    +0.000 C 
ENDROOT
BRANCH   7   8
ATOM      8  C   UNL     1       1.319   9.654  18.090  0.00  0.00    +0.000 A 
ATOM      9  C   UNL     1       2.043  10.796  18.447  0.00  0.00    +0.000 A 
ATOM     10  C   UNL     1       1.375  11.970  18.804  0.00  0.00    +0.000 A 
ATOM     11  C   UNL     1      -0.027  12.019  18.807  0.00  0.00    +0.000 A 
ATOM     12  C   UNL     1      -0.746  10.858  18.478  0.00  0.00    +0.000 A 
ATOM     13  C   UNL     1      -0.078   9.682  18.123  0.00  0.00    +0.000 A 
BRANCH  11  14
ATOM     14  C   UNL     1      -0.758  13.298  19.131  0.00  0.00    +0.000 C 
ATOM     15  F   UNL     1      -0.625  14.261  18.175  0.00  0.00    +0.000 F 
ATOM     16  F   UNL     1      -2.100  13.103  19.272  0.00  0.00    +0.000 F 
ATOM     17  F   UNL     1      -0.340  13.867  20.295  0.00  0.00    +0.000 F 
ENDBRANCH  11  14
ENDBRANCH   7   8
BRANCH   4  18
ATOM     18  C   UNL     1       1.739   4.209  18.758  0.00  0.00    +0.000 C 
BRANCH  18  19
ATOM     19  O   UNL     1       1.787   3.822  17.385  0.00  0.00    +0.000 OA
ATOM     20  H   UNL     1       2.726   3.683  17.161  0.00  0.00    +0.000 HD
ENDBRANCH  18  19
ENDBRANCH   4  18
BRANCH   4  21
ATOM     21  C   UNL     1       4.160   4.485  19.478  0.00  0.00    +0.000 C 
BRANCH  21  22
ATOM     22  O   UNL     1       4.815   3.971  18.302  0.00  0.00    +0.000 OA
BRANCH  22  23
ATOM     23  C   UNL     1       5.861   4.695  17.843  0.00  0.00    +0.000 C 
ATOM     24  O   UNL     1       6.564   5.433  18.515  0.00  0.00    +0.000 OA
BRANCH  23  25
ATOM     25  C   UNL     1       6.059   4.495  16.383  0.00  0.00    +0.000 A 
ATOM     26  C   UNL     1       4.974   4.001  15.650  0.00  0.00    +0.000 A 
ATOM     27  C   UNL     1       5.089   3.773  14.279  0.00  0.00    +0.000 A 
ATOM     28  C   UNL     1       6.296   4.032  13.615  0.00  0.00    +0.000 A 
ATOM     29  C   UNL     1       7.384   4.529  14.354  0.00  0.00    +0.000 A 
ATOM     30  C   UNL     1       7.269   4.760  15.730  0.00  0.00    +0.000 A 
BRANCH  28  31
ATOM     31  C   UNL     1       6.427   3.783  12.131  0.00  0.00    +0.000 C 
ATOM     32  F   UNL     1       7.140   2.661  11.831  0.00  0.00    +0.000 F 
ATOM     33  F   UNL     1       5.219   3.630  11.522  0.00  0.00    +0.000 F 
ATOM     34  F   UNL     1       7.051   4.805  11.484  0.00  0.00    +0.000 F 
ENDBRANCH  28  31
ENDBRANCH  23  25
ENDBRANCH  22  23
ENDBRANCH  21  22
ENDBRANCH   4  21
TORSDOF 9
ENDMDL
MODEL 5
REMARK VINA RESULT:      -8.4      0.651      1.432
REMARK  Name = 
REMARK  9 active torsions:
REMARK  status: ('A' for Active; 'I' for Inactive)
REMARK    1  A    between atoms: C_4  and  C_5
REMARK    2  A    between atoms: C_4  and  C_7
REMARK    3  A    between atoms: C_5  and  O_6
REMARK    4  A    between atoms: C_7  and  O_8
REMARK    5  A    between atoms: O_8  and  C_9
REMARK    6  A    between atoms: C_9  and  C_11
REMARK    7  A    between atoms: C_14  and  C_15
REMARK    8  A    between atoms: C_23  and  C_24
REMARK    9  A    between atoms: C_27  and  C_28
REMARK                            x       y       z     vdW  Elec       q    Type
REMARK                         _______ _______ _______ _____ _____    ______ ____
ROOT
ATOM      1  O   UNL     1       1.084   7.953  20.802  0.00  0.00    +0.000 OA
ATOM      2  C   UNL     1       1.856   7.493  19.986  0.00  0.00    +0.000 C 
ATOM      3  O   UNL     1       2.551   6.334  20.158  0.00  0.00    +0.000 OA
ATOM      4  C   UNL     1       3.269   5.964  18.960  0.00  0.00    +0.000 C 
ATOM      5  C   UNL     1       3.320   7.227  18.104  0.00  0.00    +0.000 C 
ATOM      6  C   UNL     1       2.224   8.053  18.668  0.00  0.00    +0.000 C 
ATOM      7  C   UNL     1       1.681   9.120  18.063  0.00  0.00    +0.000 C 
ENDROOT
BRANCH   7   8
ATOM      8  C   UNL     1       0.629   9.971  18.616  0.00  0.00    +0.000 A 
ATOM      9  C   UNL     1       0.957  10.967  19.541  0.00  0.00    +0.000 A 
ATOM     10  C   UNL     1      -0.030  11.825  20.031  0.00  0.00    +0.000 A 
ATOM     11  C   UNL     1      -1.359  11.702  19.600  0.00  0.00    +0.000 A 
ATOM     12  C   UNL     1      -1.685  10.678  18.695  0.00  0.00    +0.000 A 
ATOM     13  C   UNL     1      -0.698   9.817  18.207  0.00  0.00    +0.000 A 
BRANCH  11  14
ATOM     14  C   UNL     1      -2.421  12.661  20.075  0.00  0.00    +0.000 C 
ATOM     15  F   UNL     1      -2.052  13.971  19.988  0.00  0.00    +0.000 F 
ATOM     16  F   UNL     1      -3.572  12.556  19.352  0.00  0.00    +0.000 F 
ATOM     17  F   UNL     1      -2.777  12.459  21.373  0.00  0.00    +0.000 F 
ENDBRANCH  11  14
ENDBRANCH   7   8
BRANCH   4  18
ATOM     18  C   UNL     1       2.509   4.811  18.276  0.00  0.00    +0.000 C 
BRANCH  18  19
ATOM     19  O   UNL     1       2.807   3.554  18.883  0.00  0.00    +0.000 OA
ATOM     20  H   UNL     1       3.769   3.416  18.795  0.00  0.00    +0.000 HD
ENDBRANCH  18  19
ENDBRANCH   4  18
BRANCH   4  21
ATOM     21  C   UNL     1       4.688   5.534  19.365  0.00  0.00    +0.000 C 
BRANCH  21  22
ATOM     22  O   UNL     1       5.298   4.742  18.328  0.00  0.00    +0.000 OA
BRANCH  22  23
ATOM     23  C   UNL     1       6.258   5.356  17.601  0.00  0.00    +0.000 C 
ATOM     24  O   UNL     1       7.041   6.193  18.020  0.00  0.00    +0.000 OA
BRANCH  23  25
ATOM     25  C   UNL     1       6.246   4.894  16.187  0.00  0.00    +0.000 A 
ATOM     26  C   UNL     1       5.167   4.101  15.781  0.00  0.00    +0.000 A 
ATOM     27  C   UNL     1       5.095   3.617  14.475  0.00  0.00    +0.000 A 
ATOM     28  C   UNL     1       6.105   3.916  13.550  0.00  0.00    +0.000 A 
ATOM     29  C   UNL     1       7.187   4.713  13.961  0.00  0.00    +0.000 A 
ATOM     30  C   UNL     1       7.259   5.201  15.271  0.00  0.00    +0.000 A 
BRANCH  28  31
ATOM     31  C   UNL     1       6.033   3.390  12.135  0.00  0.00    +0.000 C 
ATOM     32  F   UNL     1       4.978   3.883  11.427  0.00  0.00    +0.000 F 
ATOM     33  F   UNL     1       7.144   3.697  11.411  0.00  0.00    +0.000 F 
ATOM     34  F   UNL     1       5.913   2.036  12.089  0.00  0.00    +0.000 F 
ENDBRANCH  28  31
ENDBRANCH  23  25
ENDBRANCH  22  23
ENDBRANCH  21  22
ENDBRANCH   4  21
TORSDOF 9
ENDMDL
MODEL 6
REMARK VINA RESULT:      -8.4      0.608      1.392
REMARK  Name = 
REMARK  9 active torsions:
REMARK  status: ('A' for Active; 'I' for Inactive)
REMARK    1  A    between atoms: C_4  and  C_5
REMARK    2  A    between atoms: C_4  and  C_7
REMARK    3  A    between atoms: C_5  and  O_6
REMARK    4  A    between atoms: C_7  and  O_8
REMARK    5  A    between atoms: O_8  and  C_9
REMARK    6  A    between atoms: C_9  and  C_11
REMARK    7  A    between atoms: C_14  and  C_15
REMARK    8  A    between atoms: C_23  and  C_24
REMARK    9  A    between atoms: C_27  and  C_28
REMARK                            x       y       z     vdW  Elec       q    Type
REMARK                         _______ _______ _______ _____ _____    ______ ____
ROOT
ATOM      1  O   UNL     1       1.220   8.310  20.872  0.00  0.00    +0.000 OA
ATOM      2  C   UNL     1       1.839   7.743  19.995  0.00  0.00    +0.000 C 
ATOM      3  O   UNL     1       2.422   6.520  20.138  0.00  0.00    +0.000 OA
ATOM      4  C   UNL     1       2.953   6.036  18.885  0.00  0.00    +0.000 C 
ATOM      5  C   UNL     1       3.040   7.259  17.975  0.00  0.00    +0.000 C 
ATOM      6  C   UNL     1       2.110   8.218  18.622  0.00  0.00    +0.000 C 
ATOM      7  C   UNL     1       1.618   9.319  18.036  0.00  0.00    +0.000 C 
ENDROOT
BRANCH   7   8
ATOM      8  C   UNL     1       0.733  10.298  18.665  0.00  0.00    +0.000 A 
ATOM      9  C   UNL     1       1.280  11.373  19.374  0.00  0.00    +0.000 A 
ATOM     10  C   UNL     1       0.447  12.347  19.928  0.00  0.00    +0.000 A 
ATOM     11  C   UNL     1      -0.946  12.262  19.780  0.00  0.00    +0.000 A 
ATOM     12  C   UNL     1      -1.487  11.162  19.094  0.00  0.00    +0.000 A 
ATOM     13  C   UNL     1      -0.654  10.185  18.541  0.00  0.00    +0.000 A 
BRANCH  11  14
ATOM     14  C   UNL     1      -1.851  13.340  20.321  0.00  0.00    +0.000 C 
ATOM     15  F   UNL     1      -1.711  13.548  21.661  0.00  0.00    +0.000 F 
ATOM     16  F   UNL     1      -1.620  14.548  19.735  0.00  0.00    +0.000 F 
ATOM     17  F   UNL     1      -3.171  13.074  20.120  0.00  0.00    +0.000 F 
ENDBRANCH  11  14
ENDBRANCH   7   8
BRANCH   4  18
ATOM     18  C   UNL     1       2.002   4.954  18.340  0.00  0.00    +0.000 C 
BRANCH  18  19
ATOM     19  O   UNL     1       1.860   3.870  19.257  0.00  0.00    +0.000 OA
ATOM     20  H   UNL     1       0.922   3.603  19.240  0.00  0.00    +0.000 HD
ENDBRANCH  18  19
ENDBRANCH   4  18
BRANCH   4  21
ATOM     21  C   UNL     1       4.356   5.464  19.148  0.00  0.00    +0.000 C 
BRANCH  21  22
ATOM     22  O   UNL     1       5.295   5.941  18.165  0.00  0.00    +0.000 OA
BRANCH  22  23
ATOM     23  C   UNL     1       6.311   5.103  17.861  0.00  0.00    +0.000 C 
ATOM     24  O   UNL     1       7.152   4.691  18.645  0.00  0.00    +0.000 OA
BRANCH  23  25
ATOM     25  C   UNL     1       6.298   4.736  16.420  0.00  0.00    +0.000 A 
ATOM     26  C   UNL     1       5.248   3.926  15.973  0.00  0.00    +0.000 A 
ATOM     27  C   UNL     1       5.177   3.529  14.639  0.00  0.00    +0.000 A 
ATOM     28  C   UNL     1       6.160   3.933  13.724  0.00  0.00    +0.000 A 
ATOM     29  C   UNL     1       7.213   4.747  14.176  0.00  0.00    +0.000 A 
ATOM     30  C   UNL     1       7.284   5.148  15.515  0.00  0.00    +0.000 A 
BRANCH  28  31
ATOM     31  C   UNL     1       6.090   3.501  12.278  0.00  0.00    +0.000 C 
ATOM     32  F   UNL     1       7.166   3.897  11.542  0.00  0.00    +0.000 F 
ATOM     33  F   UNL     1       6.023   2.148  12.143  0.00  0.00    +0.000 F 
ATOM     34  F   UNL     1       4.996   3.999  11.639  0.00  0.00    +0.000 F 
ENDBRANCH  28  31
ENDBRANCH  23  25
ENDBRANCH  22  23
ENDBRANCH  21  22
ENDBRANCH   4  21
TORSDOF 9
ENDMDL
MODEL 7
REMARK VINA RESULT:      -8.4      0.923      1.574
REMARK  Name = 
REMARK  9 active torsions:
REMARK  status: ('A' for Active; 'I' for Inactive)
REMARK    1  A    between atoms: C_4  and  C_5
REMARK    2  A    between atoms: C_4  and  C_7
REMARK    3  A    between atoms: C_5  and  O_6
REMARK    4  A    between atoms: C_7  and  O_8
REMARK    5  A    between atoms: O_8  and  C_9
REMARK    6  A    between atoms: C_9  and  C_11
REMARK    7  A    between atoms: C_14  and  C_15
REMARK    8  A    between atoms: C_23  and  C_24
REMARK    9  A    between atoms: C_27  and  C_28
REMARK                            x       y       z     vdW  Elec       q    Type
REMARK                         _______ _______ _______ _____ _____    ______ ____
ROOT
ATOM      1  O   UNL     1       1.504   8.282  20.762  0.00  0.00    +0.000 OA
ATOM      2  C   UNL     1       2.006   7.501  19.980  0.00  0.00    +0.000 C 
ATOM      3  O   UNL     1       2.411   6.243  20.308  0.00  0.00    +0.000 OA
ATOM      4  C   UNL     1       2.825   5.498  19.142  0.00  0.00    +0.000 C 
ATOM      5  C   UNL     1       3.058   6.539  18.050  0.00  0.00    +0.000 C 
ATOM      6  C   UNL     1       2.298   7.713  18.547  0.00  0.00    +0.000 C 
ATOM      7  C   UNL     1       1.952   8.771  17.799  0.00  0.00    +0.000 C 
ENDROOT
BRANCH   7   8
ATOM      8  C   UNL     1       1.239   9.955  18.275  0.00  0.00    +0.000 A 
ATOM      9  C   UNL     1       1.946  11.135  18.528  0.00  0.00    +0.000 A 
ATOM     10  C   UNL     1       1.268  12.290  18.925  0.00  0.00    +0.000 A 
ATOM     11  C   UNL     1      -0.127  12.283  19.071  0.00  0.00    +0.000 A 
ATOM     12  C   UNL     1      -0.825  11.085  18.845  0.00  0.00    +0.000 A 
ATOM     13  C   UNL     1      -0.146   9.928  18.451  0.00  0.00    +0.000 A 
BRANCH  11  14
ATOM     14  C   UNL     1      -0.875  13.539  19.440  0.00  0.00    +0.000 C 
ATOM     15  F   UNL     1      -0.631  13.967  20.711  0.00  0.00    +0.000 F 
ATOM     16  F   UNL     1      -0.552  14.587  18.631  0.00  0.00    +0.000 F 
ATOM     17  F   UNL     1      -2.226  13.398  19.346  0.00  0.00    +0.000 F 
ENDBRANCH  11  14
ENDBRANCH   7   8
BRANCH   4  18
ATOM     18  C   UNL     1       1.709   4.497  18.784  0.00  0.00    +0.000 C 
BRANCH  18  19
ATOM     19  O   UNL     1       1.756   4.132  17.405  0.00  0.00    +0.000 OA
ATOM     20  H   UNL     1       1.292   3.277  17.322  0.00  0.00    +0.000 HD
ENDBRANCH  18  19
ENDBRANCH   4  18
BRANCH   4  21
ATOM     21  C   UNL     1       4.138   4.772  19.479  0.00  0.00    +0.000 C 
BRANCH  21  22
ATOM     22  O   UNL     1       4.695   4.152  18.303  0.00  0.00    +0.000 OA
BRANCH  22  23
ATOM     23  C   UNL     1       5.892   4.631  17.893  0.00  0.00    +0.000 C 
ATOM     24  O   UNL     1       6.728   5.161  18.607  0.00  0.00    +0.000 OA
BRANCH  23  25
ATOM     25  C   UNL     1       6.076   4.444  16.429  0.00  0.00    +0.000 A 
ATOM     26  C   UNL     1       5.049   3.801  15.730  0.00  0.00    +0.000 A 
ATOM     27  C   UNL     1       5.158   3.576  14.358  0.00  0.00    +0.000 A 
ATOM     28  C   UNL     1       6.300   3.990  13.659  0.00  0.00    +0.000 A 
ATOM     29  C   UNL     1       7.330   4.637  14.364  0.00  0.00    +0.000 A 
ATOM     30  C   UNL     1       7.221   4.865  15.741  0.00  0.00    +0.000 A 
BRANCH  28  31
ATOM     31  C   UNL     1       6.424   3.745  12.173  0.00  0.00    +0.000 C 
ATOM     32  F   UNL     1       5.233   3.802  11.514  0.00  0.00    +0.000 F 
ATOM     33  F   UNL     1       7.231   4.656  11.563  0.00  0.00    +0.000 F 
ATOM     34  F   UNL     1       6.950   2.523  11.889  0.00  0.00    +0.000 F 
ENDBRANCH  28  31
ENDBRANCH  23  25
ENDBRANCH  22  23
ENDBRANCH  21  22
ENDBRANCH   4  21
TORSDOF 9
ENDMDL
MODEL 8
REMARK VINA RESULT:      -8.2      0.783      1.328
REMARK  Name = 
REMARK  9 active torsions:
REMARK  status: ('A' for Active; 'I' for Inactive)
REMARK    1  A    between atoms: C_4  and  C_5
REMARK    2  A    between atoms: C_4  and  C_7
REMARK    3  A    between atoms: C_5  and  O_6
REMARK    4  A    between atoms: C_7  and  O_8
REMARK    5  A    between atoms: O_8  and  C_9
REMARK    6  A    between atoms: C_9  and  C_11
REMARK    7  A    between atoms: C_14  and  C_15
REMARK    8  A    between atoms: C_23  and  C_24
REMARK    9  A    between atoms: C_27  and  C_28
REMARK                            x       y       z     vdW  Elec       q    Type
REMARK                         _______ _______ _______ _____ _____    ______ ____
ROOT
ATOM      1  O   UNL     1       1.370   8.609  20.756  0.00  0.00    +0.000 OA
ATOM      2  C   UNL     1       1.960   7.921  19.947  0.00  0.00    +0.000 C 
ATOM      3  O   UNL     1       2.497   6.701  20.228  0.00  0.00    +0.000 OA
ATOM      4  C   UNL     1       2.998   6.057  19.036  0.00  0.00    +0.000 C 
ATOM      5  C   UNL     1       3.124   7.162  17.991  0.00  0.00    +0.000 C 
ATOM      6  C   UNL     1       2.237   8.225  18.528  0.00  0.00    +0.000 C 
ATOM      7  C   UNL     1       1.782   9.270  17.820  0.00  0.00    +0.000 C 
ENDROOT
BRANCH   7   8
ATOM      8  C   UNL     1       0.941  10.348  18.337  0.00  0.00    +0.000 A 
ATOM      9  C   UNL     1      -0.451  10.215  18.313  0.00  0.00    +0.000 A 
ATOM     10  C   UNL     1      -1.262  11.212  18.859  0.00  0.00    +0.000 A 
ATOM     11  C   UNL     1      -0.694  12.356  19.439  0.00  0.00    +0.000 A 
ATOM     12  C   UNL     1       0.704  12.495  19.430  0.00  0.00    +0.000 A 
ATOM     13  C   UNL     1       1.517  11.499  18.881  0.00  0.00    +0.000 A 
BRANCH  11  14
ATOM     14  C   UNL     1      -1.558  13.409  20.085  0.00  0.00    +0.000 C 
ATOM     15  F   UNL     1      -2.895  13.188  19.933  0.00  0.00    +0.000 F 
ATOM     16  F   UNL     1      -1.349  13.492  21.430  0.00  0.00    +0.000 F 
ATOM     17  F   UNL     1      -1.327  14.658  19.595  0.00  0.00    +0.000 F 
ENDBRANCH  11  14
ENDBRANCH   7   8
BRANCH   4  18
ATOM     18  C   UNL     1       2.001   4.956  18.623  0.00  0.00    +0.000 C 
BRANCH  18  19
ATOM     19  O   UNL     1       1.314   4.420  19.753  0.00  0.00    +0.000 OA
ATOM     20  H   UNL     1       0.438   4.849  19.783  0.00  0.00    +0.000 HD
ENDBRANCH  18  19
ENDBRANCH   4  18
BRANCH   4  21
ATOM     21  C   UNL     1       4.380   5.464  19.357  0.00  0.00    +0.000 C 
BRANCH  21  22
ATOM     22  O   UNL     1       4.783   4.527  18.340  0.00  0.00    +0.000 OA
BRANCH  22  23
ATOM     23  C   UNL     1       6.051   4.654  17.886  0.00  0.00    +0.000 C 
ATOM     24  O   UNL     1       7.021   4.954  18.563  0.00  0.00    +0.000 OA
BRANCH  23  25
ATOM     25  C   UNL     1       6.130   4.393  16.424  0.00  0.00    +0.000 A 
ATOM     26  C   UNL     1       7.223   4.930  15.735  0.00  0.00    +0.000 A 
ATOM     27  C   UNL     1       7.357   4.739  14.360  0.00  0.00    +0.000 A 
ATOM     28  C   UNL     1       6.396   4.009  13.647  0.00  0.00    +0.000 A 
ATOM     29  C   UNL     1       5.299   3.471  14.343  0.00  0.00    +0.000 A 
ATOM     30  C   UNL     1       5.165   3.659  15.723  0.00  0.00    +0.000 A 
BRANCH  28  31
ATOM     31  C   UNL     1       6.534   3.804  12.157  0.00  0.00    +0.000 C 
ATOM     32  F   UNL     1       7.280   4.767  11.545  0.00  0.00    +0.000 F 
ATOM     33  F   UNL     1       7.131   2.620  11.849  0.00  0.00    +0.000 F 
ATOM     34  F   UNL     1       5.333   3.800  11.518  0.00  0.00    +0.000 F 
ENDBRANCH  28  31
ENDBRANCH  23  25
ENDBRANCH  22  23
ENDBRANCH  21  22
ENDBRANCH   4  21
TORSDOF 9
ENDMDL
MODEL 9
REMARK VINA RESULT:      -8.1      0.823      1.645
REMARK  Name = 
REMARK  9 active torsions:
REMARK  status: ('A' for Active; 'I' for Inactive)
REMARK    1  A    between atoms: C_4  and  C_5
REMARK    2  A    between atoms: C_4  and  C_7
REMARK    3  A    between atoms: C_5  and  O_6
REMARK    4  A    between atoms: C_7  and  O_8
REMARK    5  A    between atoms: O_8  and  C_9
REMARK    6  A    between atoms: C_9  and  C_11
REMARK    7  A    between atoms: C_14  and  C_15
REMARK    8  A    between atoms: C_23  and  C_24
REMARK    9  A    between atoms: C_27  and  C_28
REMARK                            x       y       z     vdW  Elec       q    Type
REMARK                         _______ _______ _______ _____ _____    ______ ____
ROOT
ATOM      1  O   UNL     1       1.488   8.325  20.885  0.00  0.00    +0.000 OA
ATOM      2  C   UNL     1       2.037   7.615  20.067  0.00  0.00    +0.000 C 
ATOM      3  O   UNL     1       2.543   6.381  20.343  0.00  0.00    +0.000 OA
ATOM      4  C   UNL     1       2.996   5.714  19.144  0.00  0.00    +0.000 C 
ATOM      5  C   UNL     1       3.130   6.809  18.089  0.00  0.00    +0.000 C 
ATOM      6  C   UNL     1       2.289   7.901  18.639  0.00  0.00    +0.000 C 
ATOM      7  C   UNL     1       1.849   8.956  17.936  0.00  0.00    +0.000 C 
ENDROOT
BRANCH   7   8
ATOM      8  C   UNL     1       1.054  10.062  18.466  0.00  0.00    +0.000 A 
ATOM      9  C   UNL     1       1.695  11.203  18.958  0.00  0.00    +0.000 A 
ATOM     10  C   UNL     1       0.945  12.291  19.411  0.00  0.00    +0.000 A 
ATOM     11  C   UNL     1      -0.457  12.255  19.374  0.00  0.00    +0.000 A 
ATOM     12  C   UNL     1      -1.092  11.092  18.907  0.00  0.00    +0.000 A 
ATOM     13  C   UNL     1      -0.341  10.002  18.456  0.00  0.00    +0.000 A 
BRANCH  11  14
ATOM     14  C   UNL     1      -1.276  13.447  19.802  0.00  0.00    +0.000 C 
ATOM     15  F   UNL     1      -1.017  14.575  19.082  0.00  0.00    +0.000 F 
ATOM     16  F   UNL     1      -2.614  13.226  19.671  0.00  0.00    +0.000 F 
ATOM     17  F   UNL     1      -1.079  13.784  21.107  0.00  0.00    +0.000 F 
ENDBRANCH  11  14
ENDBRANCH   7   8
BRANCH   4  18
ATOM     18  C   UNL     1       1.956   4.642  18.762  0.00  0.00    +0.000 C 
BRANCH  18  19
ATOM     19  O   UNL     1       1.115   4.311  19.866  0.00  0.00    +0.000 OA
ATOM     20  H   UNL     1       1.074   5.099  20.439  0.00  0.00    +0.000 HD
ENDBRANCH  18  19
ENDBRANCH   4  18
BRANCH   4  21
ATOM     21  C   UNL     1       4.366   5.081  19.436  0.00  0.00    +0.000 C 
BRANCH  21  22
ATOM     22  O   UNL     1       4.812   4.287  18.319  0.00  0.00    +0.000 OA
BRANCH  22  23
ATOM     23  C   UNL     1       6.063   4.541  17.874  0.00  0.00    +0.000 C 
ATOM     24  O   UNL     1       7.003   4.903  18.563  0.00  0.00    +0.000 OA
BRANCH  23  25
ATOM     25  C   UNL     1       6.167   4.335  16.405  0.00  0.00    +0.000 A 
ATOM     26  C   UNL     1       7.298   4.849  15.762  0.00  0.00    +0.000 A 
ATOM     27  C   UNL     1       7.457   4.708  14.384  0.00  0.00    +0.000 A 
ATOM     28  C   UNL     1       6.482   4.051  13.621  0.00  0.00    +0.000 A 
ATOM     29  C   UNL     1       5.347   3.535  14.269  0.00  0.00    +0.000 A 
ATOM     30  C   UNL     1       5.187   3.674  15.652  0.00  0.00    +0.000 A 
BRANCH  28  31
ATOM     31  C   UNL     1       6.648   3.899  12.127  0.00  0.00    +0.000 C 
ATOM     32  F   UNL     1       5.471   3.957  11.443  0.00  0.00    +0.000 F 
ATOM     33  F   UNL     1       7.437   4.870  11.591  0.00  0.00    +0.000 F 
ATOM     34  F   UNL     1       7.221   2.714  11.784  0.00  0.00    +0.000 F 
ENDBRANCH  28  31
ENDBRANCH  23  25
ENDBRANCH  22  23
ENDBRANCH  21  22
ENDBRANCH   4  21
TORSDOF 9
ENDMDL
