MODEL 1
REMARK VINA RESULT:      -8.6      0.000      0.000
REMARK  Name = 
REMARK  6 active torsions:
REMARK  status: ('A' for Active; 'I' for Inactive)
REMARK    1  A    between atoms: C_1  and  C_2
REMARK    2  A    between atoms: C_2  and  C_3
REMARK    3  A    between atoms: C_11  and  S_12
REMARK    4  A    between atoms: S_12  and  N_15
REMARK    5  A    between atoms: C_19  and  C_20
REMARK    6  A    between atoms: C_20  and  N_21
REMARK                            x       y       z     vdW  Elec       q    Type
REMARK                         _______ _______ _______ _____ _____    ______ ____
ROOT
ATOM      1  C   UNL     1      -0.443  13.661  18.151  0.00  0.00    +0.000 C 
ATOM      2  C   UNL     1      -0.580  12.348  18.942  0.00  0.00    +0.000 C 
ATOM      3  C   UNL     1      -1.770  11.558  18.358  0.00  0.00    +0.000 C 
ATOM      4  C   UNL     1      -0.814  12.661  20.441  0.00  0.00    +0.000 C 
ATOM      5  N   UNL     1      -0.807  11.471  21.316  0.00  0.00    +0.000 NA
ATOM      6  C   UNL     1      -0.062  10.509  20.898  0.00  0.00    +0.000 C 
ATOM      7  C   UNL     1       0.113   9.168  21.632  0.00  0.00    +0.000 C 
ATOM      8  O   UNL     1      -0.370   8.806  22.679  0.00  0.00    +0.000 OA
ATOM      9  C   UNL     1       1.004   8.388  20.741  0.00  0.00    +0.000 A 
ATOM     10  C   UNL     1       1.503   7.109  20.907  0.00  0.00    +0.000 A 
ATOM     11  C   UNL     1       2.325   6.625  19.892  0.00  0.00    +0.000 A 
ATOM     12  C   UNL     1       2.622   7.420  18.760  0.00  0.00    +0.000 A 
ATOM     13  C   UNL     1       2.110   8.720  18.632  0.00  0.00    +0.000 A 
ATOM     14  C   UNL     1       1.294   9.211  19.634  0.00  0.00    +0.000 A 
ATOM     15  N   UNL     1       0.677  10.444  19.736  0.00  0.00    +0.000 N 
ATOM     16  C   UNL     1       0.727  11.538  18.800  0.00  0.00    +0.000 C 
ENDROOT
BRANCH  11  17
ATOM     17  S   UNL     1       3.173   5.068  20.087  0.00  0.00    +0.000 S 
ATOM     18  O   UNL     1       4.592   5.351  20.019  0.00  0.00    +0.000 OA
ATOM     19  O   UNL     1       2.592   4.444  21.255  0.00  0.00    +0.000 OA
BRANCH  17  20
ATOM     20  N   UNL     1       2.798   4.161  18.745  0.00  0.00    +0.000 NA
ATOM     21  C   UNL     1       1.431   4.006  18.241  0.00  0.00    +0.000 C 
ATOM     22  C   UNL     1       1.340   2.530  17.903  0.00  0.00    +0.000 C 
ATOM     23  C   UNL     1       2.743   2.175  17.426  0.00  0.00    +0.000 C 
ATOM     24  C   UNL     1       3.679   3.097  18.222  0.00  0.00    +0.000 C 
BRANCH  24  25
ATOM     25  C   UNL     1       4.884   3.655  17.397  0.00  0.00    +0.000 C 
BRANCH  25  26
ATOM     26  N   UNL     1       4.673   4.777  16.446  0.00  0.00    +0.000 NA
ATOM     27  C   UNL     1       5.393   6.024  16.791  0.00  0.00    +0.000 C 
ATOM     28  C   UNL     1       6.930   5.969  16.663  0.00  0.00    +0.000 C 
ATOM     29  N   UNL     1       7.383   5.549  15.331  0.00  0.00    +0.000 NA
ATOM     30  C   UNL     1       6.673   4.339  14.894  0.00  0.00    +0.000 C 
ATOM     31  C   UNL     1       5.134   4.401  15.082  0.00  0.00    +0.000 C 
ATOM     32  H   UNL     1       8.383   5.358  15.370  0.00  0.00    +0.000 HD
ENDBRANCH  25  26
ENDBRANCH  24  25
ENDBRANCH  17  20
ENDBRANCH  11  17
TORSDOF 4
ENDMDL
MODEL 2
REMARK VINA RESULT:      -8.6      2.256      8.435
REMARK  Name = 
REMARK  6 active torsions:
REMARK  status: ('A' for Active; 'I' for Inactive)
REMARK    1  A    between atoms: C_1  and  C_2
REMARK    2  A    between atoms: C_2  and  C_3
REMARK    3  A    between atoms: C_11  and  S_12
REMARK    4  A    between atoms: S_12  and  N_15
REMARK    5  A    between atoms: C_19  and  C_20
REMARK    6  A    between atoms: C_20  and  N_21
REMARK                            x       y       z     vdW  Elec       q    Type
REMARK                         _______ _______ _______ _____ _____    ______ ____
ROOT
ATOM      1  C   UNL     1       5.715   3.965  15.606  0.00  0.00    +0.000 C 
ATOM      2  C   UNL     1       5.160   4.358  16.985  0.00  0.00    +0.000 C 
ATOM      3  C   UNL     1       6.334   4.874  17.845  0.00  0.00    +0.000 C 
ATOM      4  C   UNL     1       4.493   3.129  17.652  0.00  0.00    +0.000 C 
ATOM      5  N   UNL     1       3.792   3.432  18.917  0.00  0.00    +0.000 NA
ATOM      6  C   UNL     1       3.317   4.626  18.988  0.00  0.00    +0.000 C 
ATOM      7  C   UNL     1       2.547   5.181  20.198  0.00  0.00    +0.000 C 
ATOM      8  O   UNL     1       2.248   4.625  21.229  0.00  0.00    +0.000 OA
ATOM      9  C   UNL     1       2.266   6.588  19.827  0.00  0.00    +0.000 A 
ATOM     10  C   UNL     1       1.589   7.560  20.541  0.00  0.00    +0.000 A 
ATOM     11  C   UNL     1       1.479   8.811  19.937  0.00  0.00    +0.000 A 
ATOM     12  C   UNL     1       2.038   9.050  18.659  0.00  0.00    +0.000 A 
ATOM     13  C   UNL     1       2.704   8.034  17.958  0.00  0.00    +0.000 A 
ATOM     14  C   UNL     1       2.818   6.790  18.546  0.00  0.00    +0.000 A 
ATOM     15  N   UNL     1       3.421   5.643  18.062  0.00  0.00    +0.000 N 
ATOM     16  C   UNL     1       4.099   5.464  16.804  0.00  0.00    +0.000 C 
ENDROOT
BRANCH  11  17
ATOM     17  S   UNL     1       0.470  10.081  20.678  0.00  0.00    +0.000 S 
ATOM     18  O   UNL     1      -0.865   9.534  20.810  0.00  0.00    +0.000 OA
ATOM     19  O   UNL     1       1.204  10.546  21.835  0.00  0.00    +0.000 OA
BRANCH  17  20
ATOM     20  N   UNL     1       0.377  11.313  19.565  0.00  0.00    +0.000 NA
ATOM     21  C   UNL     1       1.313  12.440  19.540  0.00  0.00    +0.000 C 
ATOM     22  C   UNL     1       0.418  13.642  19.304  0.00  0.00    +0.000 C 
ATOM     23  C   UNL     1      -0.692  13.105  18.409  0.00  0.00    +0.000 C 
ATOM     24  C   UNL     1      -0.859  11.635  18.823  0.00  0.00    +0.000 C 
BRANCH  24  25
ATOM     25  C   UNL     1      -1.124  10.658  17.630  0.00  0.00    +0.000 C 
BRANCH  25  26
ATOM     26  N   UNL     1      -2.377   9.861  17.593  0.00  0.00    +0.000 NA
ATOM     27  C   UNL     1      -3.559  10.539  18.171  0.00  0.00    +0.000 C 
ATOM     28  C   UNL     1      -4.094  11.749  17.378  0.00  0.00    +0.000 C 
ATOM     29  N   UNL     1      -4.407  11.430  15.980  0.00  0.00    +0.000 NA
ATOM     30  C   UNL     1      -3.295  10.707  15.346  0.00  0.00    +0.000 C 
ATOM     31  C   UNL     1      -2.743   9.527  16.189  0.00  0.00    +0.000 C 
ATOM     32  H   UNL     1      -4.575  12.299  15.475  0.00  0.00    +0.000 HD
ENDBRANCH  25  26
ENDBRANCH  24  25
ENDBRANCH  17  20
ENDBRANCH  11  17
TORSDOF 4
ENDMDL
MODEL 3
REMARK VINA RESULT:      -8.1      1.256      1.646
REMARK  Name = 
REMARK  6 active torsions:
REMARK  status: ('A' for Active; 'I' for Inactive)
REMARK    1  A    between atoms: C_1  and  C_2
REMARK    2  A    between atoms: C_2  and  C_3
REMARK    3  A    between atoms: C_11  and  S_12
REMARK    4  A    between atoms: S_12  and  N_15
REMARK    5  A    between atoms: C_19  and  C_20
REMARK    6  A    between atoms: C_20  and  N_21
REMARK                            x       y       z     vdW  Elec       q    Type
REMARK                         _______ _______ _______ _____ _____    ______ ____
ROOT
ATOM      1  C   UNL     1       1.027  13.746  18.168  0.00  0.00    +0.000 C 
ATOM      2  C   UNL     1       0.610  12.582  19.082  0.00  0.00    +0.000 C 
ATOM      3  C   UNL     1      -0.842  12.192  18.731  0.00  0.00    +0.000 C 
ATOM      4  C   UNL     1       0.716  13.016  20.566  0.00  0.00    +0.000 C 
ATOM      5  N   UNL     1       0.484  11.924  21.534  0.00  0.00    +0.000 NA
ATOM      6  C   UNL     1       0.819  10.757  21.108  0.00  0.00    +0.000 C 
ATOM      7  C   UNL     1       0.677   9.463  21.928  0.00  0.00    +0.000 C 
ATOM      8  O   UNL     1       0.271   9.320  23.058  0.00  0.00    +0.000 OA
ATOM      9  C   UNL     1       1.133   8.402  21.000  0.00  0.00    +0.000 A 
ATOM     10  C   UNL     1       1.227   7.038  21.212  0.00  0.00    +0.000 A 
ATOM     11  C   UNL     1       1.693   6.273  20.144  0.00  0.00    +0.000 A 
ATOM     12  C   UNL     1       2.046   6.883  18.917  0.00  0.00    +0.000 A 
ATOM     13  C   UNL     1       1.952   8.272  18.743  0.00  0.00    +0.000 A 
ATOM     14  C   UNL     1       1.493   9.040  19.796  0.00  0.00    +0.000 A 
ATOM     15  N   UNL     1       1.315  10.410  19.869  0.00  0.00    +0.000 N 
ATOM     16  C   UNL     1       1.560  11.389  18.842  0.00  0.00    +0.000 C 
ENDROOT
BRANCH  11  17
ATOM     17  S   UNL     1       2.031   4.536  20.363  0.00  0.00    +0.000 S 
ATOM     18  O   UNL     1       3.089   4.435  21.348  0.00  0.00    +0.000 OA
ATOM     19  O   UNL     1       0.748   3.906  20.579  0.00  0.00    +0.000 OA
BRANCH  17  20
ATOM     20  N   UNL     1       2.664   3.999  18.922  0.00  0.00    +0.000 NA
ATOM     21  C   UNL     1       1.834   3.501  17.822  0.00  0.00    +0.000 C 
ATOM     22  C   UNL     1       2.580   2.271  17.339  0.00  0.00    +0.000 C 
ATOM     23  C   UNL     1       4.047   2.625  17.548  0.00  0.00    +0.000 C 
ATOM     24  C   UNL     1       4.063   3.548  18.776  0.00  0.00    +0.000 C 
BRANCH  24  25
ATOM     25  C   UNL     1       5.077   4.735  18.674  0.00  0.00    +0.000 C 
BRANCH  25  26
ATOM     26  N   UNL     1       6.100   4.741  17.597  0.00  0.00    +0.000 NA
ATOM     27  C   UNL     1       5.984   5.865  16.640  0.00  0.00    +0.000 C 
ATOM     28  C   UNL     1       6.309   7.264  17.204  0.00  0.00    +0.000 C 
ATOM     29  N   UNL     1       7.639   7.342  17.820  0.00  0.00    +0.000 NA
ATOM     30  C   UNL     1       7.852   6.226  18.751  0.00  0.00    +0.000 C 
ATOM     31  C   UNL     1       7.468   4.837  18.176  0.00  0.00    +0.000 C 
ATOM     32  H   UNL     1       7.714   8.224  18.326  0.00  0.00    +0.000 HD
ENDBRANCH  25  26
ENDBRANCH  24  25
ENDBRANCH  17  20
ENDBRANCH  11  17
TORSDOF 4
ENDMDL
MODEL 4
REMARK VINA RESULT:      -8.1      2.932      8.604
REMARK  Name = 
REMARK  6 active torsions:
REMARK  status: ('A' for Active; 'I' for Inactive)
REMARK    1  A    between atoms: C_1  and  C_2
REMARK    2  A    between atoms: C_2  and  C_3
REMARK    3  A    between atoms: C_11  and  S_12
REMARK    4  A    between atoms: S_12  and  N_15
REMARK    5  A    between atoms: C_19  and  C_20
REMARK    6  A    between atoms: C_20  and  N_21
REMARK                            x       y       z     vdW  Elec       q    Type
REMARK                         _______ _______ _______ _____ _____    ______ ____
ROOT
ATOM      1  C   UNL     1       2.909   2.792  20.554  0.00  0.00    +0.000 C 
ATOM      2  C   UNL     1       2.480   4.067  19.808  0.00  0.00    +0.000 C 
ATOM      3  C   UNL     1       1.148   3.775  19.085  0.00  0.00    +0.000 C 
ATOM      4  C   UNL     1       3.577   4.474  18.792  0.00  0.00    +0.000 C 
ATOM      5  N   UNL     1       3.335   5.772  18.129  0.00  0.00    +0.000 NA
ATOM      6  C   UNL     1       2.675   6.617  18.840  0.00  0.00    +0.000 C 
ATOM      7  C   UNL     1       2.300   8.033  18.373  0.00  0.00    +0.000 C 
ATOM      8  O   UNL     1       2.560   8.584  17.329  0.00  0.00    +0.000 OA
ATOM      9  C   UNL     1       1.510   8.582  19.501  0.00  0.00    +0.000 A 
ATOM     10  C   UNL     1       0.924   9.829  19.631  0.00  0.00    +0.000 A 
ATOM     11  C   UNL     1       0.230  10.068  20.816  0.00  0.00    +0.000 A 
ATOM     12  C   UNL     1       0.144   9.074  21.818  0.00  0.00    +0.000 A 
ATOM     13  C   UNL     1       0.763   7.826  21.657  0.00  0.00    +0.000 A 
ATOM     14  C   UNL     1       1.456   7.578  20.488  0.00  0.00    +0.000 A 
ATOM     15  N   UNL     1       2.141   6.441  20.099  0.00  0.00    +0.000 N 
ATOM     16  C   UNL     1       2.298   5.210  20.830  0.00  0.00    +0.000 C 
ENDROOT
BRANCH  11  17
ATOM     17  S   UNL     1      -0.402  11.697  21.173  0.00  0.00    +0.000 S 
ATOM     18  O   UNL     1      -1.848  11.599  21.162  0.00  0.00    +0.000 OA
ATOM     19  O   UNL     1       0.306  12.149  22.350  0.00  0.00    +0.000 OA
BRANCH  17  20
ATOM     20  N   UNL     1       0.024  12.656  19.883  0.00  0.00    +0.000 NA
ATOM     21  C   UNL     1       1.234  13.482  19.866  0.00  0.00    +0.000 C 
ATOM     22  C   UNL     1       0.763  14.795  19.270  0.00  0.00    +0.000 C 
ATOM     23  C   UNL     1      -0.309  14.382  18.270  0.00  0.00    +0.000 C 
ATOM     24  C   UNL     1      -0.946  13.119  18.869  0.00  0.00    +0.000 C 
BRANCH  24  25
ATOM     25  C   UNL     1      -1.299  12.017  17.817  0.00  0.00    +0.000 C 
BRANCH  25  26
ATOM     26  N   UNL     1      -2.258  10.939  18.169  0.00  0.00    +0.000 NA
ATOM     27  C   UNL     1      -3.677  11.362  18.211  0.00  0.00    +0.000 C 
ATOM     28  C   UNL     1      -4.309  11.726  16.850  0.00  0.00    +0.000 C 
ATOM     29  N   UNL     1      -4.195  10.651  15.857  0.00  0.00    +0.000 NA
ATOM     30  C   UNL     1      -2.819  10.140  15.792  0.00  0.00    +0.000 C 
ATOM     31  C   UNL     1      -2.190   9.832  17.177  0.00  0.00    +0.000 C 
ATOM     32  H   UNL     1      -4.462  11.020  14.944  0.00  0.00    +0.000 HD
ENDBRANCH  25  26
ENDBRANCH  24  25
ENDBRANCH  17  20
ENDBRANCH  11  17
TORSDOF 4
ENDMDL
MODEL 5
REMARK VINA RESULT:      -8.0      1.156      1.558
REMARK  Name = 
REMARK  6 active torsions:
REMARK  status: ('A' for Active; 'I' for Inactive)
REMARK    1  A    between atoms: C_1  and  C_2
REMARK    2  A    between atoms: C_2  and  C_3
REMARK    3  A    between atoms: C_11  and  S_12
REMARK    4  A    between atoms: S_12  and  N_15
REMARK    5  A    between atoms: C_19  and  C_20
REMARK    6  A    between atoms: C_20  and  N_21
REMARK                            x       y       z     vdW  Elec       q    Type
REMARK                         _______ _______ _______ _____ _____    ______ ____
ROOT
ATOM      1  C   UNL     1      -0.508  14.009  18.338  0.00  0.00    +0.000 C 
ATOM      2  C   UNL     1      -0.595  12.718  19.169  0.00  0.00    +0.000 C 
ATOM      3  C   UNL     1      -1.893  11.980  18.775  0.00  0.00    +0.000 C 
ATOM      4  C   UNL     1      -0.601  13.065  20.679  0.00  0.00    +0.000 C 
ATOM      5  N   UNL     1      -0.529  11.889  21.570  0.00  0.00    +0.000 NA
ATOM      6  C   UNL     1       0.102  10.884  21.074  0.00  0.00    +0.000 C 
ATOM      7  C   UNL     1       0.313   9.547  21.805  0.00  0.00    +0.000 C 
ATOM      8  O   UNL     1      -0.034   9.226  22.918  0.00  0.00    +0.000 OA
ATOM      9  C   UNL     1       1.031   8.709  20.816  0.00  0.00    +0.000 A 
ATOM     10  C   UNL     1       1.486   7.408  20.940  0.00  0.00    +0.000 A 
ATOM     11  C   UNL     1       2.132   6.868  19.830  0.00  0.00    +0.000 A 
ATOM     12  C   UNL     1       2.304   7.629  18.650  0.00  0.00    +0.000 A 
ATOM     13  C   UNL     1       1.843   8.951  18.566  0.00  0.00    +0.000 A 
ATOM     14  C   UNL     1       1.202   9.499  19.661  0.00  0.00    +0.000 A 
ATOM     15  N   UNL     1       0.666  10.764  19.821  0.00  0.00    +0.000 N 
ATOM     16  C   UNL     1       0.637  11.839  18.864  0.00  0.00    +0.000 C 
ENDROOT
BRANCH  11  17
ATOM     17  S   UNL     1       2.922   5.273  19.939  0.00  0.00    +0.000 S 
ATOM     18  O   UNL     1       4.288   5.508  20.362  0.00  0.00    +0.000 OA
ATOM     19  O   UNL     1       2.032   4.442  20.720  0.00  0.00    +0.000 OA
BRANCH  17  20
ATOM     20  N   UNL     1       2.995   4.680  18.387  0.00  0.00    +0.000 NA
ATOM     21  C   UNL     1       1.843   4.086  17.704  0.00  0.00    +0.000 C 
ATOM     22  C   UNL     1       2.425   2.863  17.020  0.00  0.00    +0.000 C 
ATOM     23  C   UNL     1       3.838   3.290  16.642  0.00  0.00    +0.000 C 
ATOM     24  C   UNL     1       4.260   4.282  17.737  0.00  0.00    +0.000 C 
BRANCH  24  25
ATOM     25  C   UNL     1       5.086   5.502  17.213  0.00  0.00    +0.000 C 
BRANCH  25  26
ATOM     26  N   UNL     1       6.514   5.323  16.843  0.00  0.00    +0.000 NA
ATOM     27  C   UNL     1       7.239   6.581  16.550  0.00  0.00    +0.000 C 
ATOM     28  C   UNL     1       7.482   7.513  17.755  0.00  0.00    +0.000 C 
ATOM     29  N   UNL     1       8.177   6.849  18.865  0.00  0.00    +0.000 NA
ATOM     30  C   UNL     1       7.544   5.562  19.185  0.00  0.00    +0.000 C 
ATOM     31  C   UNL     1       7.263   4.668  17.949  0.00  0.00    +0.000 C 
ATOM     32  H   UNL     1       8.140   7.457  19.683  0.00  0.00    +0.000 HD
ENDBRANCH  25  26
ENDBRANCH  24  25
ENDBRANCH  17  20
ENDBRANCH  11  17
TORSDOF 4
ENDMDL
MODEL 6
REMARK VINA RESULT:      -7.9      2.202      9.123
REMARK  Name = 
REMARK  6 active torsions:
REMARK  status: ('A' for Active; 'I' for Inactive)
REMARK    1  A    between atoms: C_1  and  C_2
REMARK    2  A    between atoms: C_2  and  C_3
REMARK    3  A    between atoms: C_11  and  S_12
REMARK    4  A    between atoms: S_12  and  N_15
REMARK    5  A    between atoms: C_19  and  C_20
REMARK    6  A    between atoms: C_20  and  N_21
REMARK                            x       y       z     vdW  Elec       q    Type
REMARK                         _______ _______ _______ _____ _____    ______ ____
ROOT
ATOM      1  C   UNL     1       5.623   4.154  15.795  0.00  0.00    +0.000 C 
ATOM      2  C   UNL     1       5.074   4.535  17.180  0.00  0.00    +0.000 C 
ATOM      3  C   UNL     1       6.242   5.090  18.024  0.00  0.00    +0.000 C 
ATOM      4  C   UNL     1       4.453   3.289  17.859  0.00  0.00    +0.000 C 
ATOM      5  N   UNL     1       3.759   3.575  19.132  0.00  0.00    +0.000 NA
ATOM      6  C   UNL     1       3.249   4.754  19.205  0.00  0.00    +0.000 C 
ATOM      7  C   UNL     1       2.478   5.290  20.423  0.00  0.00    +0.000 C 
ATOM      8  O   UNL     1       2.209   4.728  21.459  0.00  0.00    +0.000 OA
ATOM      9  C   UNL     1       2.149   6.686  20.051  0.00  0.00    +0.000 A 
ATOM     10  C   UNL     1       1.452   7.640  20.771  0.00  0.00    +0.000 A 
ATOM     11  C   UNL     1       1.296   8.885  20.164  0.00  0.00    +0.000 A 
ATOM     12  C   UNL     1       1.831   9.136  18.879  0.00  0.00    +0.000 A 
ATOM     13  C   UNL     1       2.520   8.139  18.172  0.00  0.00    +0.000 A 
ATOM     14  C   UNL     1       2.679   6.900  18.763  0.00  0.00    +0.000 A 
ATOM     15  N   UNL     1       3.310   5.770  18.274  0.00  0.00    +0.000 N 
ATOM     16  C   UNL     1       3.977   5.608  17.009  0.00  0.00    +0.000 C 
ENDROOT
BRANCH  11  17
ATOM     17  S   UNL     1       0.259  10.126  20.914  0.00  0.00    +0.000 S 
ATOM     18  O   UNL     1      -0.494   9.468  21.963  0.00  0.00    +0.000 OA
ATOM     19  O   UNL     1       1.127  11.245  21.208  0.00  0.00    +0.000 OA
BRANCH  17  20
ATOM     20  N   UNL     1      -0.838  10.584  19.750  0.00  0.00    +0.000 NA
ATOM     21  C   UNL     1      -1.448   9.639  18.811  0.00  0.00    +0.000 C 
ATOM     22  C   UNL     1      -1.400  10.372  17.484  0.00  0.00    +0.000 C 
ATOM     23  C   UNL     1      -1.592  11.835  17.865  0.00  0.00    +0.000 C 
ATOM     24  C   UNL     1      -0.954  11.971  19.256  0.00  0.00    +0.000 C 
BRANCH  24  25
ATOM     25  C   UNL     1      -1.742  12.902  20.235  0.00  0.00    +0.000 C 
BRANCH  25  26
ATOM     26  N   UNL     1      -2.756  12.321  21.151  0.00  0.00    +0.000 NA
ATOM     27  C   UNL     1      -2.530  12.607  22.587  0.00  0.00    +0.000 C 
ATOM     28  C   UNL     1      -2.722  14.076  23.017  0.00  0.00    +0.000 C 
ATOM     29  N   UNL     1      -4.040  14.614  22.661  0.00  0.00    +0.000 NA
ATOM     30  C   UNL     1      -4.362  14.325  21.256  0.00  0.00    +0.000 C 
ATOM     31  C   UNL     1      -4.111  12.852  20.837  0.00  0.00    +0.000 C 
ATOM     32  H   UNL     1      -4.032  15.623  22.804  0.00  0.00    +0.000 HD
ENDBRANCH  25  26
ENDBRANCH  24  25
ENDBRANCH  17  20
ENDBRANCH  11  17
TORSDOF 4
ENDMDL
MODEL 7
REMARK VINA RESULT:      -7.9      1.862      2.778
REMARK  Name = 
REMARK  6 active torsions:
REMARK  status: ('A' for Active; 'I' for Inactive)
REMARK    1  A    between atoms: C_1  and  C_2
REMARK    2  A    between atoms: C_2  and  C_3
REMARK    3  A    between atoms: C_11  and  S_12
REMARK    4  A    between atoms: S_12  and  N_15
REMARK    5  A    between atoms: C_19  and  C_20
REMARK    6  A    between atoms: C_20  and  N_21
REMARK                            x       y       z     vdW  Elec       q    Type
REMARK                         _______ _______ _______ _____ _____    ______ ____
ROOT
ATOM      1  C   UNL     1       0.241  14.317  21.432  0.00  0.00    +0.000 C 
ATOM      2  C   UNL     1       0.990  13.216  20.663  0.00  0.00    +0.000 C 
ATOM      3  C   UNL     1       2.484  13.294  21.047  0.00  0.00    +0.000 C 
ATOM      4  C   UNL     1       0.806  13.422  19.139  0.00  0.00    +0.000 C 
ATOM      5  N   UNL     1       1.359  12.332  18.309  0.00  0.00    +0.000 NA
ATOM      6  C   UNL     1       1.352  11.177  18.877  0.00  0.00    +0.000 C 
ATOM      7  C   UNL     1       1.872   9.887  18.220  0.00  0.00    +0.000 C 
ATOM      8  O   UNL     1       2.331   9.729  17.113  0.00  0.00    +0.000 OA
ATOM      9  C   UNL     1       1.705   8.859  19.274  0.00  0.00    +0.000 A 
ATOM     10  C   UNL     1       2.002   7.508  19.232  0.00  0.00    +0.000 A 
ATOM     11  C   UNL     1       1.740   6.777  20.389  0.00  0.00    +0.000 A 
ATOM     12  C   UNL     1       1.199   7.405  21.535  0.00  0.00    +0.000 A 
ATOM     13  C   UNL     1       0.897   8.775  21.537  0.00  0.00    +0.000 A 
ATOM     14  C   UNL     1       1.150   9.510  20.395  0.00  0.00    +0.000 A 
ATOM     15  N   UNL     1       0.941  10.856  20.153  0.00  0.00    +0.000 N 
ATOM     16  C   UNL     1       0.405  11.842  21.055  0.00  0.00    +0.000 C 
ENDROOT
BRANCH  11  17
ATOM     17  S   UNL     1       1.906   5.002  20.386  0.00  0.00    +0.000 S 
ATOM     18  O   UNL     1       2.872   4.668  21.413  0.00  0.00    +0.000 OA
ATOM     19  O   UNL     1       0.559   4.477  20.431  0.00  0.00    +0.000 OA
BRANCH  17  20
ATOM     20  N   UNL     1       2.596   4.599  18.928  0.00  0.00    +0.000 NA
ATOM     21  C   UNL     1       1.812   4.327  17.721  0.00  0.00    +0.000 C 
ATOM     22  C   UNL     1       2.486   3.106  17.124  0.00  0.00    +0.000 C 
ATOM     23  C   UNL     1       3.958   3.293  17.469  0.00  0.00    +0.000 C 
ATOM     24  C   UNL     1       3.960   4.044  18.809  0.00  0.00    +0.000 C 
BRANCH  24  25
ATOM     25  C   UNL     1       5.074   5.136  18.932  0.00  0.00    +0.000 C 
BRANCH  25  26
ATOM     26  N   UNL     1       6.495   4.770  18.700  0.00  0.00    +0.000 NA
ATOM     27  C   UNL     1       6.807   4.352  17.314  0.00  0.00    +0.000 C 
ATOM     28  C   UNL     1       6.731   5.462  16.244  0.00  0.00    +0.000 C 
ATOM     29  N   UNL     1       7.572   6.623  16.557  0.00  0.00    +0.000 NA
ATOM     30  C   UNL     1       7.356   7.069  17.940  0.00  0.00    +0.000 C 
ATOM     31  C   UNL     1       7.386   5.926  18.989  0.00  0.00    +0.000 C 
ATOM     32  H   UNL     1       7.336   7.380  15.917  0.00  0.00    +0.000 HD
ENDBRANCH  25  26
ENDBRANCH  24  25
ENDBRANCH  17  20
ENDBRANCH  11  17
TORSDOF 4
ENDMDL
MODEL 8
REMARK VINA RESULT:      -7.8      1.983      9.042
REMARK  Name = 
REMARK  6 active torsions:
REMARK  status: ('A' for Active; 'I' for Inactive)
REMARK    1  A    between atoms: C_1  and  C_2
REMARK    2  A    between atoms: C_2  and  C_3
REMARK    3  A    between atoms: C_11  and  S_12
REMARK    4  A    between atoms: S_12  and  N_15
REMARK    5  A    between atoms: C_19  and  C_20
REMARK    6  A    between atoms: C_20  and  N_21
REMARK                            x       y       z     vdW  Elec       q    Type
REMARK                         _______ _______ _______ _____ _____    ______ ____
ROOT
ATOM      1  C   UNL     1       6.034   4.645  15.314  0.00  0.00    +0.000 C 
ATOM      2  C   UNL     1       5.419   4.666  16.723  0.00  0.00    +0.000 C 
ATOM      3  C   UNL     1       6.536   5.017  17.729  0.00  0.00    +0.000 C 
ATOM      4  C   UNL     1       4.806   3.281  17.049  0.00  0.00    +0.000 C 
ATOM      5  N   UNL     1       4.054   3.235  18.319  0.00  0.00    +0.000 NA
ATOM      6  C   UNL     1       3.508   4.350  18.654  0.00  0.00    +0.000 C 
ATOM      7  C   UNL     1       2.674   4.558  19.929  0.00  0.00    +0.000 C 
ATOM      8  O   UNL     1       2.379   3.755  20.784  0.00  0.00    +0.000 OA
ATOM      9  C   UNL     1       2.321   5.997  19.895  0.00  0.00    +0.000 A 
ATOM     10  C   UNL     1       1.569   6.733  20.792  0.00  0.00    +0.000 A 
ATOM     11  C   UNL     1       1.402   8.086  20.501  0.00  0.00    +0.000 A 
ATOM     12  C   UNL     1       1.982   8.654  19.342  0.00  0.00    +0.000 A 
ATOM     13  C   UNL     1       2.726   7.872  18.445  0.00  0.00    +0.000 A 
ATOM     14  C   UNL     1       2.896   6.529  18.723  0.00  0.00    +0.000 A 
ATOM     15  N   UNL     1       3.578   5.565  18.003  0.00  0.00    +0.000 N 
ATOM     16  C   UNL     1       4.300   5.729  16.769  0.00  0.00    +0.000 C 
ENDROOT
BRANCH  11  17
ATOM     17  S   UNL     1       0.301   9.087  21.482  0.00  0.00    +0.000 S 
ATOM     18  O   UNL     1      -0.815   8.242  21.856  0.00  0.00    +0.000 OA
ATOM     19  O   UNL     1       1.128   9.719  22.487  0.00  0.00    +0.000 OA
BRANCH  17  20
ATOM     20  N   UNL     1      -0.301  10.256  20.463  0.00  0.00    +0.000 NA
ATOM     21  C   UNL     1      -1.099   9.945  19.274  0.00  0.00    +0.000 C 
ATOM     22  C   UNL     1      -0.538  10.874  18.214  0.00  0.00    +0.000 C 
ATOM     23  C   UNL     1      -0.149  12.126  18.991  0.00  0.00    +0.000 C 
ATOM     24  C   UNL     1       0.260  11.620  20.382  0.00  0.00    +0.000 C 
BRANCH  24  25
ATOM     25  C   UNL     1      -0.202  12.538  21.561  0.00  0.00    +0.000 C 
BRANCH  25  26
ATOM     26  N   UNL     1      -1.383  13.423  21.389  0.00  0.00    +0.000 NA
ATOM     27  C   UNL     1      -2.686  12.776  21.665  0.00  0.00    +0.000 C 
ATOM     28  C   UNL     1      -2.953  12.405  23.139  0.00  0.00    +0.000 C 
ATOM     29  N   UNL     1      -2.823  13.546  24.053  0.00  0.00    +0.000 NA
ATOM     30  C   UNL     1      -1.571  14.275  23.807  0.00  0.00    +0.000 C 
ATOM     31  C   UNL     1      -1.302  14.589  22.311  0.00  0.00    +0.000 C 
ATOM     32  H   UNL     1      -2.830  13.200  25.012  0.00  0.00    +0.000 HD
ENDBRANCH  25  26
ENDBRANCH  24  25
ENDBRANCH  17  20
ENDBRANCH  11  17
TORSDOF 4
ENDMDL
MODEL 9
REMARK VINA RESULT:      -7.7      2.132      8.438
REMARK  Name = 
REMARK  6 active torsions:
REMARK  status: ('A' for Active; 'I' for Inactive)
REMARK    1  A    between atoms: C_1  and  C_2
REMARK    2  A    between atoms: C_2  and  C_3
REMARK    3  A    between atoms: C_11  and  S_12
REMARK    4  A    between atoms: S_12  and  N_15
REMARK    5  A    between atoms: C_19  and  C_20
REMARK    6  A    between atoms: C_20  and  N_21
REMARK                            x       y       z     vdW  Elec       q    Type
REMARK                         _______ _______ _______ _____ _____    ______ ____
ROOT
ATOM      1  C   UNL     1       6.224   5.148  14.955  0.00  0.00    +0.000 C 
ATOM      2  C   UNL     1       5.663   5.169  16.387  0.00  0.00    +0.000 C 
ATOM      3  C   UNL     1       6.780   5.661  17.332  0.00  0.00    +0.000 C 
ATOM      4  C   UNL     1       5.194   3.749  16.788  0.00  0.00    +0.000 C 
ATOM      5  N   UNL     1       4.498   3.686  18.090  0.00  0.00    +0.000 NA
ATOM      6  C   UNL     1       3.864   4.760  18.405  0.00  0.00    +0.000 C 
ATOM      7  C   UNL     1       3.063   4.942  19.705  0.00  0.00    +0.000 C 
ATOM      8  O   UNL     1       2.876   4.152  20.600  0.00  0.00    +0.000 OA
ATOM      9  C   UNL     1       2.577   6.341  19.632  0.00  0.00    +0.000 A 
ATOM     10  C   UNL     1       1.795   7.042  20.532  0.00  0.00    +0.000 A 
ATOM     11  C   UNL     1       1.494   8.361  20.198  0.00  0.00    +0.000 A 
ATOM     12  C   UNL     1       1.974   8.931  18.996  0.00  0.00    +0.000 A 
ATOM     13  C   UNL     1       2.753   8.185  18.099  0.00  0.00    +0.000 A 
ATOM     14  C   UNL     1       3.056   6.875  18.419  0.00  0.00    +0.000 A 
ATOM     15  N   UNL     1       3.797   5.948  17.708  0.00  0.00    +0.000 N 
ATOM     16  C   UNL     1       4.454   6.128  16.439  0.00  0.00    +0.000 C 
ENDROOT
BRANCH  11  17
ATOM     17  S   UNL     1       0.342   9.297  21.187  0.00  0.00    +0.000 S 
ATOM     18  O   UNL     1      -0.690   8.375  21.616  0.00  0.00    +0.000 OA
ATOM     19  O   UNL     1       1.143  10.022  22.149  0.00  0.00    +0.000 OA
BRANCH  17  20
ATOM     20  N   UNL     1      -0.382  10.384  20.157  0.00  0.00    +0.000 NA
ATOM     21  C   UNL     1      -1.407  10.000  19.183  0.00  0.00    +0.000 C 
ATOM     22  C   UNL     1      -1.011  10.758  17.930  0.00  0.00    +0.000 C 
ATOM     23  C   UNL     1      -0.417  12.058  18.458  0.00  0.00    +0.000 C 
ATOM     24  C   UNL     1       0.224  11.684  19.804  0.00  0.00    +0.000 C 
BRANCH  24  25
ATOM     25  C   UNL     1       0.045  12.763  20.922  0.00  0.00    +0.000 C 
BRANCH  25  26
ATOM     26  N   UNL     1       1.240  13.396  21.535  0.00  0.00    +0.000 NA
ATOM     27  C   UNL     1       2.401  13.535  20.627  0.00  0.00    +0.000 C 
ATOM     28  C   UNL     1       2.235  14.548  19.474  0.00  0.00    +0.000 C 
ATOM     29  N   UNL     1       1.869  15.892  19.937  0.00  0.00    +0.000 NA
ATOM     30  C   UNL     1       0.750  15.834  20.887  0.00  0.00    +0.000 C 
ATOM     31  C   UNL     1       0.921  14.772  22.005  0.00  0.00    +0.000 C 
ATOM     32  H   UNL     1       1.599  16.453  19.129  0.00  0.00    +0.000 HD
ENDBRANCH  25  26
ENDBRANCH  24  25
ENDBRANCH  17  20
ENDBRANCH  11  17
TORSDOF 4
ENDMDL
