MODEL 1
REMARK VINA RESULT:      -8.1      0.000      0.000
REMARK  Name = 
REMARK  7 active torsions:
REMARK  status: ('A' for Active; 'I' for Inactive)
REMARK    1  A    between atoms: C_1  and  C_2
REMARK    2  A    between atoms: C_2  and  C_3
REMARK    3  A    between atoms: C_4  and  C_5
REMARK    4  A    between atoms: C_4  and  C_6
REMARK    5  A    between atoms: N_8  and  C_9
REMARK    6  A    between atoms: C_9  and  C_10
REMARK    7  A    between atoms: C_10  and  C_11
REMARK                            x       y       z     vdW  Elec       q    Type
REMARK                         _______ _______ _______ _____ _____    ______ ____
ROOT
ATOM      1  C   UNL     1       6.974   4.305  16.380  0.00  0.00    +0.000 C 
ENDROOT
BRANCH   1   2
ATOM      2  C   UNL     1       5.778   4.872  17.080  0.00  0.00    +0.000 A 
ATOM      3  C   UNL     1       5.268   6.140  16.896  0.00  0.00    +0.000 A 
ATOM      4  S   UNL     1       3.875   6.359  17.849  0.00  0.00    +0.000 S 
ATOM      5  C   UNL     1       4.021   4.738  18.460  0.00  0.00    +0.000 A 
ATOM      6  N   UNL     1       3.118   4.229  19.348  0.00  0.00    +0.000 N 
ATOM      7  C   UNL     1       3.300   2.901  19.922  0.00  0.00    +0.000 C 
ATOM      8  C   UNL     1       1.918   2.256  19.818  0.00  0.00    +0.000 C 
ATOM      9  C   UNL     1       0.970   3.435  19.953  0.00  0.00    +0.000 C 
ATOM     10  C   UNL     1       1.698   4.563  19.229  0.00  0.00    +0.000 C 
ATOM     11  N   UNL     1       5.076   4.095  17.994  0.00  0.00    +0.000 NA
ENDBRANCH   1   2
BRANCH   1  12
ATOM     12  C   UNL     1       7.057   4.783  14.928  0.00  0.00    +0.000 C 
BRANCH  12  15
ATOM     13  C   UNL     1       6.521   3.892  12.681  0.00  0.00    +0.000 C 
ATOM     14  O   UNL     1       7.503   4.434  12.180  0.00  0.00    +0.000 OA
ATOM     15  N   UNL     1       6.237   3.991  14.023  0.00  0.00    +0.000 N 
ATOM     16  H   UNL     1       5.443   3.514  14.421  0.00  0.00    +0.000 HD
BRANCH  13  18
ATOM     17  C   UNL     1       4.407   3.675  11.488  0.00  0.00    +0.000 C 
ATOM     18  C   UNL     1       5.554   3.071  11.859  0.00  0.00    +0.000 C 
ATOM     19  C   UNL     1       5.899   1.652  11.517  0.00  0.00    +0.000 C 
BRANCH  17  21
ATOM     20  C   UNL     1       2.821   4.088   9.584  0.00  0.00    +0.000 C 
ATOM     21  C   UNL     1       3.309   3.102  10.633  0.00  0.00    +0.000 C 
ENDBRANCH  17  21
ENDBRANCH  13  18
ENDBRANCH  12  15
ENDBRANCH   1  12
TORSDOF 5
ENDMDL
MODEL 2
REMARK VINA RESULT:      -8.0      1.042      1.112
REMARK  Name = 
REMARK  7 active torsions:
REMARK  status: ('A' for Active; 'I' for Inactive)
REMARK    1  A    between atoms: C_1  and  C_2
REMARK    2  A    between atoms: C_2  and  C_3
REMARK    3  A    between atoms: C_4  and  C_5
REMARK    4  A    between atoms: C_4  and  C_6
REMARK    5  A    between atoms: N_8  and  C_9
REMARK    6  A    between atoms: C_9  and  C_10
REMARK    7  A    between atoms: C_10  and  C_11
REMARK                            x       y       z     vdW  Elec       q    Type
REMARK                         _______ _______ _______ _____ _____    ______ ____
ROOT
ATOM      1  C   UNL     1       5.942   5.697  15.659  0.00  0.00    +0.000 C 
ENDROOT
BRANCH   1   2
ATOM      2  C   UNL     1       5.498   5.301  17.033  0.00  0.00    +0.000 A 
ATOM      3  C   UNL     1       6.004   5.801  18.213  0.00  0.00    +0.000 A 
ATOM      4  S   UNL     1       5.186   5.120  19.541  0.00  0.00    +0.000 S 
ATOM      5  C   UNL     1       4.187   4.189  18.466  0.00  0.00    +0.000 A 
ATOM      6  N   UNL     1       3.213   3.358  18.940  0.00  0.00    +0.000 N 
ATOM      7  C   UNL     1       2.442   2.515  18.034  0.00  0.00    +0.000 C 
ATOM      8  C   UNL     1       0.997   2.689  18.502  0.00  0.00    +0.000 C 
ATOM      9  C   UNL     1       1.137   2.925  19.996  0.00  0.00    +0.000 C 
ATOM     10  C   UNL     1       2.420   3.743  20.108  0.00  0.00    +0.000 C 
ATOM     11  N   UNL     1       4.484   4.363  17.191  0.00  0.00    +0.000 NA
ENDBRANCH   1   2
BRANCH   1  12
ATOM     12  C   UNL     1       6.739   4.580  14.979  0.00  0.00    +0.000 C 
BRANCH  12  15
ATOM     13  C   UNL     1       6.395   3.677  12.700  0.00  0.00    +0.000 C 
ATOM     14  O   UNL     1       7.483   4.099  12.317  0.00  0.00    +0.000 OA
ATOM     15  N   UNL     1       5.958   3.847  13.992  0.00  0.00    +0.000 N 
ATOM     16  H   UNL     1       5.075   3.466  14.295  0.00  0.00    +0.000 HD
BRANCH  13  18
ATOM     17  C   UNL     1       4.287   3.536  11.483  0.00  0.00    +0.000 C 
ATOM     18  C   UNL     1       5.457   2.932  11.777  0.00  0.00    +0.000 C 
ATOM     19  C   UNL     1       5.853   1.581  11.259  0.00  0.00    +0.000 C 
BRANCH  17  21
ATOM     20  C   UNL     1       2.893   4.030   9.453  0.00  0.00    +0.000 C 
ATOM     21  C   UNL     1       3.209   3.037  10.559  0.00  0.00    +0.000 C 
ENDBRANCH  17  21
ENDBRANCH  13  18
ENDBRANCH  12  15
ENDBRANCH   1  12
TORSDOF 5
ENDMDL
MODEL 3
REMARK VINA RESULT:      -7.5      1.084      2.008
REMARK  Name = 
REMARK  7 active torsions:
REMARK  status: ('A' for Active; 'I' for Inactive)
REMARK    1  A    between atoms: C_1  and  C_2
REMARK    2  A    between atoms: C_2  and  C_3
REMARK    3  A    between atoms: C_4  and  C_5
REMARK    4  A    between atoms: C_4  and  C_6
REMARK    5  A    between atoms: N_8  and  C_9
REMARK    6  A    between atoms: C_9  and  C_10
REMARK    7  A    between atoms: C_10  and  C_11
REMARK                            x       y       z     vdW  Elec       q    Type
REMARK                         _______ _______ _______ _____ _____    ______ ____
ROOT
ATOM      1  C   UNL     1       5.744   6.009  15.582  0.00  0.00    +0.000 C 
ENDROOT
BRANCH   1   2
ATOM      2  C   UNL     1       4.763   5.992  16.712  0.00  0.00    +0.000 A 
ATOM      3  C   UNL     1       4.201   7.105  17.302  0.00  0.00    +0.000 A 
ATOM      4  S   UNL     1       3.100   6.638  18.513  0.00  0.00    +0.000 S 
ATOM      5  C   UNL     1       3.426   4.963  18.183  0.00  0.00    +0.000 A 
ATOM      6  N   UNL     1       2.793   3.966  18.869  0.00  0.00    +0.000 N 
ATOM      7  C   UNL     1       3.140   2.568  18.646  0.00  0.00    +0.000 C 
ATOM      8  C   UNL     1       1.789   1.861  18.536  0.00  0.00    +0.000 C 
ATOM      9  C   UNL     1       0.889   2.680  19.445  0.00  0.00    +0.000 C 
ATOM     10  C   UNL     1       1.386   4.108  19.245  0.00  0.00    +0.000 C 
ATOM     11  N   UNL     1       4.334   4.780  17.242  0.00  0.00    +0.000 NA
ENDBRANCH   1   2
BRANCH   1  12
ATOM     12  C   UNL     1       6.502   4.683  15.472  0.00  0.00    +0.000 C 
BRANCH  12  15
ATOM     13  C   UNL     1       6.441   3.931  13.114  0.00  0.00    +0.000 C 
ATOM     14  O   UNL     1       7.321   4.724  12.790  0.00  0.00    +0.000 OA
ATOM     15  N   UNL     1       5.993   3.827  14.410  0.00  0.00    +0.000 N 
ATOM     16  H   UNL     1       5.292   3.148  14.662  0.00  0.00    +0.000 HD
BRANCH  13  18
ATOM     17  C   UNL     1       6.512   1.938  11.713  0.00  0.00    +0.000 C 
ATOM     18  C   UNL     1       5.790   3.006  12.112  0.00  0.00    +0.000 C 
ATOM     19  C   UNL     1       4.414   3.319  11.605  0.00  0.00    +0.000 C 
BRANCH  17  21
ATOM     20  C   UNL     1       6.144  -0.528  11.414  0.00  0.00    +0.000 C 
ATOM     21  C   UNL     1       6.083   0.847  10.770  0.00  0.00    +0.000 C 
ENDBRANCH  17  21
ENDBRANCH  13  18
ENDBRANCH  12  15
ENDBRANCH   1  12
TORSDOF 5
ENDMDL
MODEL 4
REMARK VINA RESULT:      -7.5      1.488      2.062
REMARK  Name = 
REMARK  7 active torsions:
REMARK  status: ('A' for Active; 'I' for Inactive)
REMARK    1  A    between atoms: C_1  and  C_2
REMARK    2  A    between atoms: C_2  and  C_3
REMARK    3  A    between atoms: C_4  and  C_5
REMARK    4  A    between atoms: C_4  and  C_6
REMARK    5  A    between atoms: N_8  and  C_9
REMARK    6  A    between atoms: C_9  and  C_10
REMARK    7  A    between atoms: C_10  and  C_11
REMARK                            x       y       z     vdW  Elec       q    Type
REMARK                         _______ _______ _______ _____ _____    ______ ____
ROOT
ATOM      1  C   UNL     1       6.998   6.121  17.895  0.00  0.00    +0.000 C 
ENDROOT
BRANCH   1   2
ATOM      2  C   UNL     1       5.508   6.105  18.041  0.00  0.00    +0.000 A 
ATOM      3  C   UNL     1       4.642   7.042  17.520  0.00  0.00    +0.000 A 
ATOM      4  S   UNL     1       3.032   6.619  17.875  0.00  0.00    +0.000 S 
ATOM      5  C   UNL     1       3.575   5.193  18.707  0.00  0.00    +0.000 A 
ATOM      6  N   UNL     1       2.692   4.321  19.274  0.00  0.00    +0.000 N 
ATOM      7  C   UNL     1       3.162   3.176  20.046  0.00  0.00    +0.000 C 
ATOM      8  C   UNL     1       2.310   2.011  19.543  0.00  0.00    +0.000 C 
ATOM      9  C   UNL     1       0.993   2.672  19.173  0.00  0.00    +0.000 C 
ATOM     10  C   UNL     1       1.420   4.026  18.614  0.00  0.00    +0.000 C 
ATOM     11  N   UNL     1       4.890   5.073  18.739  0.00  0.00    +0.000 NA
ENDBRANCH   1   2
BRANCH   1  12
ATOM     12  C   UNL     1       7.521   4.811  17.299  0.00  0.00    +0.000 C 
BRANCH  12  15
ATOM     13  C   UNL     1       6.400   4.102  15.210  0.00  0.00    +0.000 C 
ATOM     14  O   UNL     1       5.500   3.540  15.828  0.00  0.00    +0.000 OA
ATOM     15  N   UNL     1       7.420   4.768  15.848  0.00  0.00    +0.000 N 
ATOM     16  H   UNL     1       8.133   5.249  15.322  0.00  0.00    +0.000 HD
BRANCH  13  18
ATOM     17  C   UNL     1       5.566   3.312  13.060  0.00  0.00    +0.000 C 
ATOM     18  C   UNL     1       6.450   4.106  13.698  0.00  0.00    +0.000 C 
ATOM     19  C   UNL     1       7.466   4.958  12.998  0.00  0.00    +0.000 C 
BRANCH  17  21
ATOM     20  C   UNL     1       3.917   3.308  11.165  0.00  0.00    +0.000 C 
ATOM     21  C   UNL     1       5.374   3.171  11.574  0.00  0.00    +0.000 C 
ENDBRANCH  17  21
ENDBRANCH  13  18
ENDBRANCH  12  15
ENDBRANCH   1  12
TORSDOF 5
ENDMDL
MODEL 5
REMARK VINA RESULT:      -7.3      1.032      1.914
REMARK  Name = 
REMARK  7 active torsions:
REMARK  status: ('A' for Active; 'I' for Inactive)
REMARK    1  A    between atoms: C_1  and  C_2
REMARK    2  A    between atoms: C_2  and  C_3
REMARK    3  A    between atoms: C_4  and  C_5
REMARK    4  A    between atoms: C_4  and  C_6
REMARK    5  A    between atoms: N_8  and  C_9
REMARK    6  A    between atoms: C_9  and  C_10
REMARK    7  A    between atoms: C_10  and  C_11
REMARK                            x       y       z     vdW  Elec       q    Type
REMARK                         _______ _______ _______ _____ _____    ______ ____
ROOT
ATOM      1  C   UNL     1       6.853   4.357  16.440  0.00  0.00    +0.000 C 
ENDROOT
BRANCH   1   2
ATOM      2  C   UNL     1       5.856   4.657  17.516  0.00  0.00    +0.000 A 
ATOM      3  C   UNL     1       5.775   5.835  18.226  0.00  0.00    +0.000 A 
ATOM      4  S   UNL     1       4.469   5.778  19.317  0.00  0.00    +0.000 S 
ATOM      5  C   UNL     1       4.072   4.173  18.778  0.00  0.00    +0.000 A 
ATOM      6  N   UNL     1       3.009   3.492  19.297  0.00  0.00    +0.000 N 
ATOM      7  C   UNL     1       2.739   2.114  18.903  0.00  0.00    +0.000 C 
ATOM      8  C   UNL     1       1.233   2.088  18.643  0.00  0.00    +0.000 C 
ATOM      9  C   UNL     1       0.691   3.121  19.617  0.00  0.00    +0.000 C 
ATOM     10  C   UNL     1       1.772   4.198  19.630  0.00  0.00    +0.000 C 
ATOM     11  N   UNL     1       4.899   3.709  17.860  0.00  0.00    +0.000 NA
ENDBRANCH   1   2
BRANCH   1  12
ATOM     12  C   UNL     1       6.463   5.010  15.111  0.00  0.00    +0.000 C 
BRANCH  12  15
ATOM     13  C   UNL     1       6.472   3.964  12.867  0.00  0.00    +0.000 C 
ATOM     14  O   UNL     1       7.416   4.657  12.496  0.00  0.00    +0.000 OA
ATOM     15  N   UNL     1       5.954   4.054  14.137  0.00  0.00    +0.000 N 
ATOM     16  H   UNL     1       5.199   3.454  14.433  0.00  0.00    +0.000 HD
BRANCH  13  18
ATOM     17  C   UNL     1       6.577   1.924  11.538  0.00  0.00    +0.000 C 
ATOM     18  C   UNL     1       5.814   2.956  11.953  0.00  0.00    +0.000 C 
ATOM     19  C   UNL     1       4.384   3.153  11.546  0.00  0.00    +0.000 C 
BRANCH  17  21
ATOM     20  C   UNL     1       6.104  -0.541  11.444  0.00  0.00    +0.000 C 
ATOM     21  C   UNL     1       6.156   0.767  10.672  0.00  0.00    +0.000 C 
ENDBRANCH  17  21
ENDBRANCH  13  18
ENDBRANCH  12  15
ENDBRANCH   1  12
TORSDOF 5
ENDMDL
MODEL 6
REMARK VINA RESULT:      -7.2      1.660      2.411
REMARK  Name = 
REMARK  7 active torsions:
REMARK  status: ('A' for Active; 'I' for Inactive)
REMARK    1  A    between atoms: C_1  and  C_2
REMARK    2  A    between atoms: C_2  and  C_3
REMARK    3  A    between atoms: C_4  and  C_5
REMARK    4  A    between atoms: C_4  and  C_6
REMARK    5  A    between atoms: N_8  and  C_9
REMARK    6  A    between atoms: C_9  and  C_10
REMARK    7  A    between atoms: C_10  and  C_11
REMARK                            x       y       z     vdW  Elec       q    Type
REMARK                         _______ _______ _______ _____ _____    ______ ____
ROOT
ATOM      1  C   UNL     1       7.123   5.536  18.951  0.00  0.00    +0.000 C 
ENDROOT
BRANCH   1   2
ATOM      2  C   UNL     1       5.647   5.635  18.717  0.00  0.00    +0.000 A 
ATOM      3  C   UNL     1       5.017   6.611  17.974  0.00  0.00    +0.000 A 
ATOM      4  S   UNL     1       3.341   6.322  17.921  0.00  0.00    +0.000 S 
ATOM      5  C   UNL     1       3.542   4.895  18.894  0.00  0.00    +0.000 A 
ATOM      6  N   UNL     1       2.477   4.114  19.239  0.00  0.00    +0.000 N 
ATOM      7  C   UNL     1       2.645   2.971  20.129  0.00  0.00    +0.000 C 
ATOM      8  C   UNL     1       1.855   1.851  19.453  0.00  0.00    +0.000 C 
ATOM      9  C   UNL     1       0.730   2.591  18.749  0.00  0.00    +0.000 C 
ATOM     10  C   UNL     1       1.391   3.886  18.286  0.00  0.00    +0.000 C 
ATOM     11  N   UNL     1       4.793   4.681  19.259  0.00  0.00    +0.000 NA
ENDBRANCH   1   2
BRANCH   1  12
ATOM     12  C   UNL     1       7.832   4.830  17.792  0.00  0.00    +0.000 C 
BRANCH  12  15
ATOM     13  C   UNL     1       6.928   4.701  15.491  0.00  0.00    +0.000 C 
ATOM     14  O   UNL     1       7.752   5.510  15.072  0.00  0.00    +0.000 OA
ATOM     15  N   UNL     1       6.907   4.294  16.804  0.00  0.00    +0.000 N 
ATOM     16  H   UNL     1       6.242   3.606  17.122  0.00  0.00    +0.000 HD
BRANCH  13  18
ATOM     17  C   UNL     1       6.224   3.898  13.300  0.00  0.00    +0.000 C 
ATOM     18  C   UNL     1       5.879   4.089  14.591  0.00  0.00    +0.000 C 
ATOM     19  C   UNL     1       4.532   3.749  15.155  0.00  0.00    +0.000 C 
BRANCH  17  21
ATOM     20  C   UNL     1       6.061   2.045  11.612  0.00  0.00    +0.000 C 
ATOM     21  C   UNL     1       5.390   3.268  12.217  0.00  0.00    +0.000 C 
ENDBRANCH  17  21
ENDBRANCH  13  18
ENDBRANCH  12  15
ENDBRANCH   1  12
TORSDOF 5
ENDMDL
MODEL 7
REMARK VINA RESULT:      -7.2      1.068      1.666
REMARK  Name = 
REMARK  7 active torsions:
REMARK  status: ('A' for Active; 'I' for Inactive)
REMARK    1  A    between atoms: C_1  and  C_2
REMARK    2  A    between atoms: C_2  and  C_3
REMARK    3  A    between atoms: C_4  and  C_5
REMARK    4  A    between atoms: C_4  and  C_6
REMARK    5  A    between atoms: N_8  and  C_9
REMARK    6  A    between atoms: C_9  and  C_10
REMARK    7  A    between atoms: C_10  and  C_11
REMARK                            x       y       z     vdW  Elec       q    Type
REMARK                         _______ _______ _______ _____ _____    ______ ____
ROOT
ATOM      1  C   UNL     1       6.367   6.094  16.878  0.00  0.00    +0.000 C 
ENDROOT
BRANCH   1   2
ATOM      2  C   UNL     1       5.038   6.141  17.566  0.00  0.00    +0.000 A 
ATOM      3  C   UNL     1       4.149   7.194  17.521  0.00  0.00    +0.000 A 
ATOM      4  S   UNL     1       2.741   6.815  18.398  0.00  0.00    +0.000 S 
ATOM      5  C   UNL     1       3.390   5.251  18.792  0.00  0.00    +0.000 A 
ATOM      6  N   UNL     1       2.682   4.355  19.540  0.00  0.00    +0.000 N 
ATOM      7  C   UNL     1       3.272   3.083  19.940  0.00  0.00    +0.000 C 
ATOM      8  C   UNL     1       2.175   2.057  19.657  0.00  0.00    +0.000 C 
ATOM      9  C   UNL     1       0.894   2.840  19.886  0.00  0.00    +0.000 C 
ATOM     10  C   UNL     1       1.234   4.236  19.372  0.00  0.00    +0.000 C 
ATOM     11  N   UNL     1       4.606   5.053  18.317  0.00  0.00    +0.000 NA
ENDBRANCH   1   2
BRANCH   1  12
ATOM     12  C   UNL     1       6.817   4.653  16.617  0.00  0.00    +0.000 C 
BRANCH  12  15
ATOM     13  C   UNL     1       7.165   4.760  14.168  0.00  0.00    +0.000 C 
ATOM     14  O   UNL     1       8.028   5.627  14.281  0.00  0.00    +0.000 OA
ATOM     15  N   UNL     1       6.535   4.210  15.259  0.00  0.00    +0.000 N 
ATOM     16  H   UNL     1       5.851   3.477  15.147  0.00  0.00    +0.000 HD
BRANCH  13  18
ATOM     17  C   UNL     1       5.748   3.312  12.813  0.00  0.00    +0.000 C 
ATOM     18  C   UNL     1       6.738   4.229  12.818  0.00  0.00    +0.000 C 
ATOM     19  C   UNL     1       7.429   4.720  11.582  0.00  0.00    +0.000 C 
BRANCH  17  21
ATOM     20  C   UNL     1       3.854   3.398  11.165  0.00  0.00    +0.000 C 
ATOM     21  C   UNL     1       5.109   2.667  11.613  0.00  0.00    +0.000 C 
ENDBRANCH  17  21
ENDBRANCH  13  18
ENDBRANCH  12  15
ENDBRANCH   1  12
TORSDOF 5
ENDMDL
MODEL 8
REMARK VINA RESULT:      -7.1      5.318      8.036
REMARK  Name = 
REMARK  7 active torsions:
REMARK  status: ('A' for Active; 'I' for Inactive)
REMARK    1  A    between atoms: C_1  and  C_2
REMARK    2  A    between atoms: C_2  and  C_3
REMARK    3  A    between atoms: C_4  and  C_5
REMARK    4  A    between atoms: C_4  and  C_6
REMARK    5  A    between atoms: N_8  and  C_9
REMARK    6  A    between atoms: C_9  and  C_10
REMARK    7  A    between atoms: C_10  and  C_11
REMARK                            x       y       z     vdW  Elec       q    Type
REMARK                         _______ _______ _______ _____ _____    ______ ____
ROOT
ATOM      1  C   UNL     1       7.831   6.624  18.334  0.00  0.00    +0.000 C 
ENDROOT
BRANCH   1   2
ATOM      2  C   UNL     1       6.760   5.878  17.602  0.00  0.00    +0.000 A 
ATOM      3  C   UNL     1       6.946   5.116  16.467  0.00  0.00    +0.000 A 
ATOM      4  S   UNL     1       5.477   4.401  15.990  0.00  0.00    +0.000 S 
ATOM      5  C   UNL     1       4.662   5.144  17.333  0.00  0.00    +0.000 A 
ATOM      6  N   UNL     1       3.331   4.943  17.557  0.00  0.00    +0.000 N 
ATOM      7  C   UNL     1       2.639   5.643  18.633  0.00  0.00    +0.000 C 
ATOM      8  C   UNL     1       1.802   4.556  19.307  0.00  0.00    +0.000 C 
ATOM      9  C   UNL     1       1.470   3.610  18.166  0.00  0.00    +0.000 C 
ATOM     10  C   UNL     1       2.731   3.632  17.307  0.00  0.00    +0.000 C 
ATOM     11  N   UNL     1       5.450   5.908  18.067  0.00  0.00    +0.000 NA
ENDBRANCH   1   2
BRANCH   1  12
ATOM     12  C   UNL     1       7.897   8.090  17.898  0.00  0.00    +0.000 C 
BRANCH  12  15
ATOM     13  C   UNL     1       8.912  10.250  18.557  0.00  0.00    +0.000 C 
ATOM     14  O   UNL     1       8.341  10.849  17.649  0.00  0.00    +0.000 OA
ATOM     15  N   UNL     1       8.736   8.903  18.768  0.00  0.00    +0.000 N 
ATOM     16  H   UNL     1       9.189   8.435  19.537  0.00  0.00    +0.000 HD
BRANCH  13  18
ATOM     17  C   UNL     1      11.060  11.298  19.037  0.00  0.00    +0.000 C 
ATOM     18  C   UNL     1       9.846  10.954  19.516  0.00  0.00    +0.000 C 
ATOM     19  C   UNL     1       9.398  11.213  20.923  0.00  0.00    +0.000 C 
BRANCH  17  21
ATOM     20  C   UNL     1      12.039  13.547  19.574  0.00  0.00    +0.000 C 
ATOM     21  C   UNL     1      12.148  12.043  19.762  0.00  0.00    +0.000 C 
ENDBRANCH  17  21
ENDBRANCH  13  18
ENDBRANCH  12  15
ENDBRANCH   1  12
TORSDOF 5
ENDMDL
MODEL 9
REMARK VINA RESULT:      -7.0      4.756      7.769
REMARK  Name = 
REMARK  7 active torsions:
REMARK  status: ('A' for Active; 'I' for Inactive)
REMARK    1  A    between atoms: C_1  and  C_2
REMARK    2  A    between atoms: C_2  and  C_3
REMARK    3  A    between atoms: C_4  and  C_5
REMARK    4  A    between atoms: C_4  and  C_6
REMARK    5  A    between atoms: N_8  and  C_9
REMARK    6  A    between atoms: C_9  and  C_10
REMARK    7  A    between atoms: C_10  and  C_11
REMARK                            x       y       z     vdW  Elec       q    Type
REMARK                         _______ _______ _______ _____ _____    ______ ____
ROOT
ATOM      1  C   UNL     1       3.838   2.329  20.572  0.00  0.00    +0.000 C 
ENDROOT
BRANCH   1   2
ATOM      2  C   UNL     1       4.215   3.058  19.319  0.00  0.00    +0.000 A 
ATOM      3  C   UNL     1       3.466   3.103  18.162  0.00  0.00    +0.000 A 
ATOM      4  S   UNL     1       4.233   4.083  17.001  0.00  0.00    +0.000 S 
ATOM      5  C   UNL     1       5.532   4.404  18.110  0.00  0.00    +0.000 A 
ATOM      6  N   UNL     1       6.575   5.216  17.768  0.00  0.00    +0.000 N 
ATOM      7  C   UNL     1       7.703   5.407  18.673  0.00  0.00    +0.000 C 
ATOM      8  C   UNL     1       7.945   6.916  18.654  0.00  0.00    +0.000 C 
ATOM      9  C   UNL     1       7.530   7.321  17.251  0.00  0.00    +0.000 C 
ATOM     10  C   UNL     1       6.344   6.409  16.953  0.00  0.00    +0.000 C 
ATOM     11  N   UNL     1       5.402   3.780  19.266  0.00  0.00    +0.000 NA
ENDBRANCH   1   2
BRANCH   1  12
ATOM     12  C   UNL     1       2.765   3.083  21.363  0.00  0.00    +0.000 C 
BRANCH  12  15
ATOM     13  C   UNL     1       1.651   5.141  20.558  0.00  0.00    +0.000 C 
ATOM     14  O   UNL     1       0.602   4.542  20.333  0.00  0.00    +0.000 OA
ATOM     15  N   UNL     1       2.754   4.512  21.083  0.00  0.00    +0.000 N 
ATOM     16  H   UNL     1       3.596   5.028  21.289  0.00  0.00    +0.000 HD
BRANCH  13  18
ATOM     17  C   UNL     1       1.196   7.464  21.139  0.00  0.00    +0.000 C 
ATOM     18  C   UNL     1       1.801   6.620  20.279  0.00  0.00    +0.000 C 
ATOM     19  C   UNL     1       2.582   7.067  19.079  0.00  0.00    +0.000 C 
BRANCH  17  21
ATOM     20  C   UNL     1       0.024   9.563  20.410  0.00  0.00    +0.000 C 
ATOM     21  C   UNL     1       1.231   8.969  21.117  0.00  0.00    +0.000 C 
ENDBRANCH  17  21
ENDBRANCH  13  18
ENDBRANCH  12  15
ENDBRANCH   1  12
TORSDOF 5
ENDMDL
