MODEL 1
REMARK VINA RESULT:      -7.6      0.000      0.000
REMARK  Name = 
REMARK  4 active torsions:
REMARK  status: ('A' for Active; 'I' for Inactive)
REMARK    1  A    between atoms: C_1  and  O_2
REMARK    2  A    between atoms: O_2  and  C_3
REMARK    3  A    between atoms: C_10  and  C_11
REMARK    4  A    between atoms: C_14  and  O_15
REMARK                            x       y       z     vdW  Elec       q    Type
REMARK                         _______ _______ _______ _____ _____    ______ ____
ROOT
ATOM      1  C   UNL     1       7.401   7.032  17.645  0.00  0.00    +0.000 A 
ATOM      2  C   UNL     1       7.801   6.225  18.713  0.00  0.00    +0.000 A 
ATOM      3  C   UNL     1       6.979   5.184  19.154  0.00  0.00    +0.000 A 
ATOM      4  C   UNL     1       5.746   4.967  18.536  0.00  0.00    +0.000 A 
ATOM      5  C   UNL     1       5.329   5.787  17.491  0.00  0.00    +0.000 A 
ATOM      6  C   UNL     1       6.163   6.808  17.037  0.00  0.00    +0.000 A 
ATOM      7  O   UNL     1       4.103   5.684  16.887  0.00  0.00    +0.000 OA
ATOM      8  C   UNL     1       3.097   5.027  17.688  0.00  0.00    +0.000 C 
ATOM      9  C   UNL     1       3.612   3.669  18.165  0.00  0.00    +0.000 C 
ATOM     10  C   UNL     1       4.872   3.858  18.960  0.00  0.00    +0.000 C 
ATOM     11  O   UNL     1       5.213   3.090  19.853  0.00  0.00    +0.000 OA
ENDROOT
BRANCH   8  12
ATOM     12  C   UNL     1       2.503   5.925  18.779  0.00  0.00    +0.000 A 
ATOM     13  C   UNL     1       2.041   5.408  20.003  0.00  0.00    +0.000 A 
ATOM     14  C   UNL     1       1.479   6.238  20.977  0.00  0.00    +0.000 A 
ATOM     15  C   UNL     1       1.405   7.605  20.747  0.00  0.00    +0.000 A 
ATOM     16  C   UNL     1       1.892   8.150  19.569  0.00  0.00    +0.000 A 
ATOM     17  C   UNL     1       2.444   7.317  18.592  0.00  0.00    +0.000 A 
BRANCH  15  18
ATOM     18  O   UNL     1       0.859   8.450  21.665  0.00  0.00    +0.000 OA
ATOM     19  H   UNL     1       0.668   7.945  22.473  0.00  0.00    +0.000 HD
ENDBRANCH  15  18
ENDBRANCH   8  12
BRANCH   1  21
ATOM     20  C   UNL     1       8.164   9.249  17.966  0.00  0.00    +0.000 C 
ATOM     21  O   UNL     1       8.107   8.090  17.144  0.00  0.00    +0.000 OA
ENDBRANCH   1  21
TORSDOF 3
ENDMDL
MODEL 2
REMARK VINA RESULT:      -7.5      0.114      1.083
REMARK  Name = 
REMARK  4 active torsions:
REMARK  status: ('A' for Active; 'I' for Inactive)
REMARK    1  A    between atoms: C_1  and  O_2
REMARK    2  A    between atoms: O_2  and  C_3
REMARK    3  A    between atoms: C_10  and  C_11
REMARK    4  A    between atoms: C_14  and  O_15
REMARK                            x       y       z     vdW  Elec       q    Type
REMARK                         _______ _______ _______ _____ _____    ______ ____
ROOT
ATOM      1  C   UNL     1       7.458   7.148  17.684  0.00  0.00    +0.000 A 
ATOM      2  C   UNL     1       7.847   6.353  18.765  0.00  0.00    +0.000 A 
ATOM      3  C   UNL     1       7.029   5.306  19.197  0.00  0.00    +0.000 A 
ATOM      4  C   UNL     1       5.811   5.070  18.557  0.00  0.00    +0.000 A 
ATOM      5  C   UNL     1       5.404   5.878  17.499  0.00  0.00    +0.000 A 
ATOM      6  C   UNL     1       6.234   6.906  17.054  0.00  0.00    +0.000 A 
ATOM      7  O   UNL     1       4.190   5.757  16.872  0.00  0.00    +0.000 OA
ATOM      8  C   UNL     1       3.177   5.094  17.659  0.00  0.00    +0.000 C 
ATOM      9  C   UNL     1       3.699   3.744  18.154  0.00  0.00    +0.000 C 
ATOM     10  C   UNL     1       4.941   3.953  18.971  0.00  0.00    +0.000 C 
ATOM     11  O   UNL     1       5.274   3.195  19.875  0.00  0.00    +0.000 OA
ENDROOT
BRANCH   8  12
ATOM     12  C   UNL     1       2.552   5.991  18.732  0.00  0.00    +0.000 A 
ATOM     13  C   UNL     1       2.430   7.382  18.564  0.00  0.00    +0.000 A 
ATOM     14  C   UNL     1       1.879   8.190  19.563  0.00  0.00    +0.000 A 
ATOM     15  C   UNL     1       1.412   7.604  20.731  0.00  0.00    +0.000 A 
ATOM     16  C   UNL     1       1.477   6.230  20.907  0.00  0.00    +0.000 A 
ATOM     17  C   UNL     1       2.037   5.426  19.912  0.00  0.00    +0.000 A 
BRANCH  15  18
ATOM     18  O   UNL     1       0.874   8.353  21.734  0.00  0.00    +0.000 OA
ATOM     19  H   UNL     1       0.929   9.289  21.483  0.00  0.00    +0.000 HD
ENDBRANCH  15  18
ENDBRANCH   8  12
BRANCH   1  21
ATOM     20  C   UNL     1       8.253   9.349  18.039  0.00  0.00    +0.000 C 
ATOM     21  O   UNL     1       8.161   8.212  17.190  0.00  0.00    +0.000 OA
ENDBRANCH   1  21
TORSDOF 3
ENDMDL
MODEL 3
REMARK VINA RESULT:      -6.9      2.864      6.348
REMARK  Name = 
REMARK  4 active torsions:
REMARK  status: ('A' for Active; 'I' for Inactive)
REMARK    1  A    between atoms: C_1  and  O_2
REMARK    2  A    between atoms: O_2  and  C_3
REMARK    3  A    between atoms: C_10  and  C_11
REMARK    4  A    between atoms: C_14  and  O_15
REMARK                            x       y       z     vdW  Elec       q    Type
REMARK                         _______ _______ _______ _____ _____    ______ ____
ROOT
ATOM      1  C   UNL     1       2.538   4.030  18.780  0.00  0.00    +0.000 A 
ATOM      2  C   UNL     1       3.550   3.298  19.404  0.00  0.00    +0.000 A 
ATOM      3  C   UNL     1       4.887   3.674  19.249  0.00  0.00    +0.000 A 
ATOM      4  C   UNL     1       5.208   4.772  18.449  0.00  0.00    +0.000 A 
ATOM      5  C   UNL     1       4.206   5.487  17.800  0.00  0.00    +0.000 A 
ATOM      6  C   UNL     1       2.872   5.125  17.978  0.00  0.00    +0.000 A 
ATOM      7  O   UNL     1       4.448   6.527  16.940  0.00  0.00    +0.000 OA
ATOM      8  C   UNL     1       5.774   6.531  16.369  0.00  0.00    +0.000 C 
ATOM      9  C   UNL     1       6.823   6.454  17.479  0.00  0.00    +0.000 C 
ATOM     10  C   UNL     1       6.607   5.210  18.291  0.00  0.00    +0.000 C 
ATOM     11  O   UNL     1       7.520   4.632  18.870  0.00  0.00    +0.000 OA
ENDROOT
BRANCH   8  12
ATOM     12  C   UNL     1       5.950   5.524  15.227  0.00  0.00    +0.000 A 
ATOM     13  C   UNL     1       4.894   4.709  14.780  0.00  0.00    +0.000 A 
ATOM     14  C   UNL     1       5.079   3.778  13.754  0.00  0.00    +0.000 A 
ATOM     15  C   UNL     1       6.319   3.679  13.139  0.00  0.00    +0.000 A 
ATOM     16  C   UNL     1       7.367   4.500  13.527  0.00  0.00    +0.000 A 
ATOM     17  C   UNL     1       7.183   5.423  14.560  0.00  0.00    +0.000 A 
BRANCH  15  18
ATOM     18  O   UNL     1       6.546   2.782  12.139  0.00  0.00    +0.000 OA
ATOM     19  H   UNL     1       7.289   3.100  11.602  0.00  0.00    +0.000 HD
ENDBRANCH  15  18
ENDBRANCH   8  12
BRANCH   1  21
ATOM     20  C   UNL     1       0.856   2.365  18.805  0.00  0.00    +0.000 C 
ATOM     21  O   UNL     1       1.202   3.744  18.840  0.00  0.00    +0.000 OA
ENDBRANCH   1  21
TORSDOF 3
ENDMDL
MODEL 4
REMARK VINA RESULT:      -6.8      1.743      1.997
REMARK  Name = 
REMARK  4 active torsions:
REMARK  status: ('A' for Active; 'I' for Inactive)
REMARK    1  A    between atoms: C_1  and  O_2
REMARK    2  A    between atoms: O_2  and  C_3
REMARK    3  A    between atoms: C_10  and  C_11
REMARK    4  A    between atoms: C_14  and  O_15
REMARK                            x       y       z     vdW  Elec       q    Type
REMARK                         _______ _______ _______ _____ _____    ______ ____
ROOT
ATOM      1  C   UNL     1       6.736   5.137  16.183  0.00  0.00    +0.000 A 
ATOM      2  C   UNL     1       7.382   4.816  17.379  0.00  0.00    +0.000 A 
ATOM      3  C   UNL     1       6.677   4.190  18.412  0.00  0.00    +0.000 A 
ATOM      4  C   UNL     1       5.320   3.907  18.250  0.00  0.00    +0.000 A 
ATOM      5  C   UNL     1       4.665   4.252  17.072  0.00  0.00    +0.000 A 
ATOM      6  C   UNL     1       5.376   4.853  16.034  0.00  0.00    +0.000 A 
ATOM      7  O   UNL     1       3.320   4.075  16.869  0.00  0.00    +0.000 OA
ATOM      8  C   UNL     1       2.544   3.973  18.082  0.00  0.00    +0.000 C 
ATOM      9  C   UNL     1       3.130   2.890  18.989  0.00  0.00    +0.000 C 
ATOM     10  C   UNL     1       4.559   3.220  19.310  0.00  0.00    +0.000 C 
ATOM     11  O   UNL     1       5.102   2.867  20.351  0.00  0.00    +0.000 OA
ENDROOT
BRANCH   8  12
ATOM     12  C   UNL     1       2.281   5.324  18.756  0.00  0.00    +0.000 A 
ATOM     13  C   UNL     1       1.871   5.422  20.098  0.00  0.00    +0.000 A 
ATOM     14  C   UNL     1       1.612   6.661  20.690  0.00  0.00    +0.000 A 
ATOM     15  C   UNL     1       1.796   7.821  19.950  0.00  0.00    +0.000 A 
ATOM     16  C   UNL     1       2.242   7.759  18.639  0.00  0.00    +0.000 A 
ATOM     17  C   UNL     1       2.490   6.519  18.046  0.00  0.00    +0.000 A 
BRANCH  15  18
ATOM     18  O   UNL     1       1.549   9.050  20.485  0.00  0.00    +0.000 OA
ATOM     19  H   UNL     1       1.953   9.722  19.912  0.00  0.00    +0.000 HD
ENDBRANCH  15  18
ENDBRANCH   8  12
BRANCH   1  21
ATOM     20  C   UNL     1       7.288   5.062  13.883  0.00  0.00    +0.000 C 
ATOM     21  O   UNL     1       7.314   5.769  15.117  0.00  0.00    +0.000 OA
ENDBRANCH   1  21
TORSDOF 3
ENDMDL
MODEL 5
REMARK VINA RESULT:      -6.8      1.870      2.394
REMARK  Name = 
REMARK  4 active torsions:
REMARK  status: ('A' for Active; 'I' for Inactive)
REMARK    1  A    between atoms: C_1  and  O_2
REMARK    2  A    between atoms: O_2  and  C_3
REMARK    3  A    between atoms: C_10  and  C_11
REMARK    4  A    between atoms: C_14  and  O_15
REMARK                            x       y       z     vdW  Elec       q    Type
REMARK                         _______ _______ _______ _____ _____    ______ ____
ROOT
ATOM      1  C   UNL     1       6.416   5.041  15.918  0.00  0.00    +0.000 A 
ATOM      2  C   UNL     1       7.170   4.746  17.057  0.00  0.00    +0.000 A 
ATOM      3  C   UNL     1       6.567   4.130  18.157  0.00  0.00    +0.000 A 
ATOM      4  C   UNL     1       5.205   3.830  18.122  0.00  0.00    +0.000 A 
ATOM      5  C   UNL     1       4.443   4.149  17.002  0.00  0.00    +0.000 A 
ATOM      6  C   UNL     1       5.052   4.740  15.896  0.00  0.00    +0.000 A 
ATOM      7  O   UNL     1       3.088   3.955  16.923  0.00  0.00    +0.000 OA
ATOM      8  C   UNL     1       2.424   3.864  18.202  0.00  0.00    +0.000 C 
ATOM      9  C   UNL     1       3.101   2.803  19.069  0.00  0.00    +0.000 C 
ATOM     10  C   UNL     1       4.549   3.153  19.256  0.00  0.00    +0.000 C 
ATOM     11  O   UNL     1       5.187   2.822  20.249  0.00  0.00    +0.000 OA
ENDROOT
BRANCH   8  12
ATOM     12  C   UNL     1       2.206   5.223  18.876  0.00  0.00    +0.000 A 
ATOM     13  C   UNL     1       2.434   6.437  18.201  0.00  0.00    +0.000 A 
ATOM     14  C   UNL     1       2.255   7.668  18.838  0.00  0.00    +0.000 A 
ATOM     15  C   UNL     1       1.811   7.695  20.153  0.00  0.00    +0.000 A 
ATOM     16  C   UNL     1       1.535   6.517  20.830  0.00  0.00    +0.000 A 
ATOM     17  C   UNL     1       1.725   5.288  20.195  0.00  0.00    +0.000 A 
BRANCH  15  18
ATOM     18  O   UNL     1       1.628   8.872  20.815  0.00  0.00    +0.000 OA
ATOM     19  H   UNL     1       1.116   9.469  20.246  0.00  0.00    +0.000 HD
ENDBRANCH  15  18
ENDBRANCH   8  12
BRANCH   1  21
ATOM     20  C   UNL     1       7.082   4.831  13.657  0.00  0.00    +0.000 C 
ATOM     21  O   UNL     1       6.889   5.662  14.795  0.00  0.00    +0.000 OA
ENDBRANCH   1  21
TORSDOF 3
ENDMDL
MODEL 6
REMARK VINA RESULT:      -6.8      2.854      6.383
REMARK  Name = 
REMARK  4 active torsions:
REMARK  status: ('A' for Active; 'I' for Inactive)
REMARK    1  A    between atoms: C_1  and  O_2
REMARK    2  A    between atoms: O_2  and  C_3
REMARK    3  A    between atoms: C_10  and  C_11
REMARK    4  A    between atoms: C_14  and  O_15
REMARK                            x       y       z     vdW  Elec       q    Type
REMARK                         _______ _______ _______ _____ _____    ______ ____
ROOT
ATOM      1  C   UNL     1       2.549   4.057  18.747  0.00  0.00    +0.000 A 
ATOM      2  C   UNL     1       3.554   3.321  19.380  0.00  0.00    +0.000 A 
ATOM      3  C   UNL     1       4.893   3.691  19.234  0.00  0.00    +0.000 A 
ATOM      4  C   UNL     1       5.226   4.787  18.436  0.00  0.00    +0.000 A 
ATOM      5  C   UNL     1       4.232   5.505  17.779  0.00  0.00    +0.000 A 
ATOM      6  C   UNL     1       2.895   5.150  17.947  0.00  0.00    +0.000 A 
ATOM      7  O   UNL     1       4.486   6.544  16.920  0.00  0.00    +0.000 OA
ATOM      8  C   UNL     1       5.816   6.541  16.359  0.00  0.00    +0.000 C 
ATOM      9  C   UNL     1       6.856   6.461  17.477  0.00  0.00    +0.000 C 
ATOM     10  C   UNL     1       6.628   5.218  18.289  0.00  0.00    +0.000 C 
ATOM     11  O   UNL     1       7.534   4.636  18.876  0.00  0.00    +0.000 OA
ENDROOT
BRANCH   8  12
ATOM     12  C   UNL     1       5.997   5.532  15.219  0.00  0.00    +0.000 A 
ATOM     13  C   UNL     1       7.214   5.399  14.526  0.00  0.00    +0.000 A 
ATOM     14  C   UNL     1       7.354   4.491  13.472  0.00  0.00    +0.000 A 
ATOM     15  C   UNL     1       6.282   3.681  13.125  0.00  0.00    +0.000 A 
ATOM     16  C   UNL     1       5.085   3.757  13.819  0.00  0.00    +0.000 A 
ATOM     17  C   UNL     1       4.943   4.672  14.864  0.00  0.00    +0.000 A 
BRANCH  15  18
ATOM     18  O   UNL     1       6.373   2.786  12.101  0.00  0.00    +0.000 OA
ATOM     19  H   UNL     1       5.513   2.744  11.652  0.00  0.00    +0.000 HD
ENDBRANCH  15  18
ENDBRANCH   8  12
BRANCH   1  21
ATOM     20  C   UNL     1       0.864   2.401  18.886  0.00  0.00    +0.000 C 
ATOM     21  O   UNL     1       1.212   3.778  18.796  0.00  0.00    +0.000 OA
ENDBRANCH   1  21
TORSDOF 3
ENDMDL
MODEL 7
REMARK VINA RESULT:      -6.8      2.758      4.529
REMARK  Name = 
REMARK  4 active torsions:
REMARK  status: ('A' for Active; 'I' for Inactive)
REMARK    1  A    between atoms: C_1  and  O_2
REMARK    2  A    between atoms: O_2  and  C_3
REMARK    3  A    between atoms: C_10  and  C_11
REMARK    4  A    between atoms: C_14  and  O_15
REMARK                            x       y       z     vdW  Elec       q    Type
REMARK                         _______ _______ _______ _____ _____    ______ ____
ROOT
ATOM      1  C   UNL     1       6.352   4.465  14.519  0.00  0.00    +0.000 A 
ATOM      2  C   UNL     1       5.598   5.628  14.343  0.00  0.00    +0.000 A 
ATOM      3  C   UNL     1       5.061   6.291  15.450  0.00  0.00    +0.000 A 
ATOM      4  C   UNL     1       5.265   5.775  16.731  0.00  0.00    +0.000 A 
ATOM      5  C   UNL     1       5.990   4.600  16.909  0.00  0.00    +0.000 A 
ATOM      6  C   UNL     1       6.545   3.956  15.806  0.00  0.00    +0.000 A 
ATOM      7  O   UNL     1       6.166   3.993  18.126  0.00  0.00    +0.000 OA
ATOM      8  C   UNL     1       5.179   4.348  19.118  0.00  0.00    +0.000 C 
ATOM      9  C   UNL     1       5.091   5.869  19.249  0.00  0.00    +0.000 C 
ATOM     10  C   UNL     1       4.736   6.469  17.919  0.00  0.00    +0.000 C 
ATOM     11  O   UNL     1       4.120   7.525  17.813  0.00  0.00    +0.000 OA
ENDROOT
BRANCH   8  12
ATOM     12  C   UNL     1       3.840   3.625  18.933  0.00  0.00    +0.000 A 
ATOM     13  C   UNL     1       3.699   2.522  18.071  0.00  0.00    +0.000 A 
ATOM     14  C   UNL     1       2.465   1.890  17.895  0.00  0.00    +0.000 A 
ATOM     15  C   UNL     1       1.363   2.337  18.611  0.00  0.00    +0.000 A 
ATOM     16  C   UNL     1       1.480   3.393  19.502  0.00  0.00    +0.000 A 
ATOM     17  C   UNL     1       2.712   4.030  19.668  0.00  0.00    +0.000 A 
BRANCH  15  18
ATOM     18  O   UNL     1       0.140   1.755  18.466  0.00  0.00    +0.000 OA
ATOM     19  H   UNL     1      -0.364   2.256  17.804  0.00  0.00    +0.000 HD
ENDBRANCH  15  18
ENDBRANCH   8  12
BRANCH   1  21
ATOM     20  C   UNL     1       6.047   3.409  12.423  0.00  0.00    +0.000 C 
ATOM     21  O   UNL     1       6.905   3.721  13.514  0.00  0.00    +0.000 OA
ENDBRANCH   1  21
TORSDOF 3
ENDMDL
MODEL 8
REMARK VINA RESULT:      -6.7      2.760      4.543
REMARK  Name = 
REMARK  4 active torsions:
REMARK  status: ('A' for Active; 'I' for Inactive)
REMARK    1  A    between atoms: C_1  and  O_2
REMARK    2  A    between atoms: O_2  and  C_3
REMARK    3  A    between atoms: C_10  and  C_11
REMARK    4  A    between atoms: C_14  and  O_15
REMARK                            x       y       z     vdW  Elec       q    Type
REMARK                         _______ _______ _______ _____ _____    ______ ____
ROOT
ATOM      1  C   UNL     1       6.301   4.405  14.502  0.00  0.00    +0.000 A 
ATOM      2  C   UNL     1       5.582   5.590  14.334  0.00  0.00    +0.000 A 
ATOM      3  C   UNL     1       5.079   6.270  15.446  0.00  0.00    +0.000 A 
ATOM      4  C   UNL     1       5.280   5.749  16.725  0.00  0.00    +0.000 A 
ATOM      5  C   UNL     1       5.970   4.552  16.897  0.00  0.00    +0.000 A 
ATOM      6  C   UNL     1       6.493   3.890  15.788  0.00  0.00    +0.000 A 
ATOM      7  O   UNL     1       6.141   3.941  18.112  0.00  0.00    +0.000 OA
ATOM      8  C   UNL     1       5.176   4.327  19.114  0.00  0.00    +0.000 C 
ATOM      9  C   UNL     1       5.138   5.850  19.245  0.00  0.00    +0.000 C 
ATOM     10  C   UNL     1       4.787   6.460  17.919  0.00  0.00    +0.000 C 
ATOM     11  O   UNL     1       4.203   7.534  17.818  0.00  0.00    +0.000 OA
ENDROOT
BRANCH   8  12
ATOM     12  C   UNL     1       3.813   3.646  18.945  0.00  0.00    +0.000 A 
ATOM     13  C   UNL     1       2.679   4.056  19.670  0.00  0.00    +0.000 A 
ATOM     14  C   UNL     1       1.449   3.408  19.522  0.00  0.00    +0.000 A 
ATOM     15  C   UNL     1       1.335   2.362  18.617  0.00  0.00    +0.000 A 
ATOM     16  C   UNL     1       2.424   1.965  17.855  0.00  0.00    +0.000 A 
ATOM     17  C   UNL     1       3.655   2.607  18.012  0.00  0.00    +0.000 A 
BRANCH  15  18
ATOM     18  O   UNL     1       0.158   1.698  18.445  0.00  0.00    +0.000 OA
ATOM     19  H   UNL     1       0.250   1.100  17.685  0.00  0.00    +0.000 HD
ENDBRANCH  15  18
ENDBRANCH   8  12
BRANCH   1  21
ATOM     20  C   UNL     1       5.943   3.365  12.407  0.00  0.00    +0.000 C 
ATOM     21  O   UNL     1       6.819   3.642  13.492  0.00  0.00    +0.000 OA
ENDBRANCH   1  21
TORSDOF 3
ENDMDL
MODEL 9
REMARK VINA RESULT:      -6.7      2.208      3.060
REMARK  Name = 
REMARK  4 active torsions:
REMARK  status: ('A' for Active; 'I' for Inactive)
REMARK    1  A    between atoms: C_1  and  O_2
REMARK    2  A    between atoms: O_2  and  C_3
REMARK    3  A    between atoms: C_10  and  C_11
REMARK    4  A    between atoms: C_14  and  O_15
REMARK                            x       y       z     vdW  Elec       q    Type
REMARK                         _______ _______ _______ _____ _____    ______ ____
ROOT
ATOM      1  C   UNL     1       6.369   4.811  14.963  0.00  0.00    +0.000 A 
ATOM      2  C   UNL     1       7.381   5.300  15.794  0.00  0.00    +0.000 A 
ATOM      3  C   UNL     1       7.223   5.273  17.182  0.00  0.00    +0.000 A 
ATOM      4  C   UNL     1       6.042   4.776  17.735  0.00  0.00    +0.000 A 
ATOM      5  C   UNL     1       5.019   4.317  16.911  0.00  0.00    +0.000 A 
ATOM      6  C   UNL     1       5.189   4.320  15.528  0.00  0.00    +0.000 A 
ATOM      7  O   UNL     1       3.803   3.886  17.377  0.00  0.00    +0.000 OA
ATOM      8  C   UNL     1       3.459   4.380  18.689  0.00  0.00    +0.000 C 
ATOM      9  C   UNL     1       4.586   4.075  19.676  0.00  0.00    +0.000 C 
ATOM     10  C   UNL     1       5.860   4.708  19.197  0.00  0.00    +0.000 C 
ATOM     11  O   UNL     1       6.748   5.070  19.962  0.00  0.00    +0.000 OA
ENDROOT
BRANCH   8  12
ATOM     12  C   UNL     1       2.962   5.830  18.686  0.00  0.00    +0.000 A 
ATOM     13  C   UNL     1       3.046   6.645  17.543  0.00  0.00    +0.000 A 
ATOM     14  C   UNL     1       2.611   7.973  17.564  0.00  0.00    +0.000 A 
ATOM     15  C   UNL     1       2.054   8.489  18.726  0.00  0.00    +0.000 A 
ATOM     16  C   UNL     1       1.916   7.696  19.855  0.00  0.00    +0.000 A 
ATOM     17  C   UNL     1       2.361   6.372  19.835  0.00  0.00    +0.000 A 
BRANCH  15  18
ATOM     18  O   UNL     1       1.622   9.779  18.793  0.00  0.00    +0.000 OA
ATOM     19  H   UNL     1       0.651   9.780  18.802  0.00  0.00    +0.000 HD
ENDBRANCH  15  18
ENDBRANCH   8  12
BRANCH   1  21
ATOM     20  C   UNL     1       6.090   3.569  12.968  0.00  0.00    +0.000 C 
ATOM     21  O   UNL     1       6.400   4.807  13.596  0.00  0.00    +0.000 OA
ENDBRANCH   1  21
TORSDOF 3
ENDMDL
