MODEL 1
REMARK VINA RESULT:      -8.0      0.000      0.000
REMARK  Name = 
REMARK  8 active torsions:
REMARK  status: ('A' for Active; 'I' for Inactive)
REMARK    1  A    between atoms: C_1  and  C_2
REMARK    2  A    between atoms: C_7  and  N_8
REMARK    3  A    between atoms: C_9  and  S_10
REMARK    4  A    between atoms: S_10  and  C_11
REMARK    5  A    between atoms: C_11  and  C_12
REMARK    6  A    between atoms: N_14  and  C_15
REMARK    7  A    between atoms: C_15  and  C_16
REMARK    8  A    between atoms: C_23  and  C_24
REMARK                            x       y       z     vdW  Elec       q    Type
REMARK                         _______ _______ _______ _____ _____    ______ ____
ROOT
ATOM      1  N   UNL     1       3.229   5.694  18.520  0.00  0.00    +0.000 N 
ATOM      2  C   UNL     1       4.361   5.454  17.736  0.00  0.00    +0.000 A 
ATOM      3  N   UNL     1       4.755   6.545  17.127  0.00  0.00    +0.000 NA
ATOM      4  N   UNL     1       3.903   7.545  17.460  0.00  0.00    +0.000 NA
ATOM      5  C   UNL     1       3.020   7.084  18.331  0.00  0.00    +0.000 A 
ENDROOT
BRANCH   1  12
ATOM      6  C   UNL     1       0.941   3.838  17.416  0.00  0.00    +0.000 C 
ATOM      7  C   UNL     1       1.397   3.958  18.834  0.00  0.00    +0.000 A 
ATOM      8  C   UNL     1       0.761   3.046  19.707  0.00  0.00    +0.000 A 
ATOM      9  C   UNL     1       1.157   2.900  21.025  0.00  0.00    +0.000 A 
ATOM     10  C   UNL     1       2.142   3.730  21.525  0.00  0.00    +0.000 A 
ATOM     11  C   UNL     1       2.730   4.701  20.705  0.00  0.00    +0.000 A 
ATOM     12  C   UNL     1       2.416   4.807  19.331  0.00  0.00    +0.000 A 
ENDBRANCH   1  12
BRANCH   5  13
ATOM     13  C   UNL     1       2.078   7.991  19.014  0.00  0.00    +0.000 A 
ATOM     14  C   UNL     1       1.501   9.055  18.312  0.00  0.00    +0.000 A 
ATOM     15  C   UNL     1       0.640   9.922  18.973  0.00  0.00    +0.000 A 
ATOM     16  N   UNL     1       0.316   9.797  20.282  0.00  0.00    +0.000 NA
ATOM     17  C   UNL     1       0.897   8.789  20.951  0.00  0.00    +0.000 A 
ATOM     18  C   UNL     1       1.781   7.885  20.374  0.00  0.00    +0.000 A 
ENDBRANCH   5  13
BRANCH   2  19
ATOM     19  S   UNL     1       5.057   3.923  17.312  0.00  0.00    +0.000 S 
BRANCH  19  20
ATOM     20  C   UNL     1       6.798   4.348  16.970  0.00  0.00    +0.000 C 
BRANCH  20  21
ATOM     21  C   UNL     1       7.041   4.894  15.569  0.00  0.00    +0.000 C 
ATOM     22  O   UNL     1       7.732   5.892  15.363  0.00  0.00    +0.000 OA
ATOM     23  N   UNL     1       6.403   4.219  14.554  0.00  0.00    +0.000 N 
ATOM     24  H   UNL     1       5.903   3.361  14.764  0.00  0.00    +0.000 HD
BRANCH  23  25
ATOM     25  C   UNL     1       6.505   4.635  13.170  0.00  0.00    +0.000 C 
BRANCH  25  26
ATOM     26  C   UNL     1       6.431   3.421  12.302  0.00  0.00    +0.000 A 
ATOM     27  C   UNL     1       7.463   2.664  11.779  0.00  0.00    +0.000 A 
ATOM     28  C   UNL     1       6.994   1.537  11.043  0.00  0.00    +0.000 A 
ATOM     29  C   UNL     1       5.620   1.478  11.012  0.00  0.00    +0.000 A 
ATOM     30  S   UNL     1       4.908   2.802  11.824  0.00  0.00    +0.000 S 
ENDBRANCH  25  26
ENDBRANCH  23  25
ENDBRANCH  20  21
ENDBRANCH  19  20
ENDBRANCH   2  19
TORSDOF 7
ENDMDL
MODEL 2
REMARK VINA RESULT:      -7.8      0.668      1.267
REMARK  Name = 
REMARK  8 active torsions:
REMARK  status: ('A' for Active; 'I' for Inactive)
REMARK    1  A    between atoms: C_1  and  C_2
REMARK    2  A    between atoms: C_7  and  N_8
REMARK    3  A    between atoms: C_9  and  S_10
REMARK    4  A    between atoms: S_10  and  C_11
REMARK    5  A    between atoms: C_11  and  C_12
REMARK    6  A    between atoms: N_14  and  C_15
REMARK    7  A    between atoms: C_15  and  C_16
REMARK    8  A    between atoms: C_23  and  C_24
REMARK                            x       y       z     vdW  Elec       q    Type
REMARK                         _______ _______ _______ _____ _____    ______ ____
ROOT
ATOM      1  N   UNL     1       3.169   5.741  18.578  0.00  0.00    +0.000 N 
ATOM      2  C   UNL     1       4.275   5.531  17.749  0.00  0.00    +0.000 A 
ATOM      3  N   UNL     1       4.630   6.639  17.145  0.00  0.00    +0.000 NA
ATOM      4  N   UNL     1       3.778   7.619  17.528  0.00  0.00    +0.000 NA
ATOM      5  C   UNL     1       2.933   7.131  18.421  0.00  0.00    +0.000 A 
ENDROOT
BRANCH   1  12
ATOM      6  C   UNL     1       0.935   3.799  17.508  0.00  0.00    +0.000 C 
ATOM      7  C   UNL     1       1.404   3.942  18.919  0.00  0.00    +0.000 A 
ATOM      8  C   UNL     1       0.812   3.010  19.803  0.00  0.00    +0.000 A 
ATOM      9  C   UNL     1       1.229   2.883  21.116  0.00  0.00    +0.000 A 
ATOM     10  C   UNL     1       2.190   3.750  21.602  0.00  0.00    +0.000 A 
ATOM     11  C   UNL     1       2.733   4.738  20.771  0.00  0.00    +0.000 A 
ATOM     12  C   UNL     1       2.397   4.828  19.401  0.00  0.00    +0.000 A 
ENDBRANCH   1  12
BRANCH   5  13
ATOM     13  C   UNL     1       2.004   8.012  19.154  0.00  0.00    +0.000 A 
ATOM     14  C   UNL     1       1.682   7.731  20.487  0.00  0.00    +0.000 A 
ATOM     15  C   UNL     1       0.782   8.549  21.157  0.00  0.00    +0.000 A 
ATOM     16  N   UNL     1       0.186   9.625  20.591  0.00  0.00    +0.000 NA
ATOM     17  C   UNL     1       0.483   9.868  19.304  0.00  0.00    +0.000 A 
ATOM     18  C   UNL     1       1.359   9.095  18.553  0.00  0.00    +0.000 A 
ENDBRANCH   5  13
BRANCH   2  19
ATOM     19  S   UNL     1       4.976   4.018  17.272  0.00  0.00    +0.000 S 
BRANCH  19  20
ATOM     20  C   UNL     1       6.743   4.430  17.085  0.00  0.00    +0.000 C 
BRANCH  20  21
ATOM     21  C   UNL     1       7.136   4.859  15.678  0.00  0.00    +0.000 C 
ATOM     22  O   UNL     1       7.692   5.934  15.449  0.00  0.00    +0.000 OA
ATOM     23  N   UNL     1       6.792   3.980  14.677  0.00  0.00    +0.000 N 
ATOM     24  H   UNL     1       6.401   3.076  14.920  0.00  0.00    +0.000 HD
BRANCH  23  25
ATOM     25  C   UNL     1       7.066   4.260  13.281  0.00  0.00    +0.000 C 
BRANCH  25  26
ATOM     26  C   UNL     1       6.062   3.532  12.446  0.00  0.00    +0.000 A 
ATOM     27  C   UNL     1       4.739   3.853  12.205  0.00  0.00    +0.000 A 
ATOM     28  C   UNL     1       4.114   2.943  11.301  0.00  0.00    +0.000 A 
ATOM     29  C   UNL     1       4.973   1.950  10.894  0.00  0.00    +0.000 A 
ATOM     30  S   UNL     1       6.505   2.088  11.639  0.00  0.00    +0.000 S 
ENDBRANCH  25  26
ENDBRANCH  23  25
ENDBRANCH  20  21
ENDBRANCH  19  20
ENDBRANCH   2  19
TORSDOF 7
ENDMDL
MODEL 3
REMARK VINA RESULT:      -7.3      3.214      5.053
REMARK  Name = 
REMARK  8 active torsions:
REMARK  status: ('A' for Active; 'I' for Inactive)
REMARK    1  A    between atoms: C_1  and  C_2
REMARK    2  A    between atoms: C_7  and  N_8
REMARK    3  A    between atoms: C_9  and  S_10
REMARK    4  A    between atoms: S_10  and  C_11
REMARK    5  A    between atoms: C_11  and  C_12
REMARK    6  A    between atoms: N_14  and  C_15
REMARK    7  A    between atoms: C_15  and  C_16
REMARK    8  A    between atoms: C_23  and  C_24
REMARK                            x       y       z     vdW  Elec       q    Type
REMARK                         _______ _______ _______ _____ _____    ______ ____
ROOT
ATOM      1  N   UNL     1       2.921   6.286  18.678  0.00  0.00    +0.000 N 
ATOM      2  C   UNL     1       4.014   6.307  17.806  0.00  0.00    +0.000 A 
ATOM      3  N   UNL     1       4.217   7.513  17.333  0.00  0.00    +0.000 NA
ATOM      4  N   UNL     1       3.272   8.334  17.850  0.00  0.00    +0.000 NA
ATOM      5  C   UNL     1       2.522   7.647  18.696  0.00  0.00    +0.000 A 
ENDROOT
BRANCH   1  12
ATOM      6  C   UNL     1       1.098   4.075  17.377  0.00  0.00    +0.000 C 
ATOM      7  C   UNL     1       1.484   4.192  18.816  0.00  0.00    +0.000 A 
ATOM      8  C   UNL     1       1.031   3.112  19.607  0.00  0.00    +0.000 A 
ATOM      9  C   UNL     1       1.416   2.962  20.928  0.00  0.00    +0.000 A 
ATOM     10  C   UNL     1       2.193   3.943  21.515  0.00  0.00    +0.000 A 
ATOM     11  C   UNL     1       2.586   5.067  20.778  0.00  0.00    +0.000 A 
ATOM     12  C   UNL     1       2.290   5.198  19.402  0.00  0.00    +0.000 A 
ENDBRANCH   1  12
BRANCH   5  13
ATOM     13  C   UNL     1       1.525   8.320  19.551  0.00  0.00    +0.000 A 
ATOM     14  C   UNL     1       0.693   9.305  19.008  0.00  0.00    +0.000 A 
ATOM     15  C   UNL     1      -0.220   9.955  19.828  0.00  0.00    +0.000 A 
ATOM     16  N   UNL     1      -0.360   9.685  21.149  0.00  0.00    +0.000 NA
ATOM     17  C   UNL     1       0.462   8.757  21.662  0.00  0.00    +0.000 A 
ATOM     18  C   UNL     1       1.414   8.069  20.920  0.00  0.00    +0.000 A 
ENDBRANCH   5  13
BRANCH   2  19
ATOM     19  S   UNL     1       4.867   4.955  17.134  0.00  0.00    +0.000 S 
BRANCH  19  20
ATOM     20  C   UNL     1       6.420   5.706  16.544  0.00  0.00    +0.000 C 
BRANCH  20  21
ATOM     21  C   UNL     1       7.381   6.104  17.657  0.00  0.00    +0.000 C 
ATOM     22  O   UNL     1       7.854   5.282  18.442  0.00  0.00    +0.000 OA
ATOM     23  N   UNL     1       7.651   7.450  17.748  0.00  0.00    +0.000 N 
ATOM     24  H   UNL     1       7.296   8.079  17.035  0.00  0.00    +0.000 HD
BRANCH  23  25
ATOM     25  C   UNL     1       8.518   7.992  18.776  0.00  0.00    +0.000 C 
BRANCH  25  26
ATOM     26  C   UNL     1       8.658   9.463  18.551  0.00  0.00    +0.000 A 
ATOM     27  C   UNL     1       8.176  10.230  17.507  0.00  0.00    +0.000 A 
ATOM     28  C   UNL     1       8.462  11.618  17.673  0.00  0.00    +0.000 A 
ATOM     29  C   UNL     1       9.167  11.864  18.828  0.00  0.00    +0.000 A 
ATOM     30  S   UNL     1       9.522  10.422  19.676  0.00  0.00    +0.000 S 
ENDBRANCH  25  26
ENDBRANCH  23  25
ENDBRANCH  20  21
ENDBRANCH  19  20
ENDBRANCH   2  19
TORSDOF 7
ENDMDL
MODEL 4
REMARK VINA RESULT:      -7.3      4.079      7.686
REMARK  Name = 
REMARK  8 active torsions:
REMARK  status: ('A' for Active; 'I' for Inactive)
REMARK    1  A    between atoms: C_1  and  C_2
REMARK    2  A    between atoms: C_7  and  N_8
REMARK    3  A    between atoms: C_9  and  S_10
REMARK    4  A    between atoms: S_10  and  C_11
REMARK    5  A    between atoms: C_11  and  C_12
REMARK    6  A    between atoms: N_14  and  C_15
REMARK    7  A    between atoms: C_15  and  C_16
REMARK    8  A    between atoms: C_23  and  C_24
REMARK                            x       y       z     vdW  Elec       q    Type
REMARK                         _______ _______ _______ _____ _____    ______ ____
ROOT
ATOM      1  N   UNL     1       0.101  10.996  21.049  0.00  0.00    +0.000 N 
ATOM      2  C   UNL     1       0.477   9.656  20.924  0.00  0.00    +0.000 A 
ATOM      3  N   UNL     1       0.105   8.961  21.971  0.00  0.00    +0.000 NA
ATOM      4  N   UNL     1      -0.513   9.800  22.836  0.00  0.00    +0.000 NA
ATOM      5  C   UNL     1      -0.582  11.004  22.292  0.00  0.00    +0.000 A 
ENDROOT
BRANCH   1  12
ATOM      6  C   UNL     1      -1.976  12.114  18.966  0.00  0.00    +0.000 C 
ATOM      7  C   UNL     1      -0.615  12.657  19.261  0.00  0.00    +0.000 A 
ATOM      8  C   UNL     1      -0.329  13.857  18.570  0.00  0.00    +0.000 A 
ATOM      9  C   UNL     1       0.816  14.591  18.826  0.00  0.00    +0.000 A 
ATOM     10  C   UNL     1       1.747  14.093  19.718  0.00  0.00    +0.000 A 
ATOM     11  C   UNL     1       1.527  12.865  20.354  0.00  0.00    +0.000 A 
ATOM     12  C   UNL     1       0.324  12.142  20.187  0.00  0.00    +0.000 A 
ENDBRANCH   1  12
BRANCH   5  13
ATOM     13  C   UNL     1      -1.365  12.083  22.924  0.00  0.00    +0.000 A 
ATOM     14  C   UNL     1      -2.709  11.869  23.252  0.00  0.00    +0.000 A 
ATOM     15  C   UNL     1      -3.445  12.902  23.817  0.00  0.00    +0.000 A 
ATOM     16  N   UNL     1      -2.932  14.128  24.079  0.00  0.00    +0.000 NA
ATOM     17  C   UNL     1      -1.650  14.328  23.736  0.00  0.00    +0.000 A 
ATOM     18  C   UNL     1      -0.844  13.358  23.153  0.00  0.00    +0.000 A 
ENDBRANCH   5  13
BRANCH   2  19
ATOM     19  S   UNL     1       1.543   8.954  19.750  0.00  0.00    +0.000 S 
BRANCH  19  20
ATOM     20  C   UNL     1       1.822   7.275  20.405  0.00  0.00    +0.000 C 
BRANCH  20  21
ATOM     21  C   UNL     1       2.552   6.345  19.443  0.00  0.00    +0.000 C 
ATOM     22  O   UNL     1       2.199   6.204  18.271  0.00  0.00    +0.000 OA
ATOM     23  N   UNL     1       3.605   5.646  19.985  0.00  0.00    +0.000 N 
ATOM     24  H   UNL     1       3.902   5.849  20.933  0.00  0.00    +0.000 HD
BRANCH  23  25
ATOM     25  C   UNL     1       4.377   4.696  19.209  0.00  0.00    +0.000 C 
BRANCH  25  26
ATOM     26  C   UNL     1       5.611   5.379  18.714  0.00  0.00    +0.000 A 
ATOM     27  C   UNL     1       6.829   5.535  19.348  0.00  0.00    +0.000 A 
ATOM     28  C   UNL     1       7.790   6.196  18.527  0.00  0.00    +0.000 A 
ATOM     29  C   UNL     1       7.271   6.539  17.301  0.00  0.00    +0.000 A 
ATOM     30  S   UNL     1       5.622   6.109  17.165  0.00  0.00    +0.000 S 
ENDBRANCH  25  26
ENDBRANCH  23  25
ENDBRANCH  20  21
ENDBRANCH  19  20
ENDBRANCH   2  19
TORSDOF 7
ENDMDL
MODEL 5
REMARK VINA RESULT:      -7.3      4.063      7.313
REMARK  Name = 
REMARK  8 active torsions:
REMARK  status: ('A' for Active; 'I' for Inactive)
REMARK    1  A    between atoms: C_1  and  C_2
REMARK    2  A    between atoms: C_7  and  N_8
REMARK    3  A    between atoms: C_9  and  S_10
REMARK    4  A    between atoms: S_10  and  C_11
REMARK    5  A    between atoms: C_11  and  C_12
REMARK    6  A    between atoms: N_14  and  C_15
REMARK    7  A    between atoms: C_15  and  C_16
REMARK    8  A    between atoms: C_23  and  C_24
REMARK                            x       y       z     vdW  Elec       q    Type
REMARK                         _______ _______ _______ _____ _____    ______ ____
ROOT
ATOM      1  N   UNL     1      -0.070  10.432  20.926  0.00  0.00    +0.000 N 
ATOM      2  C   UNL     1       0.842   9.383  21.068  0.00  0.00    +0.000 A 
ATOM      3  N   UNL     1       1.196   9.230  22.321  0.00  0.00    +0.000 NA
ATOM      4  N   UNL     1       0.556  10.169  23.058  0.00  0.00    +0.000 NA
ATOM      5  C   UNL     1      -0.248  10.862  22.267  0.00  0.00    +0.000 A 
ENDROOT
BRANCH   1  12
ATOM      6  C   UNL     1       0.720  13.177  19.606  0.00  0.00    +0.000 C 
ATOM      7  C   UNL     1      -0.340  12.229  19.147  0.00  0.00    +0.000 A 
ATOM      8  C   UNL     1      -0.948  12.615  17.930  0.00  0.00    +0.000 A 
ATOM      9  C   UNL     1      -1.841  11.792  17.267  0.00  0.00    +0.000 A 
ATOM     10  C   UNL     1      -2.215  10.597  17.854  0.00  0.00    +0.000 A 
ATOM     11  C   UNL     1      -1.691  10.229  19.099  0.00  0.00    +0.000 A 
ATOM     12  C   UNL     1      -0.705  11.002  19.753  0.00  0.00    +0.000 A 
ENDBRANCH   1  12
BRANCH   5  13
ATOM     13  C   UNL     1      -1.211  11.833  22.820  0.00  0.00    +0.000 A 
ATOM     14  C   UNL     1      -0.857  13.183  22.923  0.00  0.00    +0.000 A 
ATOM     15  C   UNL     1      -1.759  14.084  23.474  0.00  0.00    +0.000 A 
ATOM     16  N   UNL     1      -2.986  13.730  23.925  0.00  0.00    +0.000 NA
ATOM     17  C   UNL     1      -3.303  12.428  23.844  0.00  0.00    +0.000 A 
ATOM     18  C   UNL     1      -2.458  11.456  23.322  0.00  0.00    +0.000 A 
ENDBRANCH   5  13
BRANCH   2  19
ATOM     19  S   UNL     1       1.688   8.530  19.817  0.00  0.00    +0.000 S 
BRANCH  19  20
ATOM     20  C   UNL     1       1.675   6.808  20.417  0.00  0.00    +0.000 C 
BRANCH  20  21
ATOM     21  C   UNL     1       2.476   5.843  19.552  0.00  0.00    +0.000 C 
ATOM     22  O   UNL     1       2.012   5.336  18.530  0.00  0.00    +0.000 OA
ATOM     23  N   UNL     1       3.737   5.546  20.014  0.00  0.00    +0.000 N 
ATOM     24  H   UNL     1       4.102   6.042  20.820  0.00  0.00    +0.000 HD
BRANCH  23  25
ATOM     25  C   UNL     1       4.610   4.617  19.323  0.00  0.00    +0.000 C 
BRANCH  25  26
ATOM     26  C   UNL     1       5.780   5.376  18.786  0.00  0.00    +0.000 A 
ATOM     27  C   UNL     1       7.013   5.596  19.371  0.00  0.00    +0.000 A 
ATOM     28  C   UNL     1       7.898   6.321  18.518  0.00  0.00    +0.000 A 
ATOM     29  C   UNL     1       7.308   6.645  17.319  0.00  0.00    +0.000 A 
ATOM     30  S   UNL     1       5.683   6.121  17.247  0.00  0.00    +0.000 S 
ENDBRANCH  25  26
ENDBRANCH  23  25
ENDBRANCH  20  21
ENDBRANCH  19  20
ENDBRANCH   2  19
TORSDOF 7
ENDMDL
MODEL 6
REMARK VINA RESULT:      -7.3      4.302      7.926
REMARK  Name = 
REMARK  8 active torsions:
REMARK  status: ('A' for Active; 'I' for Inactive)
REMARK    1  A    between atoms: C_1  and  C_2
REMARK    2  A    between atoms: C_7  and  N_8
REMARK    3  A    between atoms: C_9  and  S_10
REMARK    4  A    between atoms: S_10  and  C_11
REMARK    5  A    between atoms: C_11  and  C_12
REMARK    6  A    between atoms: N_14  and  C_15
REMARK    7  A    between atoms: C_15  and  C_16
REMARK    8  A    between atoms: C_23  and  C_24
REMARK                            x       y       z     vdW  Elec       q    Type
REMARK                         _______ _______ _______ _____ _____    ______ ____
ROOT
ATOM      1  N   UNL     1      -0.105  11.140  21.603  0.00  0.00    +0.000 N 
ATOM      2  C   UNL     1       0.208   9.801  21.856  0.00  0.00    +0.000 A 
ATOM      3  N   UNL     1      -0.345   9.390  22.971  0.00  0.00    +0.000 NA
ATOM      4  N   UNL     1      -1.028  10.428  23.512  0.00  0.00    +0.000 NA
ATOM      5  C   UNL     1      -0.952  11.465  22.693  0.00  0.00    +0.000 A 
ENDROOT
BRANCH   1  12
ATOM      6  C   UNL     1      -1.896  11.936  19.141  0.00  0.00    +0.000 C 
ATOM      7  C   UNL     1      -0.510  12.409  19.436  0.00  0.00    +0.000 A 
ATOM      8  C   UNL     1      -0.048  13.391  18.530  0.00  0.00    +0.000 A 
ATOM      9  C   UNL     1       1.148  14.060  18.726  0.00  0.00    +0.000 A 
ATOM     10  C   UNL     1       1.953  13.697  19.789  0.00  0.00    +0.000 A 
ATOM     11  C   UNL     1       1.559  12.670  20.654  0.00  0.00    +0.000 A 
ATOM     12  C   UNL     1       0.301  12.036  20.536  0.00  0.00    +0.000 A 
ENDBRANCH   1  12
BRANCH   5  13
ATOM     13  C   UNL     1      -1.751  12.682  22.929  0.00  0.00    +0.000 A 
ATOM     14  C   UNL     1      -3.118  12.688  22.628  0.00  0.00    +0.000 A 
ATOM     15  C   UNL     1      -3.854  13.849  22.823  0.00  0.00    +0.000 A 
ATOM     16  N   UNL     1      -3.321  15.000  23.299  0.00  0.00    +0.000 NA
ATOM     17  C   UNL     1      -2.004  14.989  23.559  0.00  0.00    +0.000 A 
ATOM     18  C   UNL     1      -1.189  13.878  23.378  0.00  0.00    +0.000 A 
ENDBRANCH   5  13
BRANCH   2  19
ATOM     19  S   UNL     1       1.383   8.811  21.053  0.00  0.00    +0.000 S 
BRANCH  19  20
ATOM     20  C   UNL     1       1.103   9.194  19.292  0.00  0.00    +0.000 C 
BRANCH  20  21
ATOM     21  C   UNL     1       2.034   8.455  18.339  0.00  0.00    +0.000 C 
ATOM     22  O   UNL     1       2.297   8.881  17.214  0.00  0.00    +0.000 OA
ATOM     23  N   UNL     1       2.528   7.260  18.808  0.00  0.00    +0.000 N 
ATOM     24  H   UNL     1       2.342   6.986  19.767  0.00  0.00    +0.000 HD
BRANCH  23  25
ATOM     25  C   UNL     1       3.398   6.421  18.008  0.00  0.00    +0.000 C 
BRANCH  25  26
ATOM     26  C   UNL     1       2.977   4.997  18.183  0.00  0.00    +0.000 A 
ATOM     27  C   UNL     1       1.806   4.384  17.782  0.00  0.00    +0.000 A 
ATOM     28  C   UNL     1       1.793   2.988  18.076  0.00  0.00    +0.000 A 
ATOM     29  C   UNL     1       2.946   2.584  18.708  0.00  0.00    +0.000 A 
ATOM     30  S   UNL     1       4.011   3.892  18.986  0.00  0.00    +0.000 S 
ENDBRANCH  25  26
ENDBRANCH  23  25
ENDBRANCH  20  21
ENDBRANCH  19  20
ENDBRANCH   2  19
TORSDOF 7
ENDMDL
MODEL 7
REMARK VINA RESULT:      -7.2      4.159      7.422
REMARK  Name = 
REMARK  8 active torsions:
REMARK  status: ('A' for Active; 'I' for Inactive)
REMARK    1  A    between atoms: C_1  and  C_2
REMARK    2  A    between atoms: C_7  and  N_8
REMARK    3  A    between atoms: C_9  and  S_10
REMARK    4  A    between atoms: S_10  and  C_11
REMARK    5  A    between atoms: C_11  and  C_12
REMARK    6  A    between atoms: N_14  and  C_15
REMARK    7  A    between atoms: C_15  and  C_16
REMARK    8  A    between atoms: C_23  and  C_24
REMARK                            x       y       z     vdW  Elec       q    Type
REMARK                         _______ _______ _______ _____ _____    ______ ____
ROOT
ATOM      1  N   UNL     1      -0.150  10.445  21.065  0.00  0.00    +0.000 N 
ATOM      2  C   UNL     1       0.666   9.323  21.238  0.00  0.00    +0.000 A 
ATOM      3  N   UNL     1       0.948   9.135  22.504  0.00  0.00    +0.000 NA
ATOM      4  N   UNL     1       0.354  10.119  23.220  0.00  0.00    +0.000 NA
ATOM      5  C   UNL     1      -0.353  10.880  22.400  0.00  0.00    +0.000 A 
ENDROOT
BRANCH   1  12
ATOM      6  C   UNL     1       0.903  13.140  19.827  0.00  0.00    +0.000 C 
ATOM      7  C   UNL     1      -0.197  12.277  19.301  0.00  0.00    +0.000 A 
ATOM      8  C   UNL     1      -0.713  12.719  18.061  0.00  0.00    +0.000 A 
ATOM      9  C   UNL     1      -1.627  11.971  17.341  0.00  0.00    +0.000 A 
ATOM     10  C   UNL     1      -2.115  10.800  17.890  0.00  0.00    +0.000 A 
ATOM     11  C   UNL     1      -1.685  10.380  19.155  0.00  0.00    +0.000 A 
ATOM     12  C   UNL     1      -0.680  11.073  19.869  0.00  0.00    +0.000 A 
ENDBRANCH   1  12
BRANCH   5  13
ATOM     13  C   UNL     1      -1.257  11.925  22.918  0.00  0.00    +0.000 A 
ATOM     14  C   UNL     1      -2.558  11.590  23.308  0.00  0.00    +0.000 A 
ATOM     15  C   UNL     1      -3.411  12.586  23.764  0.00  0.00    +0.000 A 
ATOM     16  N   UNL     1      -3.054  13.889  23.859  0.00  0.00    +0.000 NA
ATOM     17  C   UNL     1      -1.812  14.201  23.456  0.00  0.00    +0.000 A 
ATOM     18  C   UNL     1      -0.898  13.273  22.973  0.00  0.00    +0.000 A 
ENDBRANCH   5  13
BRANCH   2  19
ATOM     19  S   UNL     1       1.495   8.412  20.018  0.00  0.00    +0.000 S 
BRANCH  19  20
ATOM     20  C   UNL     1       1.626   6.754  20.767  0.00  0.00    +0.000 C 
BRANCH  20  21
ATOM     21  C   UNL     1       2.413   5.754  19.930  0.00  0.00    +0.000 C 
ATOM     22  O   UNL     1       2.546   4.576  20.265  0.00  0.00    +0.000 OA
ATOM     23  N   UNL     1       2.996   6.266  18.794  0.00  0.00    +0.000 N 
ATOM     24  H   UNL     1       2.799   7.223  18.521  0.00  0.00    +0.000 HD
BRANCH  23  25
ATOM     25  C   UNL     1       3.806   5.450  17.911  0.00  0.00    +0.000 C 
BRANCH  25  26
ATOM     26  C   UNL     1       5.247   5.748  18.178  0.00  0.00    +0.000 A 
ATOM     27  C   UNL     1       6.060   5.262  19.185  0.00  0.00    +0.000 A 
ATOM     28  C   UNL     1       7.402   5.733  19.076  0.00  0.00    +0.000 A 
ATOM     29  C   UNL     1       7.567   6.575  18.002  0.00  0.00    +0.000 A 
ATOM     30  S   UNL     1       6.099   6.833  17.164  0.00  0.00    +0.000 S 
ENDBRANCH  25  26
ENDBRANCH  23  25
ENDBRANCH  20  21
ENDBRANCH  19  20
ENDBRANCH   2  19
TORSDOF 7
ENDMDL
MODEL 8
REMARK VINA RESULT:      -7.2      4.157      7.794
REMARK  Name = 
REMARK  8 active torsions:
REMARK  status: ('A' for Active; 'I' for Inactive)
REMARK    1  A    between atoms: C_1  and  C_2
REMARK    2  A    between atoms: C_7  and  N_8
REMARK    3  A    between atoms: C_9  and  S_10
REMARK    4  A    between atoms: S_10  and  C_11
REMARK    5  A    between atoms: C_11  and  C_12
REMARK    6  A    between atoms: N_14  and  C_15
REMARK    7  A    between atoms: C_15  and  C_16
REMARK    8  A    between atoms: C_23  and  C_24
REMARK                            x       y       z     vdW  Elec       q    Type
REMARK                         _______ _______ _______ _____ _____    ______ ____
ROOT
ATOM      1  N   UNL     1      -0.167  10.921  21.313  0.00  0.00    +0.000 N 
ATOM      2  C   UNL     1       0.423   9.656  21.394  0.00  0.00    +0.000 A 
ATOM      3  N   UNL     1       0.355   9.181  22.614  0.00  0.00    +0.000 NA
ATOM      4  N   UNL     1      -0.261  10.102  23.392  0.00  0.00    +0.000 NA
ATOM      5  C   UNL     1      -0.634  11.123  22.637  0.00  0.00    +0.000 A 
ENDROOT
BRANCH   1  12
ATOM      6  C   UNL     1       1.782  13.326  20.748  0.00  0.00    +0.000 C 
ATOM      7  C   UNL     1       0.589  12.925  19.941  0.00  0.00    +0.000 A 
ATOM      8  C   UNL     1       0.431  13.684  18.759  0.00  0.00    +0.000 A 
ATOM      9  C   UNL     1      -0.523  13.364  17.809  0.00  0.00    +0.000 A 
ATOM     10  C   UNL     1      -1.400  12.327  18.062  0.00  0.00    +0.000 A 
ATOM     11  C   UNL     1      -1.320  11.612  19.263  0.00  0.00    +0.000 A 
ATOM     12  C   UNL     1      -0.296  11.852  20.208  0.00  0.00    +0.000 A 
ENDBRANCH   1  12
BRANCH   5  13
ATOM     13  C   UNL     1      -1.489  12.198  23.176  0.00  0.00    +0.000 A 
ATOM     14  C   UNL     1      -2.821  11.927  23.509  0.00  0.00    +0.000 A 
ATOM     15  C   UNL     1      -3.627  12.953  23.985  0.00  0.00    +0.000 A 
ATOM     16  N   UNL     1      -3.194  14.226  24.152  0.00  0.00    +0.000 NA
ATOM     17  C   UNL     1      -1.922  14.478  23.804  0.00  0.00    +0.000 A 
ATOM     18  C   UNL     1      -1.051  13.517  23.306  0.00  0.00    +0.000 A 
ENDBRANCH   5  13
BRANCH   2  19
ATOM     19  S   UNL     1       1.398   8.858  20.203  0.00  0.00    +0.000 S 
BRANCH  19  20
ATOM     20  C   UNL     1       1.672   7.211  20.939  0.00  0.00    +0.000 C 
BRANCH  20  21
ATOM     21  C   UNL     1       2.210   6.175  19.961  0.00  0.00    +0.000 C 
ATOM     22  O   UNL     1       2.081   4.965  20.148  0.00  0.00    +0.000 OA
ATOM     23  N   UNL     1       2.885   6.684  18.875  0.00  0.00    +0.000 N 
ATOM     24  H   UNL     1       2.904   7.688  18.726  0.00  0.00    +0.000 HD
BRANCH  23  25
ATOM     25  C   UNL     1       3.487   5.827  17.873  0.00  0.00    +0.000 C 
BRANCH  25  26
ATOM     26  C   UNL     1       4.969   6.019  17.912  0.00  0.00    +0.000 A 
ATOM     27  C   UNL     1       5.763   6.803  17.097  0.00  0.00    +0.000 A 
ATOM     28  C   UNL     1       7.136   6.775  17.484  0.00  0.00    +0.000 A 
ATOM     29  C   UNL     1       7.348   5.958  18.570  0.00  0.00    +0.000 A 
ATOM     30  S   UNL     1       5.908   5.194  19.083  0.00  0.00    +0.000 S 
ENDBRANCH  25  26
ENDBRANCH  23  25
ENDBRANCH  20  21
ENDBRANCH  19  20
ENDBRANCH   2  19
TORSDOF 7
ENDMDL
MODEL 9
REMARK VINA RESULT:      -7.1      4.297      7.701
REMARK  Name = 
REMARK  8 active torsions:
REMARK  status: ('A' for Active; 'I' for Inactive)
REMARK    1  A    between atoms: C_1  and  C_2
REMARK    2  A    between atoms: C_7  and  N_8
REMARK    3  A    between atoms: C_9  and  S_10
REMARK    4  A    between atoms: S_10  and  C_11
REMARK    5  A    between atoms: C_11  and  C_12
REMARK    6  A    between atoms: N_14  and  C_15
REMARK    7  A    between atoms: C_15  and  C_16
REMARK    8  A    between atoms: C_23  and  C_24
REMARK                            x       y       z     vdW  Elec       q    Type
REMARK                         _______ _______ _______ _____ _____    ______ ____
ROOT
ATOM      1  N   UNL     1       0.063  10.739  21.370  0.00  0.00    +0.000 N 
ATOM      2  C   UNL     1       0.422   9.400  21.548  0.00  0.00    +0.000 A 
ATOM      3  N   UNL     1       0.035   8.959  22.720  0.00  0.00    +0.000 NA
ATOM      4  N   UNL     1      -0.577   9.976  23.373  0.00  0.00    +0.000 NA
ATOM      5  C   UNL     1      -0.627  11.030  22.575  0.00  0.00    +0.000 A 
ENDROOT
BRANCH   1  12
ATOM      6  C   UNL     1      -2.054  11.545  19.187  0.00  0.00    +0.000 C 
ATOM      7  C   UNL     1      -0.649  12.040  19.304  0.00  0.00    +0.000 A 
ATOM      8  C   UNL     1      -0.329  13.047  18.365  0.00  0.00    +0.000 A 
ATOM      9  C   UNL     1       0.870  13.736  18.414  0.00  0.00    +0.000 A 
ATOM     10  C   UNL     1       1.816  13.370  19.352  0.00  0.00    +0.000 A 
ATOM     11  C   UNL     1       1.559  12.319  20.241  0.00  0.00    +0.000 A 
ATOM     12  C   UNL     1       0.307  11.663  20.278  0.00  0.00    +0.000 A 
ENDBRANCH   1  12
BRANCH   5  13
ATOM     13  C   UNL     1      -1.399  12.232  22.946  0.00  0.00    +0.000 A 
ATOM     14  C   UNL     1      -2.769  12.126  23.209  0.00  0.00    +0.000 A 
ATOM     15  C   UNL     1      -3.492  13.268  23.526  0.00  0.00    +0.000 A 
ATOM     16  N   UNL     1      -2.942  14.503  23.601  0.00  0.00    +0.000 NA
ATOM     17  C   UNL     1      -1.632  14.595  23.321  0.00  0.00    +0.000 A 
ATOM     18  C   UNL     1      -0.836  13.509  22.980  0.00  0.00    +0.000 A 
ENDBRANCH   5  13
BRANCH   2  19
ATOM     19  S   UNL     1       1.485   8.443  20.568  0.00  0.00    +0.000 S 
BRANCH  19  20
ATOM     20  C   UNL     1       1.227   6.757  21.212  0.00  0.00    +0.000 C 
BRANCH  20  21
ATOM     21  C   UNL     1       1.886   5.665  20.379  0.00  0.00    +0.000 C 
ATOM     22  O   UNL     1       1.278   4.655  20.021  0.00  0.00    +0.000 OA
ATOM     23  N   UNL     1       3.215   5.866  20.089  0.00  0.00    +0.000 N 
ATOM     24  H   UNL     1       3.652   6.746  20.344  0.00  0.00    +0.000 HD
BRANCH  23  25
ATOM     25  C   UNL     1       3.992   4.903  19.336  0.00  0.00    +0.000 C 
BRANCH  25  26
ATOM     26  C   UNL     1       5.034   5.639  18.556  0.00  0.00    +0.000 A 
ATOM     27  C   UNL     1       4.867   6.530  17.512  0.00  0.00    +0.000 A 
ATOM     28  C   UNL     1       6.104   7.076  17.060  0.00  0.00    +0.000 A 
ATOM     29  C   UNL     1       7.176   6.572  17.759  0.00  0.00    +0.000 A 
ATOM     30  S   UNL     1       6.692   5.413  18.917  0.00  0.00    +0.000 S 
ENDBRANCH  25  26
ENDBRANCH  23  25
ENDBRANCH  20  21
ENDBRANCH  19  20
ENDBRANCH   2  19
TORSDOF 7
ENDMDL
