MODEL 1
REMARK VINA RESULT:      -6.2      0.000      0.000
REMARK  Name = 
REMARK  5 active torsions:
REMARK  status: ('A' for Active; 'I' for Inactive)
REMARK    1  A    between atoms: C_1  and  C_2
REMARK    2  A    between atoms: C_2  and  N_3
REMARK    3  A    between atoms: N_3  and  C_4
REMARK    4  A    between atoms: C_4  and  C_5
REMARK    5  A    between atoms: C_9  and  C_10
REMARK                            x       y       z     vdW  Elec       q    Type
REMARK                         _______ _______ _______ _____ _____    ______ ____
ROOT
ATOM      1  C   UNL     1       3.465   4.243  17.389  0.00  0.00    +0.000 A 
ATOM      2  C   UNL     1       2.989   5.494  17.803  0.00  0.00    +0.000 A 
ATOM      3  C   UNL     1       3.807   6.623  17.735  0.00  0.00    +0.000 A 
ATOM      4  C   UNL     1       5.122   6.516  17.273  0.00  0.00    +0.000 A 
ATOM      5  C   UNL     1       5.620   5.275  16.860  0.00  0.00    +0.000 A 
ATOM      6  C   UNL     1       4.781   4.150  16.914  0.00  0.00    +0.000 A 
ENDROOT
BRANCH   5   7
ATOM      7  C   UNL     1       7.014   5.067  16.363  0.00  0.00    +0.000 C 
ATOM      8  N   UNL     1       7.877   4.315  17.106  0.00  0.00    +0.000 N 
ATOM      9  O   UNL     1       7.391   5.543  15.296  0.00  0.00    +0.000 OA
ATOM     10  H   UNL     1       7.657   3.869  17.981  0.00  0.00    +0.000 HD
ATOM     11  H   UNL     1       8.805   4.186  16.724  0.00  0.00    +0.000 HD
ENDBRANCH   5   7
BRANCH   1  12
ATOM     12  C   UNL     1       2.589   3.009  17.461  0.00  0.00    +0.000 C 
BRANCH  12  13
ATOM     13  N   UNL     1       1.240   3.347  17.911  0.00  0.00    +0.000 NA
ATOM     14  H   UNL     1       1.174   4.352  18.056  0.00  0.00    +0.000 HD
BRANCH  13  16
ATOM     15  C   UNL     1       0.973   3.652  20.303  0.00  0.00    +0.000 C 
ATOM     16  C   UNL     1       0.892   2.660  19.151  0.00  0.00    +0.000 C 
ENDBRANCH  13  16
ENDBRANCH  12  13
ENDBRANCH   1  12
TORSDOF 4
ENDMDL
MODEL 2
REMARK VINA RESULT:      -5.9      1.875      1.937
REMARK  Name = 
REMARK  5 active torsions:
REMARK  status: ('A' for Active; 'I' for Inactive)
REMARK    1  A    between atoms: C_1  and  C_2
REMARK    2  A    between atoms: C_2  and  N_3
REMARK    3  A    between atoms: N_3  and  C_4
REMARK    4  A    between atoms: C_4  and  C_5
REMARK    5  A    between atoms: C_9  and  C_10
REMARK                            x       y       z     vdW  Elec       q    Type
REMARK                         _______ _______ _______ _____ _____    ______ ____
ROOT
ATOM      1  C   UNL     1       3.872   4.231  17.284  0.00  0.00    +0.000 A 
ATOM      2  C   UNL     1       3.640   5.550  17.697  0.00  0.00    +0.000 A 
ATOM      3  C   UNL     1       4.348   6.608  17.123  0.00  0.00    +0.000 A 
ATOM      4  C   UNL     1       5.315   6.363  16.144  0.00  0.00    +0.000 A 
ATOM      5  C   UNL     1       5.568   5.053  15.721  0.00  0.00    +0.000 A 
ATOM      6  C   UNL     1       4.835   3.999  16.290  0.00  0.00    +0.000 A 
ENDROOT
BRANCH   5   7
ATOM      7  C   UNL     1       6.588   4.699  14.690  0.00  0.00    +0.000 C 
ATOM      8  N   UNL     1       6.361   3.631  13.871  0.00  0.00    +0.000 N 
ATOM      9  O   UNL     1       7.616   5.357  14.554  0.00  0.00    +0.000 OA
ATOM     10  H   UNL     1       5.544   3.044  13.893  0.00  0.00    +0.000 HD
ATOM     11  H   UNL     1       7.070   3.436  13.177  0.00  0.00    +0.000 HD
ENDBRANCH   5   7
BRANCH   1  12
ATOM     12  C   UNL     1       3.114   3.074  17.900  0.00  0.00    +0.000 C 
BRANCH  12  13
ATOM     13  N   UNL     1       4.029   2.097  18.486  0.00  0.00    +0.000 NA
ATOM     14  H   UNL     1       3.625   1.167  18.407  0.00  0.00    +0.000 HD
BRANCH  13  16
ATOM     15  C   UNL     1       3.002   2.753  20.582  0.00  0.00    +0.000 C 
ATOM     16  C   UNL     1       4.306   2.383  19.889  0.00  0.00    +0.000 C 
ENDBRANCH  13  16
ENDBRANCH  12  13
ENDBRANCH   1  12
TORSDOF 4
ENDMDL
MODEL 3
REMARK VINA RESULT:      -5.8      1.547      1.636
REMARK  Name = 
REMARK  5 active torsions:
REMARK  status: ('A' for Active; 'I' for Inactive)
REMARK    1  A    between atoms: C_1  and  C_2
REMARK    2  A    between atoms: C_2  and  N_3
REMARK    3  A    between atoms: N_3  and  C_4
REMARK    4  A    between atoms: C_4  and  C_5
REMARK    5  A    between atoms: C_9  and  C_10
REMARK                            x       y       z     vdW  Elec       q    Type
REMARK                         _______ _______ _______ _____ _____    ______ ____
ROOT
ATOM      1  C   UNL     1       4.075   4.238  17.434  0.00  0.00    +0.000 A 
ATOM      2  C   UNL     1       3.765   5.567  17.753  0.00  0.00    +0.000 A 
ATOM      3  C   UNL     1       4.352   6.621  17.051  0.00  0.00    +0.000 A 
ATOM      4  C   UNL     1       5.275   6.365  16.033  0.00  0.00    +0.000 A 
ATOM      5  C   UNL     1       5.604   5.045  15.702  0.00  0.00    +0.000 A 
ATOM      6  C   UNL     1       4.993   3.993  16.401  0.00  0.00    +0.000 A 
ENDROOT
BRANCH   5   7
ATOM      7  C   UNL     1       6.587   4.680  14.637  0.00  0.00    +0.000 C 
ATOM      8  N   UNL     1       6.351   3.577  13.869  0.00  0.00    +0.000 N 
ATOM      9  O   UNL     1       7.588   5.359  14.430  0.00  0.00    +0.000 OA
ATOM     10  H   UNL     1       5.553   2.970  13.949  0.00  0.00    +0.000 HD
ATOM     11  H   UNL     1       7.034   3.376  13.149  0.00  0.00    +0.000 HD
ENDBRANCH   5   7
BRANCH   1  12
ATOM     12  C   UNL     1       3.449   3.085  18.191  0.00  0.00    +0.000 C 
BRANCH  12  13
ATOM     13  N   UNL     1       2.999   3.507  19.515  0.00  0.00    +0.000 NA
ATOM     14  H   UNL     1       3.748   3.363  20.188  0.00  0.00    +0.000 HD
BRANCH  13  16
ATOM     15  C   UNL     1       0.935   2.496  18.737  0.00  0.00    +0.000 C 
ATOM     16  C   UNL     1       1.816   2.770  19.948  0.00  0.00    +0.000 C 
ENDBRANCH  13  16
ENDBRANCH  12  13
ENDBRANCH   1  12
TORSDOF 4
ENDMDL
MODEL 4
REMARK VINA RESULT:      -5.7      1.318      1.347
REMARK  Name = 
REMARK  5 active torsions:
REMARK  status: ('A' for Active; 'I' for Inactive)
REMARK    1  A    between atoms: C_1  and  C_2
REMARK    2  A    between atoms: C_2  and  N_3
REMARK    3  A    between atoms: N_3  and  C_4
REMARK    4  A    between atoms: C_4  and  C_5
REMARK    5  A    between atoms: C_9  and  C_10
REMARK                            x       y       z     vdW  Elec       q    Type
REMARK                         _______ _______ _______ _____ _____    ______ ____
ROOT
ATOM      1  C   UNL     1       3.288   4.313  17.519  0.00  0.00    +0.000 A 
ATOM      2  C   UNL     1       3.154   5.663  17.871  0.00  0.00    +0.000 A 
ATOM      3  C   UNL     1       4.113   6.598  17.476  0.00  0.00    +0.000 A 
ATOM      4  C   UNL     1       5.233   6.195  16.743  0.00  0.00    +0.000 A 
ATOM      5  C   UNL     1       5.390   4.850  16.386  0.00  0.00    +0.000 A 
ATOM      6  C   UNL     1       4.408   3.923  16.771  0.00  0.00    +0.000 A 
ENDROOT
BRANCH   5   7
ATOM      7  C   UNL     1       6.558   4.330  15.614  0.00  0.00    +0.000 C 
ATOM      8  N   UNL     1       6.334   3.630  14.464  0.00  0.00    +0.000 N 
ATOM      9  O   UNL     1       7.711   4.534  15.982  0.00  0.00    +0.000 OA
ATOM     10  H   UNL     1       5.429   3.427  14.072  0.00  0.00    +0.000 HD
ATOM     11  H   UNL     1       7.153   3.310  13.964  0.00  0.00    +0.000 HD
ENDBRANCH   5   7
BRANCH   1  12
ATOM     12  C   UNL     1       2.257   3.289  17.945  0.00  0.00    +0.000 C 
BRANCH  12  13
ATOM     13  N   UNL     1       2.809   2.364  18.932  0.00  0.00    +0.000 NA
ATOM     14  H   UNL     1       2.353   1.459  18.840  0.00  0.00    +0.000 HD
BRANCH  13  16
ATOM     15  C   UNL     1       1.176   3.250  20.491  0.00  0.00    +0.000 C 
ATOM     16  C   UNL     1       2.633   2.853  20.295  0.00  0.00    +0.000 C 
ENDBRANCH  13  16
ENDBRANCH  12  13
ENDBRANCH   1  12
TORSDOF 4
ENDMDL
MODEL 5
REMARK VINA RESULT:      -5.7      2.705      5.022
REMARK  Name = 
REMARK  5 active torsions:
REMARK  status: ('A' for Active; 'I' for Inactive)
REMARK    1  A    between atoms: C_1  and  C_2
REMARK    2  A    between atoms: C_2  and  N_3
REMARK    3  A    between atoms: N_3  and  C_4
REMARK    4  A    between atoms: C_4  and  C_5
REMARK    5  A    between atoms: C_9  and  C_10
REMARK                            x       y       z     vdW  Elec       q    Type
REMARK                         _______ _______ _______ _____ _____    ______ ____
ROOT
ATOM      1  C   UNL     1       4.616   5.117  18.696  0.00  0.00    +0.000 A 
ATOM      2  C   UNL     1       3.923   6.293  18.381  0.00  0.00    +0.000 A 
ATOM      3  C   UNL     1       2.559   6.256  18.085  0.00  0.00    +0.000 A 
ATOM      4  C   UNL     1       1.870   5.040  18.077  0.00  0.00    +0.000 A 
ATOM      5  C   UNL     1       2.544   3.852  18.383  0.00  0.00    +0.000 A 
ATOM      6  C   UNL     1       3.911   3.904  18.699  0.00  0.00    +0.000 A 
ENDROOT
BRANCH   5   7
ATOM      7  C   UNL     1       1.890   2.508  18.388  0.00  0.00    +0.000 C 
ATOM      8  N   UNL     1       2.673   1.391  18.374  0.00  0.00    +0.000 N 
ATOM      9  O   UNL     1       0.669   2.390  18.421  0.00  0.00    +0.000 OA
ATOM     10  H   UNL     1       3.679   1.384  18.366  0.00  0.00    +0.000 HD
ATOM     11  H   UNL     1       2.190   0.502  18.395  0.00  0.00    +0.000 HD
ENDBRANCH   5   7
BRANCH   1  12
ATOM     12  C   UNL     1       6.096   5.142  19.015  0.00  0.00    +0.000 C 
BRANCH  12  13
ATOM     13  N   UNL     1       6.834   4.208  18.168  0.00  0.00    +0.000 NA
ATOM     14  H   UNL     1       7.694   3.934  18.637  0.00  0.00    +0.000 HD
BRANCH  13  16
ATOM     15  C   UNL     1       6.387   4.046  15.789  0.00  0.00    +0.000 C 
ATOM     16  C   UNL     1       7.159   4.790  16.870  0.00  0.00    +0.000 C 
ENDBRANCH  13  16
ENDBRANCH  12  13
ENDBRANCH   1  12
TORSDOF 4
ENDMDL
MODEL 6
REMARK VINA RESULT:      -5.7      1.486      1.486
REMARK  Name = 
REMARK  5 active torsions:
REMARK  status: ('A' for Active; 'I' for Inactive)
REMARK    1  A    between atoms: C_1  and  C_2
REMARK    2  A    between atoms: C_2  and  N_3
REMARK    3  A    between atoms: N_3  and  C_4
REMARK    4  A    between atoms: C_4  and  C_5
REMARK    5  A    between atoms: C_9  and  C_10
REMARK                            x       y       z     vdW  Elec       q    Type
REMARK                         _______ _______ _______ _____ _____    ______ ____
ROOT
ATOM      1  C   UNL     1       3.939   3.989  17.276  0.00  0.00    +0.000 A 
ATOM      2  C   UNL     1       3.601   5.280  17.705  0.00  0.00    +0.000 A 
ATOM      3  C   UNL     1       4.201   6.400  17.125  0.00  0.00    +0.000 A 
ATOM      4  C   UNL     1       5.164   6.247  16.123  0.00  0.00    +0.000 A 
ATOM      5  C   UNL     1       5.520   4.966  15.683  0.00  0.00    +0.000 A 
ATOM      6  C   UNL     1       4.895   3.849  16.260  0.00  0.00    +0.000 A 
ENDROOT
BRANCH   5   7
ATOM      7  C   UNL     1       6.544   4.710  14.627  0.00  0.00    +0.000 C 
ATOM      8  N   UNL     1       7.682   5.463  14.611  0.00  0.00    +0.000 N 
ATOM      9  O   UNL     1       6.391   3.828  13.787  0.00  0.00    +0.000 OA
ATOM     10  H   UNL     1       7.907   6.194  15.265  0.00  0.00    +0.000 HD
ATOM     11  H   UNL     1       8.356   5.245  13.889  0.00  0.00    +0.000 HD
ENDBRANCH   5   7
BRANCH   1  12
ATOM     12  C   UNL     1       3.299   2.766  17.899  0.00  0.00    +0.000 C 
BRANCH  12  13
ATOM     13  N   UNL     1       3.009   2.987  19.314  0.00  0.00    +0.000 NA
ATOM     14  H   UNL     1       3.589   2.369  19.878  0.00  0.00    +0.000 HD
BRANCH  13  16
ATOM     15  C   UNL     1       1.029   3.979  20.304  0.00  0.00    +0.000 C 
ATOM     16  C   UNL     1       1.605   2.743  19.627  0.00  0.00    +0.000 C 
ENDBRANCH  13  16
ENDBRANCH  12  13
ENDBRANCH   1  12
TORSDOF 4
ENDMDL
MODEL 7
REMARK VINA RESULT:      -5.7      1.089      1.089
REMARK  Name = 
REMARK  5 active torsions:
REMARK  status: ('A' for Active; 'I' for Inactive)
REMARK    1  A    between atoms: C_1  and  C_2
REMARK    2  A    between atoms: C_2  and  N_3
REMARK    3  A    between atoms: N_3  and  C_4
REMARK    4  A    between atoms: C_4  and  C_5
REMARK    5  A    between atoms: C_9  and  C_10
REMARK                            x       y       z     vdW  Elec       q    Type
REMARK                         _______ _______ _______ _____ _____    ______ ____
ROOT
ATOM      1  C   UNL     1       3.545   4.151  17.540  0.00  0.00    +0.000 A 
ATOM      2  C   UNL     1       2.820   5.306  17.865  0.00  0.00    +0.000 A 
ATOM      3  C   UNL     1       3.426   6.563  17.815  0.00  0.00    +0.000 A 
ATOM      4  C   UNL     1       4.772   6.684  17.461  0.00  0.00    +0.000 A 
ATOM      5  C   UNL     1       5.518   5.544  17.138  0.00  0.00    +0.000 A 
ATOM      6  C   UNL     1       4.892   4.288  17.172  0.00  0.00    +0.000 A 
ENDROOT
BRANCH   5   7
ATOM      7  C   UNL     1       6.962   5.580  16.759  0.00  0.00    +0.000 C 
ATOM      8  N   UNL     1       7.563   6.788  16.555  0.00  0.00    +0.000 N 
ATOM      9  O   UNL     1       7.620   4.550  16.644  0.00  0.00    +0.000 OA
ATOM     10  H   UNL     1       7.115   7.685  16.643  0.00  0.00    +0.000 HD
ATOM     11  H   UNL     1       8.546   6.768  16.316  0.00  0.00    +0.000 HD
ENDBRANCH   5   7
BRANCH   1  12
ATOM     12  C   UNL     1       2.901   2.782  17.594  0.00  0.00    +0.000 C 
BRANCH  12  13
ATOM     13  N   UNL     1       2.687   2.355  18.975  0.00  0.00    +0.000 NA
ATOM     14  H   UNL     1       3.045   1.410  19.095  0.00  0.00    +0.000 HD
BRANCH  13  16
ATOM     15  C   UNL     1       1.107   3.236  20.591  0.00  0.00    +0.000 C 
ATOM     16  C   UNL     1       1.274   2.383  19.340  0.00  0.00    +0.000 C 
ENDBRANCH  13  16
ENDBRANCH  12  13
ENDBRANCH   1  12
TORSDOF 4
ENDMDL
MODEL 8
REMARK VINA RESULT:      -5.7      1.610      1.740
REMARK  Name = 
REMARK  5 active torsions:
REMARK  status: ('A' for Active; 'I' for Inactive)
REMARK    1  A    between atoms: C_1  and  C_2
REMARK    2  A    between atoms: C_2  and  N_3
REMARK    3  A    between atoms: N_3  and  C_4
REMARK    4  A    between atoms: C_4  and  C_5
REMARK    5  A    between atoms: C_9  and  C_10
REMARK                            x       y       z     vdW  Elec       q    Type
REMARK                         _______ _______ _______ _____ _____    ______ ____
ROOT
ATOM      1  C   UNL     1       3.982   3.230  17.855  0.00  0.00    +0.000 A 
ATOM      2  C   UNL     1       4.408   3.552  19.151  0.00  0.00    +0.000 A 
ATOM      3  C   UNL     1       5.322   4.586  19.361  0.00  0.00    +0.000 A 
ATOM      4  C   UNL     1       5.841   5.301  18.279  0.00  0.00    +0.000 A 
ATOM      5  C   UNL     1       5.434   4.994  16.976  0.00  0.00    +0.000 A 
ATOM      6  C   UNL     1       4.500   3.965  16.778  0.00  0.00    +0.000 A 
ENDROOT
BRANCH   5   7
ATOM      7  C   UNL     1       5.945   5.698  15.762  0.00  0.00    +0.000 C 
ATOM      8  N   UNL     1       7.181   5.377  15.280  0.00  0.00    +0.000 N 
ATOM      9  O   UNL     1       5.272   6.545  15.181  0.00  0.00    +0.000 OA
ATOM     10  H   UNL     1       7.799   4.687  15.673  0.00  0.00    +0.000 HD
ATOM     11  H   UNL     1       7.482   5.867  14.447  0.00  0.00    +0.000 HD
ENDBRANCH   5   7
BRANCH   1  12
ATOM     12  C   UNL     1       2.995   2.108  17.611  0.00  0.00    +0.000 C 
BRANCH  12  13
ATOM     13  N   UNL     1       2.241   1.797  18.824  0.00  0.00    +0.000 NA
ATOM     14  H   UNL     1       2.103   0.791  18.887  0.00  0.00    +0.000 HD
BRANCH  13  16
ATOM     15  C   UNL     1       0.859   3.346  20.079  0.00  0.00    +0.000 C 
ATOM     16  C   UNL     1       0.942   2.462  18.843  0.00  0.00    +0.000 C 
ENDBRANCH  13  16
ENDBRANCH  12  13
ENDBRANCH   1  12
TORSDOF 4
ENDMDL
MODEL 9
REMARK VINA RESULT:      -5.7      1.798      2.012
REMARK  Name = 
REMARK  5 active torsions:
REMARK  status: ('A' for Active; 'I' for Inactive)
REMARK    1  A    between atoms: C_1  and  C_2
REMARK    2  A    between atoms: C_2  and  N_3
REMARK    3  A    between atoms: N_3  and  C_4
REMARK    4  A    between atoms: C_4  and  C_5
REMARK    5  A    between atoms: C_9  and  C_10
REMARK                            x       y       z     vdW  Elec       q    Type
REMARK                         _______ _______ _______ _____ _____    ______ ____
ROOT
ATOM      1  C   UNL     1       4.363   4.765  17.925  0.00  0.00    +0.000 A 
ATOM      2  C   UNL     1       3.936   6.100  17.961  0.00  0.00    +0.000 A 
ATOM      3  C   UNL     1       4.352   7.004  16.982  0.00  0.00    +0.000 A 
ATOM      4  C   UNL     1       5.220   6.596  15.965  0.00  0.00    +0.000 A 
ATOM      5  C   UNL     1       5.664   5.270  15.913  0.00  0.00    +0.000 A 
ATOM      6  C   UNL     1       5.223   4.364  16.891  0.00  0.00    +0.000 A 
ENDROOT
BRANCH   5   7
ATOM      7  C   UNL     1       6.598   4.750  14.870  0.00  0.00    +0.000 C 
ATOM      8  N   UNL     1       6.282   3.597  14.213  0.00  0.00    +0.000 N 
ATOM      9  O   UNL     1       7.632   5.347  14.582  0.00  0.00    +0.000 OA
ATOM     10  H   UNL     1       5.452   3.048  14.364  0.00  0.00    +0.000 HD
ATOM     11  H   UNL     1       6.934   3.290  13.503  0.00  0.00    +0.000 HD
ENDBRANCH   5   7
BRANCH   1  12
ATOM     12  C   UNL     1       3.923   3.774  18.982  0.00  0.00    +0.000 C 
BRANCH  12  13
ATOM     13  N   UNL     1       4.491   2.451  18.733  0.00  0.00    +0.000 NA
ATOM     14  H   UNL     1       5.101   2.493  17.920  0.00  0.00    +0.000 HD
BRANCH  13  16
ATOM     15  C   UNL     1       2.091   2.108  18.653  0.00  0.00    +0.000 C 
ATOM     16  C   UNL     1       3.456   1.449  18.505  0.00  0.00    +0.000 C 
ENDBRANCH  13  16
ENDBRANCH  12  13
ENDBRANCH   1  12
TORSDOF 4
ENDMDL
