MODEL 1
REMARK VINA RESULT:      -7.0      0.000      0.000
REMARK  Name = 
REMARK  11 active torsions:
REMARK  status: ('A' for Active; 'I' for Inactive)
REMARK    1  A    between atoms: N_5  and  C_6
REMARK    2  A    between atoms: C_6  and  C_7
REMARK    3  A    between atoms: C_7  and  C_8
REMARK    4  A    between atoms: C_8  and  C_9
REMARK    5  A    between atoms: C_9  and  C_10
REMARK    6  A    between atoms: C_10  and  C_11
REMARK    7  A    between atoms: C_11  and  C_12
REMARK    8  A    between atoms: C_12  and  C_13
REMARK    9  A    between atoms: C_13  and  C_14
REMARK   10  A    between atoms: C_14  and  C_15
REMARK   11  A    between atoms: C_15  and  N_16
REMARK                            x       y       z     vdW  Elec       q    Type
REMARK                         _______ _______ _______ _____ _____    ______ ____
ROOT
ATOM      1  C   UNL     1       7.814   8.577  17.710  0.00  0.00    +0.000 C 
ENDROOT
BRANCH   1   2
ATOM      2  C   UNL     1       8.868   9.094  18.684  0.00  0.00    +0.000 C 
BRANCH   2   3
ATOM      3  C   UNL     1       8.994  10.614  18.618  0.00  0.00    +0.000 C 
BRANCH   3   4
ATOM      4  C   UNL     1       9.605  11.145  19.912  0.00  0.00    +0.000 C 
BRANCH   4   5
ATOM      5  C   UNL     1      11.059  11.577  19.722  0.00  0.00    +0.000 C 
BRANCH   5  10
ATOM      6  N   UNL     1      10.920  15.762  16.025  0.00  0.00    +0.000 NA
ATOM      7  C   UNL     1      11.015  14.803  16.888  0.00  0.00    +0.000 A 
ATOM      8  C   UNL     1      11.794  13.563  16.635  0.00  0.00    +0.000 A 
ATOM      9  C   UNL     1      11.792  12.616  17.582  0.00  0.00    +0.000 A 
ATOM     10  N   UNL     1      11.120  12.717  18.794  0.00  0.00    +0.000 N 
ATOM     11  C   UNL     1      10.406  13.882  19.044  0.00  0.00    +0.000 A 
ATOM     12  C   UNL     1      10.319  14.913  18.194  0.00  0.00    +0.000 A 
ATOM     13  H   UNL     1      11.445  15.537  15.176  0.00  0.00    +0.000 HD
ENDBRANCH   5  10
ENDBRANCH   4   5
ENDBRANCH   3   4
ENDBRANCH   2   3
ENDBRANCH   1   2
BRANCH   1  14
ATOM     14  C   UNL     1       7.663   7.061  17.838  0.00  0.00    +0.000 C 
BRANCH  14  15
ATOM     15  C   UNL     1       6.872   6.500  16.662  0.00  0.00    +0.000 C 
BRANCH  15  16
ATOM     16  C   UNL     1       5.664   5.691  17.131  0.00  0.00    +0.000 C 
BRANCH  16  17
ATOM     17  C   UNL     1       5.647   5.613  18.656  0.00  0.00    +0.000 C 
BRANCH  17  18
ATOM     18  C   UNL     1       5.442   4.182  19.151  0.00  0.00    +0.000 C 
BRANCH  18  19
ATOM     19  N   UNL     1       4.058   3.760  18.891  0.00  0.00    +0.000 N 
ATOM     20  C   UNL     1       2.989   4.355  19.549  0.00  0.00    +0.000 A 
ATOM     21  C   UNL     1       1.718   3.941  19.460  0.00  0.00    +0.000 A 
ATOM     22  C   UNL     1       1.430   2.751  18.615  0.00  0.00    +0.000 A 
ATOM     23  N   UNL     1       0.249   2.237  18.501  0.00  0.00    +0.000 NA
ATOM     24  C   UNL     1       2.573   2.141  17.893  0.00  0.00    +0.000 A 
ATOM     25  C   UNL     1       3.789   2.666  18.076  0.00  0.00    +0.000 A 
ATOM     26  H   UNL     1      -0.429   2.758  19.064  0.00  0.00    +0.000 HD
ENDBRANCH  18  19
ENDBRANCH  17  18
ENDBRANCH  16  17
ENDBRANCH  15  16
ENDBRANCH  14  15
ENDBRANCH   1  14
TORSDOF 11
ENDMDL
MODEL 2
REMARK VINA RESULT:      -6.9      6.055      8.397
REMARK  Name = 
REMARK  11 active torsions:
REMARK  status: ('A' for Active; 'I' for Inactive)
REMARK    1  A    between atoms: N_5  and  C_6
REMARK    2  A    between atoms: C_6  and  C_7
REMARK    3  A    between atoms: C_7  and  C_8
REMARK    4  A    between atoms: C_8  and  C_9
REMARK    5  A    between atoms: C_9  and  C_10
REMARK    6  A    between atoms: C_10  and  C_11
REMARK    7  A    between atoms: C_11  and  C_12
REMARK    8  A    between atoms: C_12  and  C_13
REMARK    9  A    between atoms: C_13  and  C_14
REMARK   10  A    between atoms: C_14  and  C_15
REMARK   11  A    between atoms: C_15  and  N_16
REMARK                            x       y       z     vdW  Elec       q    Type
REMARK                         _______ _______ _______ _____ _____    ______ ____
ROOT
ATOM      1  C   UNL     1       2.152   5.373  20.748  0.00  0.00    +0.000 C 
ENDROOT
BRANCH   1   2
ATOM      2  C   UNL     1       2.128   5.979  19.348  0.00  0.00    +0.000 C 
BRANCH   2   3
ATOM      3  C   UNL     1       2.237   7.501  19.395  0.00  0.00    +0.000 C 
BRANCH   3   4
ATOM      4  C   UNL     1       1.979   8.087  18.009  0.00  0.00    +0.000 C 
BRANCH   4   5
ATOM      5  C   UNL     1       2.144   9.606  17.992  0.00  0.00    +0.000 C 
BRANCH   5  10
ATOM      6  N   UNL     1      -2.703  12.246  18.849  0.00  0.00    +0.000 NA
ATOM      7  C   UNL     1      -1.576  11.626  18.714  0.00  0.00    +0.000 A 
ATOM      8  C   UNL     1      -0.293  12.160  19.240  0.00  0.00    +0.000 A 
ATOM      9  C   UNL     1       0.822  11.455  19.008  0.00  0.00    +0.000 A 
ATOM     10  N   UNL     1       0.862  10.249  18.319  0.00  0.00    +0.000 N 
ATOM     11  C   UNL     1      -0.338   9.735  17.842  0.00  0.00    +0.000 A 
ATOM     12  C   UNL     1      -1.529  10.327  17.999  0.00  0.00    +0.000 A 
ATOM     13  H   UNL     1      -2.573  13.127  19.354  0.00  0.00    +0.000 HD
ENDBRANCH   5  10
ENDBRANCH   4   5
ENDBRANCH   3   4
ENDBRANCH   2   3
ENDBRANCH   1   2
BRANCH   1  14
ATOM     14  C   UNL     1       1.523   3.980  20.740  0.00  0.00    +0.000 C 
BRANCH  14  15
ATOM     15  C   UNL     1       0.767   3.739  19.438  0.00  0.00    +0.000 C 
BRANCH  15  16
ATOM     16  C   UNL     1       1.116   2.382  18.828  0.00  0.00    +0.000 C 
BRANCH  16  17
ATOM     17  C   UNL     1       2.473   1.910  19.343  0.00  0.00    +0.000 C 
BRANCH  17  18
ATOM     18  C   UNL     1       3.524   1.879  18.234  0.00  0.00    +0.000 C 
BRANCH  18  19
ATOM     19  N   UNL     1       4.134   3.210  18.091  0.00  0.00    +0.000 N 
ATOM     20  C   UNL     1       4.016   3.930  16.909  0.00  0.00    +0.000 A 
ATOM     21  C   UNL     1       4.647   5.086  16.659  0.00  0.00    +0.000 A 
ATOM     22  C   UNL     1       5.550   5.628  17.709  0.00  0.00    +0.000 A 
ATOM     23  N   UNL     1       6.245   6.707  17.552  0.00  0.00    +0.000 NA
ATOM     24  C   UNL     1       5.645   4.868  18.979  0.00  0.00    +0.000 A 
ATOM     25  C   UNL     1       4.953   3.728  19.086  0.00  0.00    +0.000 A 
ATOM     26  H   UNL     1       6.083   7.111  16.625  0.00  0.00    +0.000 HD
ENDBRANCH  18  19
ENDBRANCH  17  18
ENDBRANCH  16  17
ENDBRANCH  15  16
ENDBRANCH  14  15
ENDBRANCH   1  14
TORSDOF 11
ENDMDL
MODEL 3
REMARK VINA RESULT:      -6.9      4.691      7.633
REMARK  Name = 
REMARK  11 active torsions:
REMARK  status: ('A' for Active; 'I' for Inactive)
REMARK    1  A    between atoms: N_5  and  C_6
REMARK    2  A    between atoms: C_6  and  C_7
REMARK    3  A    between atoms: C_7  and  C_8
REMARK    4  A    between atoms: C_8  and  C_9
REMARK    5  A    between atoms: C_9  and  C_10
REMARK    6  A    between atoms: C_10  and  C_11
REMARK    7  A    between atoms: C_11  and  C_12
REMARK    8  A    between atoms: C_12  and  C_13
REMARK    9  A    between atoms: C_13  and  C_14
REMARK   10  A    between atoms: C_14  and  C_15
REMARK   11  A    between atoms: C_15  and  N_16
REMARK                            x       y       z     vdW  Elec       q    Type
REMARK                         _______ _______ _______ _____ _____    ______ ____
ROOT
ATOM      1  C   UNL     1       1.524   2.328  18.392  0.00  0.00    +0.000 C 
ENDROOT
BRANCH   1   2
ATOM      2  C   UNL     1       2.291   2.974  17.244  0.00  0.00    +0.000 C 
BRANCH   2   3
ATOM      3  C   UNL     1       3.765   3.170  17.593  0.00  0.00    +0.000 C 
BRANCH   3   4
ATOM      4  C   UNL     1       4.397   4.184  16.645  0.00  0.00    +0.000 C 
BRANCH   4   5
ATOM      5  C   UNL     1       5.883   3.906  16.419  0.00  0.00    +0.000 C 
BRANCH   5  10
ATOM      6  N   UNL     1       8.611   8.025  19.025  0.00  0.00    +0.000 NA
ATOM      7  C   UNL     1       8.016   7.081  18.371  0.00  0.00    +0.000 A 
ATOM      8  C   UNL     1       7.196   7.334  17.157  0.00  0.00    +0.000 A 
ATOM      9  C   UNL     1       6.591   6.287  16.580  0.00  0.00    +0.000 A 
ATOM     10  N   UNL     1       6.687   4.976  17.030  0.00  0.00    +0.000 N 
ATOM     11  C   UNL     1       7.468   4.732  18.153  0.00  0.00    +0.000 A 
ATOM     12  C   UNL     1       8.132   5.676  18.832  0.00  0.00    +0.000 A 
ATOM     13  H   UNL     1       8.432   8.935  18.591  0.00  0.00    +0.000 HD
ENDBRANCH   5  10
ENDBRANCH   4   5
ENDBRANCH   3   4
ENDBRANCH   2   3
ENDBRANCH   1   2
BRANCH   1  14
ATOM     14  C   UNL     1       0.893   3.396  19.285  0.00  0.00    +0.000 C 
BRANCH  14  15
ATOM     15  C   UNL     1       1.009   3.005  20.753  0.00  0.00    +0.000 C 
BRANCH  15  16
ATOM     16  C   UNL     1       2.256   3.607  21.399  0.00  0.00    +0.000 C 
BRANCH  16  17
ATOM     17  C   UNL     1       2.605   4.932  20.728  0.00  0.00    +0.000 C 
BRANCH  17  18
ATOM     18  C   UNL     1       1.590   6.025  21.061  0.00  0.00    +0.000 C 
BRANCH  18  19
ATOM     19  N   UNL     1       1.776   7.169  20.156  0.00  0.00    +0.000 N 
ATOM     20  C   UNL     1       1.182   8.397  20.419  0.00  0.00    +0.000 A 
ATOM     21  C   UNL     1       1.201   9.443  19.581  0.00  0.00    +0.000 A 
ATOM     22  C   UNL     1       1.888   9.276  18.272  0.00  0.00    +0.000 A 
ATOM     23  N   UNL     1       1.921  10.202  17.371  0.00  0.00    +0.000 NA
ATOM     24  C   UNL     1       2.545   7.972  18.015  0.00  0.00    +0.000 A 
ATOM     25  C   UNL     1       2.445   7.019  18.948  0.00  0.00    +0.000 A 
ATOM     26  H   UNL     1       1.417  11.035  17.688  0.00  0.00    +0.000 HD
ENDBRANCH  18  19
ENDBRANCH  17  18
ENDBRANCH  16  17
ENDBRANCH  15  16
ENDBRANCH  14  15
ENDBRANCH   1  14
TORSDOF 11
ENDMDL
MODEL 4
REMARK VINA RESULT:      -6.8      0.989     11.422
REMARK  Name = 
REMARK  11 active torsions:
REMARK  status: ('A' for Active; 'I' for Inactive)
REMARK    1  A    between atoms: N_5  and  C_6
REMARK    2  A    between atoms: C_6  and  C_7
REMARK    3  A    between atoms: C_7  and  C_8
REMARK    4  A    between atoms: C_8  and  C_9
REMARK    5  A    between atoms: C_9  and  C_10
REMARK    6  A    between atoms: C_10  and  C_11
REMARK    7  A    between atoms: C_11  and  C_12
REMARK    8  A    between atoms: C_12  and  C_13
REMARK    9  A    between atoms: C_13  and  C_14
REMARK   10  A    between atoms: C_14  and  C_15
REMARK   11  A    between atoms: C_15  and  N_16
REMARK                            x       y       z     vdW  Elec       q    Type
REMARK                         _______ _______ _______ _____ _____    ______ ____
ROOT
ATOM      1  C   UNL     1       7.859   8.711  17.746  0.00  0.00    +0.000 C 
ENDROOT
BRANCH   1   2
ATOM      2  C   UNL     1       7.691   7.196  17.723  0.00  0.00    +0.000 C 
BRANCH   2   3
ATOM      3  C   UNL     1       6.284   6.794  17.287  0.00  0.00    +0.000 C 
BRANCH   3   4
ATOM      4  C   UNL     1       5.978   5.373  17.751  0.00  0.00    +0.000 C 
BRANCH   4   5
ATOM      5  C   UNL     1       5.631   5.320  19.238  0.00  0.00    +0.000 C 
BRANCH   5  10
ATOM      6  N   UNL     1       0.586   3.185  20.330  0.00  0.00    +0.000 NA
ATOM      7  C   UNL     1       1.748   3.660  20.017  0.00  0.00    +0.000 A 
ATOM      8  C   UNL     1       2.885   2.800  19.596  0.00  0.00    +0.000 A 
ATOM      9  C   UNL     1       4.056   3.394  19.333  0.00  0.00    +0.000 A 
ATOM     10  N   UNL     1       4.281   4.763  19.413  0.00  0.00    +0.000 N 
ATOM     11  C   UNL     1       3.216   5.573  19.788  0.00  0.00    +0.000 A 
ATOM     12  C   UNL     1       1.989   5.122  20.079  0.00  0.00    +0.000 A 
ATOM     13  H   UNL     1       0.578   2.164  20.246  0.00  0.00    +0.000 HD
ENDBRANCH   5  10
ENDBRANCH   4   5
ENDBRANCH   3   4
ENDBRANCH   2   3
ENDBRANCH   1   2
BRANCH   1  14
ATOM     14  C   UNL     1       8.790   9.131  18.883  0.00  0.00    +0.000 C 
BRANCH  14  15
ATOM     15  C   UNL     1       9.532  10.413  18.524  0.00  0.00    +0.000 C 
BRANCH  15  16
ATOM     16  C   UNL     1       9.268  11.521  19.542  0.00  0.00    +0.000 C 
BRANCH  16  17
ATOM     17  C   UNL     1      10.471  11.678  20.468  0.00  0.00    +0.000 C 
BRANCH  17  18
ATOM     18  C   UNL     1      11.772  11.857  19.686  0.00  0.00    +0.000 C 
BRANCH  18  19
ATOM     19  N   UNL     1      11.656  13.014  18.786  0.00  0.00    +0.000 N 
ATOM     20  C   UNL     1      11.297  14.267  19.269  0.00  0.00    +0.000 A 
ATOM     21  C   UNL     1      11.048  15.334  18.498  0.00  0.00    +0.000 A 
ATOM     22  C   UNL     1      11.142  15.166  17.023  0.00  0.00    +0.000 A 
ATOM     23  N   UNL     1      10.873  16.115  16.188  0.00  0.00    +0.000 NA
ATOM     24  C   UNL     1      11.555  13.834  16.519  0.00  0.00    +0.000 A 
ATOM     25  C   UNL     1      11.775  12.861  17.410  0.00  0.00    +0.000 A 
ATOM     26  H   UNL     1      10.593  16.966  16.684  0.00  0.00    +0.000 HD
ENDBRANCH  18  19
ENDBRANCH  17  18
ENDBRANCH  16  17
ENDBRANCH  15  16
ENDBRANCH  14  15
ENDBRANCH   1  14
TORSDOF 11
ENDMDL
MODEL 5
REMARK VINA RESULT:      -6.8      6.457      8.570
REMARK  Name = 
REMARK  11 active torsions:
REMARK  status: ('A' for Active; 'I' for Inactive)
REMARK    1  A    between atoms: N_5  and  C_6
REMARK    2  A    between atoms: C_6  and  C_7
REMARK    3  A    between atoms: C_7  and  C_8
REMARK    4  A    between atoms: C_8  and  C_9
REMARK    5  A    between atoms: C_9  and  C_10
REMARK    6  A    between atoms: C_10  and  C_11
REMARK    7  A    between atoms: C_11  and  C_12
REMARK    8  A    between atoms: C_12  and  C_13
REMARK    9  A    between atoms: C_13  and  C_14
REMARK   10  A    between atoms: C_14  and  C_15
REMARK   11  A    between atoms: C_15  and  N_16
REMARK                            x       y       z     vdW  Elec       q    Type
REMARK                         _______ _______ _______ _____ _____    ______ ____
ROOT
ATOM      1  C   UNL     1       0.637   2.884  19.567  0.00  0.00    +0.000 C 
ENDROOT
BRANCH   1   2
ATOM      2  C   UNL     1       1.210   2.943  20.979  0.00  0.00    +0.000 C 
BRANCH   2   3
ATOM      3  C   UNL     1       1.983   4.239  21.217  0.00  0.00    +0.000 C 
BRANCH   3   4
ATOM      4  C   UNL     1       1.359   5.375  20.412  0.00  0.00    +0.000 C 
BRANCH   4   5
ATOM      5  C   UNL     1       2.406   6.382  19.938  0.00  0.00    +0.000 C 
BRANCH   5  10
ATOM      6  N   UNL     1      -0.128  11.360  19.986  0.00  0.00    +0.000 NA
ATOM      7  C   UNL     1       0.515  10.237  19.965  0.00  0.00    +0.000 A 
ATOM      8  C   UNL     1       1.198   9.721  18.750  0.00  0.00    +0.000 A 
ATOM      9  C   UNL     1       1.800   8.527  18.829  0.00  0.00    +0.000 A 
ATOM     10  N   UNL     1       1.841   7.740  19.974  0.00  0.00    +0.000 N 
ATOM     11  C   UNL     1       1.220   8.227  21.118  0.00  0.00    +0.000 A 
ATOM     12  C   UNL     1       0.582   9.402  21.189  0.00  0.00    +0.000 A 
ATOM     13  H   UNL     1      -0.092  11.814  19.069  0.00  0.00    +0.000 HD
ENDBRANCH   5  10
ENDBRANCH   4   5
ENDBRANCH   3   4
ENDBRANCH   2   3
ENDBRANCH   1   2
BRANCH   1  14
ATOM     14  C   UNL     1       1.519   2.021  18.665  0.00  0.00    +0.000 C 
BRANCH  14  15
ATOM     15  C   UNL     1       2.441   2.894  17.822  0.00  0.00    +0.000 C 
BRANCH  15  16
ATOM     16  C   UNL     1       3.900   2.457  17.945  0.00  0.00    +0.000 C 
BRANCH  16  17
ATOM     17  C   UNL     1       4.554   3.148  19.139  0.00  0.00    +0.000 C 
BRANCH  17  18
ATOM     18  C   UNL     1       4.875   4.613  18.843  0.00  0.00    +0.000 C 
BRANCH  18  19
ATOM     19  N   UNL     1       5.540   4.721  17.536  0.00  0.00    +0.000 N 
ATOM     20  C   UNL     1       6.879   4.383  17.381  0.00  0.00    +0.000 A 
ATOM     21  C   UNL     1       7.584   4.574  16.257  0.00  0.00    +0.000 A 
ATOM     22  C   UNL     1       6.896   5.209  15.102  0.00  0.00    +0.000 A 
ATOM     23  N   UNL     1       7.496   5.486  13.990  0.00  0.00    +0.000 NA
ATOM     24  C   UNL     1       5.460   5.539  15.267  0.00  0.00    +0.000 A 
ATOM     25  C   UNL     1       4.885   5.287  16.448  0.00  0.00    +0.000 A 
ATOM     26  H   UNL     1       8.481   5.211  14.032  0.00  0.00    +0.000 HD
ENDBRANCH  18  19
ENDBRANCH  17  18
ENDBRANCH  16  17
ENDBRANCH  15  16
ENDBRANCH  14  15
ENDBRANCH   1  14
TORSDOF 11
ENDMDL
MODEL 6
REMARK VINA RESULT:      -6.7      6.204      8.719
REMARK  Name = 
REMARK  11 active torsions:
REMARK  status: ('A' for Active; 'I' for Inactive)
REMARK    1  A    between atoms: N_5  and  C_6
REMARK    2  A    between atoms: C_6  and  C_7
REMARK    3  A    between atoms: C_7  and  C_8
REMARK    4  A    between atoms: C_8  and  C_9
REMARK    5  A    between atoms: C_9  and  C_10
REMARK    6  A    between atoms: C_10  and  C_11
REMARK    7  A    between atoms: C_11  and  C_12
REMARK    8  A    between atoms: C_12  and  C_13
REMARK    9  A    between atoms: C_13  and  C_14
REMARK   10  A    between atoms: C_14  and  C_15
REMARK   11  A    between atoms: C_15  and  N_16
REMARK                            x       y       z     vdW  Elec       q    Type
REMARK                         _______ _______ _______ _____ _____    ______ ____
ROOT
ATOM      1  C   UNL     1       2.049   6.547  20.657  0.00  0.00    +0.000 C 
ENDROOT
BRANCH   1   2
ATOM      2  C   UNL     1       1.792   7.881  19.964  0.00  0.00    +0.000 C 
BRANCH   2   3
ATOM      3  C   UNL     1       2.325   7.882  18.533  0.00  0.00    +0.000 C 
BRANCH   3   4
ATOM      4  C   UNL     1       1.716   9.041  17.749  0.00  0.00    +0.000 C 
BRANCH   4   5
ATOM      5  C   UNL     1       1.436  10.250  18.641  0.00  0.00    +0.000 C 
BRANCH   5  10
ATOM      6  N   UNL     1      -3.850  11.895  17.900  0.00  0.00    +0.000 NA
ATOM      7  C   UNL     1      -2.640  11.502  18.133  0.00  0.00    +0.000 A 
ATOM      8  C   UNL     1      -1.717  12.227  19.045  0.00  0.00    +0.000 A 
ATOM      9  C   UNL     1      -0.471  11.755  19.183  0.00  0.00    +0.000 A 
ATOM     10  N   UNL     1       0.017  10.624  18.541  0.00  0.00    +0.000 N 
ATOM     11  C   UNL     1      -0.847   9.931  17.701  0.00  0.00    +0.000 A 
ATOM     12  C   UNL     1      -2.118  10.283  17.468  0.00  0.00    +0.000 A 
ATOM     13  H   UNL     1      -4.059  12.750  18.422  0.00  0.00    +0.000 HD
ENDBRANCH   5  10
ENDBRANCH   4   5
ENDBRANCH   3   4
ENDBRANCH   2   3
ENDBRANCH   1   2
BRANCH   1  14
ATOM     14  C   UNL     1       1.780   5.385  19.701  0.00  0.00    +0.000 C 
BRANCH  14  15
ATOM     15  C   UNL     1       1.081   4.242  20.428  0.00  0.00    +0.000 C 
BRANCH  15  16
ATOM     16  C   UNL     1       0.996   2.990  19.558  0.00  0.00    +0.000 C 
BRANCH  16  17
ATOM     17  C   UNL     1       2.273   2.165  19.701  0.00  0.00    +0.000 C 
BRANCH  17  18
ATOM     18  C   UNL     1       2.996   1.998  18.365  0.00  0.00    +0.000 C 
BRANCH  18  19
ATOM     19  N   UNL     1       3.912   3.128  18.151  0.00  0.00    +0.000 N 
ATOM     20  C   UNL     1       4.763   3.563  19.159  0.00  0.00    +0.000 A 
ATOM     21  C   UNL     1       5.531   4.659  19.082  0.00  0.00    +0.000 A 
ATOM     22  C   UNL     1       5.455   5.479  17.843  0.00  0.00    +0.000 A 
ATOM     23  N   UNL     1       6.113   6.581  17.686  0.00  0.00    +0.000 NA
ATOM     24  C   UNL     1       4.567   4.989  16.762  0.00  0.00    +0.000 A 
ATOM     25  C   UNL     1       3.861   3.874  16.979  0.00  0.00    +0.000 A 
ATOM     26  H   UNL     1       6.670   6.792  18.519  0.00  0.00    +0.000 HD
ENDBRANCH  18  19
ENDBRANCH  17  18
ENDBRANCH  16  17
ENDBRANCH  15  16
ENDBRANCH  14  15
ENDBRANCH   1  14
TORSDOF 11
ENDMDL
MODEL 7
REMARK VINA RESULT:      -6.7      1.506      2.130
REMARK  Name = 
REMARK  11 active torsions:
REMARK  status: ('A' for Active; 'I' for Inactive)
REMARK    1  A    between atoms: N_5  and  C_6
REMARK    2  A    between atoms: C_6  and  C_7
REMARK    3  A    between atoms: C_7  and  C_8
REMARK    4  A    between atoms: C_8  and  C_9
REMARK    5  A    between atoms: C_9  and  C_10
REMARK    6  A    between atoms: C_10  and  C_11
REMARK    7  A    between atoms: C_11  and  C_12
REMARK    8  A    between atoms: C_12  and  C_13
REMARK    9  A    between atoms: C_13  and  C_14
REMARK   10  A    between atoms: C_14  and  C_15
REMARK   11  A    between atoms: C_15  and  N_16
REMARK                            x       y       z     vdW  Elec       q    Type
REMARK                         _______ _______ _______ _____ _____    ______ ____
ROOT
ATOM      1  C   UNL     1       7.071   7.199  18.181  0.00  0.00    +0.000 C 
ENDROOT
BRANCH   1   2
ATOM      2  C   UNL     1       7.893   8.092  17.258  0.00  0.00    +0.000 C 
BRANCH   2   3
ATOM      3  C   UNL     1       8.126   9.470  17.872  0.00  0.00    +0.000 C 
BRANCH   3   4
ATOM      4  C   UNL     1       9.117   9.368  19.028  0.00  0.00    +0.000 C 
BRANCH   4   5
ATOM      5  C   UNL     1       9.211  10.673  19.817  0.00  0.00    +0.000 C 
BRANCH   5  10
ATOM      6  N   UNL     1      11.299  14.459  16.281  0.00  0.00    +0.000 NA
ATOM      7  C   UNL     1      10.861  13.598  17.142  0.00  0.00    +0.000 A 
ATOM      8  C   UNL     1      11.644  12.406  17.561  0.00  0.00    +0.000 A 
ATOM      9  C   UNL     1      11.078  11.558  18.429  0.00  0.00    +0.000 A 
ATOM     10  N   UNL     1       9.811  11.720  18.976  0.00  0.00    +0.000 N 
ATOM     11  C   UNL     1       9.083  12.843  18.602  0.00  0.00    +0.000 A 
ATOM     12  C   UNL     1       9.519  13.777  17.747  0.00  0.00    +0.000 A 
ATOM     13  H   UNL     1      12.231  14.196  15.950  0.00  0.00    +0.000 HD
ENDBRANCH   5  10
ENDBRANCH   4   5
ENDBRANCH   3   4
ENDBRANCH   2   3
ENDBRANCH   1   2
BRANCH   1  14
ATOM     14  C   UNL     1       7.670   5.794  18.243  0.00  0.00    +0.000 C 
BRANCH  14  15
ATOM     15  C   UNL     1       6.567   4.741  18.261  0.00  0.00    +0.000 C 
BRANCH  15  16
ATOM     16  C   UNL     1       5.484   5.044  17.227  0.00  0.00    +0.000 C 
BRANCH  16  17
ATOM     17  C   UNL     1       4.649   3.793  16.963  0.00  0.00    +0.000 C 
BRANCH  17  18
ATOM     18  C   UNL     1       3.156   4.052  17.163  0.00  0.00    +0.000 C 
BRANCH  18  19
ATOM     19  N   UNL     1       2.781   3.747  18.552  0.00  0.00    +0.000 N 
ATOM     20  C   UNL     1       3.570   2.923  19.345  0.00  0.00    +0.000 A 
ATOM     21  C   UNL     1       3.231   2.499  20.570  0.00  0.00    +0.000 A 
ATOM     22  C   UNL     1       1.913   2.921  21.114  0.00  0.00    +0.000 A 
ATOM     23  N   UNL     1       1.466   2.528  22.262  0.00  0.00    +0.000 NA
ATOM     24  C   UNL     1       1.092   3.825  20.273  0.00  0.00    +0.000 A 
ATOM     25  C   UNL     1       1.562   4.169  19.069  0.00  0.00    +0.000 A 
ATOM     26  H   UNL     1       2.137   1.903  22.717  0.00  0.00    +0.000 HD
ENDBRANCH  18  19
ENDBRANCH  17  18
ENDBRANCH  16  17
ENDBRANCH  15  16
ENDBRANCH  14  15
ENDBRANCH   1  14
TORSDOF 11
ENDMDL
MODEL 8
REMARK VINA RESULT:      -6.7      5.999      9.011
REMARK  Name = 
REMARK  11 active torsions:
REMARK  status: ('A' for Active; 'I' for Inactive)
REMARK    1  A    between atoms: N_5  and  C_6
REMARK    2  A    between atoms: C_6  and  C_7
REMARK    3  A    between atoms: C_7  and  C_8
REMARK    4  A    between atoms: C_8  and  C_9
REMARK    5  A    between atoms: C_9  and  C_10
REMARK    6  A    between atoms: C_10  and  C_11
REMARK    7  A    between atoms: C_11  and  C_12
REMARK    8  A    between atoms: C_12  and  C_13
REMARK    9  A    between atoms: C_13  and  C_14
REMARK   10  A    between atoms: C_14  and  C_15
REMARK   11  A    between atoms: C_15  and  N_16
REMARK                            x       y       z     vdW  Elec       q    Type
REMARK                         _______ _______ _______ _____ _____    ______ ____
ROOT
ATOM      1  C   UNL     1       2.222   6.044  18.851  0.00  0.00    +0.000 C 
ENDROOT
BRANCH   1   2
ATOM      2  C   UNL     1       2.465   7.537  19.048  0.00  0.00    +0.000 C 
BRANCH   2   3
ATOM      3  C   UNL     1       1.909   8.354  17.884  0.00  0.00    +0.000 C 
BRANCH   3   4
ATOM      4  C   UNL     1       1.614   9.780  18.340  0.00  0.00    +0.000 C 
BRANCH   4   5
ATOM      5  C   UNL     1       0.463   9.832  19.344  0.00  0.00    +0.000 C 
BRANCH   5  10
ATOM      6  N   UNL     1      -4.251  11.905  17.179  0.00  0.00    +0.000 NA
ATOM      7  C   UNL     1      -3.127  11.453  17.633  0.00  0.00    +0.000 A 
ATOM      8  C   UNL     1      -2.304  10.455  16.900  0.00  0.00    +0.000 A 
ATOM      9  C   UNL     1      -1.177  10.024  17.481  0.00  0.00    +0.000 A 
ATOM     10  N   UNL     1      -0.714  10.455  18.718  0.00  0.00    +0.000 N 
ATOM     11  C   UNL     1      -1.470  11.402  19.398  0.00  0.00    +0.000 A 
ATOM     12  C   UNL     1      -2.615  11.924  18.942  0.00  0.00    +0.000 A 
ATOM     13  H   UNL     1      -4.472  11.482  16.274  0.00  0.00    +0.000 HD
ENDBRANCH   5  10
ENDBRANCH   4   5
ENDBRANCH   3   4
ENDBRANCH   2   3
ENDBRANCH   1   2
BRANCH   1  14
ATOM     14  C   UNL     1       1.748   5.401  20.154  0.00  0.00    +0.000 C 
BRANCH  14  15
ATOM     15  C   UNL     1       1.852   3.883  20.072  0.00  0.00    +0.000 C 
BRANCH  15  16
ATOM     16  C   UNL     1       1.200   3.341  18.801  0.00  0.00    +0.000 C 
BRANCH  16  17
ATOM     17  C   UNL     1       2.262   2.743  17.882  0.00  0.00    +0.000 C 
BRANCH  17  18
ATOM     18  C   UNL     1       3.632   2.684  18.558  0.00  0.00    +0.000 C 
BRANCH  18  19
ATOM     19  N   UNL     1       4.519   3.701  17.972  0.00  0.00    +0.000 N 
ATOM     20  C   UNL     1       4.514   3.958  16.607  0.00  0.00    +0.000 A 
ATOM     21  C   UNL     1       5.377   4.775  15.986  0.00  0.00    +0.000 A 
ATOM     22  C   UNL     1       6.425   5.436  16.808  0.00  0.00    +0.000 A 
ATOM     23  N   UNL     1       7.337   6.201  16.303  0.00  0.00    +0.000 NA
ATOM     24  C   UNL     1       6.403   5.179  18.269  0.00  0.00    +0.000 A 
ATOM     25  C   UNL     1       5.477   4.341  18.749  0.00  0.00    +0.000 A 
ATOM     26  H   UNL     1       7.229   6.273  15.288  0.00  0.00    +0.000 HD
ENDBRANCH  18  19
ENDBRANCH  17  18
ENDBRANCH  16  17
ENDBRANCH  15  16
ENDBRANCH  14  15
ENDBRANCH   1  14
TORSDOF 11
ENDMDL
MODEL 9
REMARK VINA RESULT:      -6.7      5.862      9.238
REMARK  Name = 
REMARK  11 active torsions:
REMARK  status: ('A' for Active; 'I' for Inactive)
REMARK    1  A    between atoms: N_5  and  C_6
REMARK    2  A    between atoms: C_6  and  C_7
REMARK    3  A    between atoms: C_7  and  C_8
REMARK    4  A    between atoms: C_8  and  C_9
REMARK    5  A    between atoms: C_9  and  C_10
REMARK    6  A    between atoms: C_10  and  C_11
REMARK    7  A    between atoms: C_11  and  C_12
REMARK    8  A    between atoms: C_12  and  C_13
REMARK    9  A    between atoms: C_13  and  C_14
REMARK   10  A    between atoms: C_14  and  C_15
REMARK   11  A    between atoms: C_15  and  N_16
REMARK                            x       y       z     vdW  Elec       q    Type
REMARK                         _______ _______ _______ _____ _____    ______ ____
ROOT
ATOM      1  C   UNL     1       1.763   4.066  20.622  0.00  0.00    +0.000 C 
ENDROOT
BRANCH   1   2
ATOM      2  C   UNL     1       1.100   3.211  19.547  0.00  0.00    +0.000 C 
BRANCH   2   3
ATOM      3  C   UNL     1       1.514   3.652  18.145  0.00  0.00    +0.000 C 
BRANCH   3   4
ATOM      4  C   UNL     1       2.439   2.611  17.521  0.00  0.00    +0.000 C 
BRANCH   4   5
ATOM      5  C   UNL     1       3.783   2.534  18.244  0.00  0.00    +0.000 C 
BRANCH   5  10
ATOM      6  N   UNL     1       7.354   6.504  16.604  0.00  0.00    +0.000 NA
ATOM      7  C   UNL     1       6.491   5.630  17.010  0.00  0.00    +0.000 A 
ATOM      8  C   UNL     1       6.227   5.363  18.448  0.00  0.00    +0.000 A 
ATOM      9  C   UNL     1       5.340   4.408  18.756  0.00  0.00    +0.000 A 
ATOM     10  N   UNL     1       4.638   3.655  17.823  0.00  0.00    +0.000 N 
ATOM     11  C   UNL     1       4.867   3.914  16.477  0.00  0.00    +0.000 A 
ATOM     12  C   UNL     1       5.721   4.838  16.019  0.00  0.00    +0.000 A 
ATOM     13  H   UNL     1       7.808   6.960  17.400  0.00  0.00    +0.000 HD
ENDBRANCH   5  10
ENDBRANCH   4   5
ENDBRANCH   3   4
ENDBRANCH   2   3
ENDBRANCH   1   2
BRANCH   1  14
ATOM     14  C   UNL     1       1.316   5.523  20.501  0.00  0.00    +0.000 C 
BRANCH  14  15
ATOM     15  C   UNL     1       2.471   6.402  20.036  0.00  0.00    +0.000 C 
BRANCH  15  16
ATOM     16  C   UNL     1       2.012   7.831  19.751  0.00  0.00    +0.000 C 
BRANCH  16  17
ATOM     17  C   UNL     1       1.993   8.084  18.246  0.00  0.00    +0.000 C 
BRANCH  17  18
ATOM     18  C   UNL     1       2.032   9.576  17.918  0.00  0.00    +0.000 C 
BRANCH  18  19
ATOM     19  N   UNL     1       0.764  10.206  18.317  0.00  0.00    +0.000 N 
ATOM     20  C   UNL     1      -0.446   9.787  17.779  0.00  0.00    +0.000 A 
ATOM     21  C   UNL     1      -1.622  10.392  17.997  0.00  0.00    +0.000 A 
ATOM     22  C   UNL     1      -1.633  11.606  18.856  0.00  0.00    +0.000 A 
ATOM     23  N   UNL     1      -2.703  12.294  19.088  0.00  0.00    +0.000 NA
ATOM     24  C   UNL     1      -0.342  12.026  19.450  0.00  0.00    +0.000 A 
ATOM     25  C   UNL     1       0.754  11.321  19.146  0.00  0.00    +0.000 A 
ATOM     26  H   UNL     1      -3.508  11.888  18.603  0.00  0.00    +0.000 HD
ENDBRANCH  18  19
ENDBRANCH  17  18
ENDBRANCH  16  17
ENDBRANCH  15  16
ENDBRANCH  14  15
ENDBRANCH   1  14
TORSDOF 11
ENDMDL
