MODEL 1
REMARK VINA RESULT:      -8.1      0.000      0.000
REMARK  Name = 
REMARK  7 active torsions:
REMARK  status: ('A' for Active; 'I' for Inactive)
REMARK    1  A    between atoms: C_1  and  C_2
REMARK    2  A    between atoms: C_5  and  N_6
REMARK    3  A    between atoms: N_6  and  S_7
REMARK    4  A    between atoms: S_7  and  C_10
REMARK    5  A    between atoms: C_14  and  C_15
REMARK    6  A    between atoms: N_17  and  C_18
REMARK    7  A    between atoms: C_24  and  C_25
REMARK                            x       y       z     vdW  Elec       q    Type
REMARK                         _______ _______ _______ _____ _____    ______ ____
ROOT
ATOM      1  C   UNL     1       4.669   5.539  18.639  0.00  0.00    +0.000 A 
ATOM      2  C   UNL     1       3.753   6.056  19.632  0.00  0.00    +0.000 A 
ATOM      3  C   UNL     1       2.769   6.847  19.098  0.00  0.00    +0.000 A 
ATOM      4  S   UNL     1       2.937   7.006  17.420  0.00  0.00    +0.000 S 
ATOM      5  C   UNL     1       4.380   6.030  17.373  0.00  0.00    +0.000 A 
ENDROOT
BRANCH   5   6
ATOM      6  C   UNL     1       5.001   5.952  16.050  0.00  0.00    +0.000 C 
ATOM      7  O   UNL     1       5.184   6.984  15.403  0.00  0.00    +0.000 OA
ATOM      8  N   UNL     1       5.295   4.697  15.539  0.00  0.00    +0.000 N 
ATOM      9  H   UNL     1       4.970   3.880  16.048  0.00  0.00    +0.000 HD
BRANCH   8  10
ATOM     10  C   UNL     1       5.918   4.459  14.286  0.00  0.00    +0.000 A 
ATOM     11  C   UNL     1       7.152   5.018  13.933  0.00  0.00    +0.000 A 
ATOM     12  C   UNL     1       7.718   4.789  12.679  0.00  0.00    +0.000 A 
ATOM     13  C   UNL     1       7.062   3.983  11.758  0.00  0.00    +0.000 A 
ATOM     14  C   UNL     1       5.843   3.394  12.102  0.00  0.00    +0.000 A 
ATOM     15  C   UNL     1       5.280   3.620  13.366  0.00  0.00    +0.000 A 
ENDBRANCH   8  10
ENDBRANCH   5   6
BRANCH   1  16
ATOM     16  S   UNL     1       5.958   4.467  19.117  0.00  0.00    +0.000 S 
ATOM     17  O   UNL     1       6.658   5.186  20.155  0.00  0.00    +0.000 OA
ATOM     18  O   UNL     1       6.616   4.160  17.861  0.00  0.00    +0.000 OA
BRANCH  16  19
ATOM     19  N   UNL     1       5.313   3.000  19.679  0.00  0.00    +0.000 N 
ATOM     20  H   UNL     1       5.992   2.259  19.513  0.00  0.00    +0.000 HD
BRANCH  19  25
ATOM     21  C   UNL     1       0.427   2.372  18.866  0.00  0.00    +0.000 C 
ATOM     22  C   UNL     1       1.905   2.401  18.754  0.00  0.00    +0.000 A 
ATOM     23  N   UNL     1       2.509   2.209  17.575  0.00  0.00    +0.000 NA
ATOM     24  O   UNL     1       3.859   2.372  17.816  0.00  0.00    +0.000 OA
ATOM     25  C   UNL     1       4.047   2.705  19.117  0.00  0.00    +0.000 A 
ATOM     26  C   UNL     1       2.848   2.642  19.790  0.00  0.00    +0.000 A 
ATOM     27  C   UNL     1       2.568   2.779  21.237  0.00  0.00    +0.000 C 
ENDBRANCH  19  25
ENDBRANCH  16  19
ENDBRANCH   1  16
TORSDOF 5
ENDMDL
MODEL 2
REMARK VINA RESULT:      -8.0      0.302      1.008
REMARK  Name = 
REMARK  7 active torsions:
REMARK  status: ('A' for Active; 'I' for Inactive)
REMARK    1  A    between atoms: C_1  and  C_2
REMARK    2  A    between atoms: C_5  and  N_6
REMARK    3  A    between atoms: N_6  and  S_7
REMARK    4  A    between atoms: S_7  and  C_10
REMARK    5  A    between atoms: C_14  and  C_15
REMARK    6  A    between atoms: N_17  and  C_18
REMARK    7  A    between atoms: C_24  and  C_25
REMARK                            x       y       z     vdW  Elec       q    Type
REMARK                         _______ _______ _______ _____ _____    ______ ____
ROOT
ATOM      1  C   UNL     1       4.777   5.692  18.471  0.00  0.00    +0.000 A 
ATOM      2  C   UNL     1       3.933   6.279  19.488  0.00  0.00    +0.000 A 
ATOM      3  C   UNL     1       2.944   7.077  18.972  0.00  0.00    +0.000 A 
ATOM      4  S   UNL     1       3.026   7.159  17.282  0.00  0.00    +0.000 S 
ATOM      5  C   UNL     1       4.434   6.136  17.202  0.00  0.00    +0.000 A 
ENDROOT
BRANCH   5   6
ATOM      6  C   UNL     1       4.980   5.982  15.852  0.00  0.00    +0.000 C 
ATOM      7  O   UNL     1       5.108   6.973  15.131  0.00  0.00    +0.000 OA
ATOM      8  N   UNL     1       5.265   4.701  15.405  0.00  0.00    +0.000 N 
ATOM      9  H   UNL     1       4.985   3.914  15.984  0.00  0.00    +0.000 HD
BRANCH   8  10
ATOM     10  C   UNL     1       5.820   4.391  14.136  0.00  0.00    +0.000 A 
ATOM     11  C   UNL     1       5.155   3.607  13.186  0.00  0.00    +0.000 A 
ATOM     12  C   UNL     1       5.746   3.295  11.963  0.00  0.00    +0.000 A 
ATOM     13  C   UNL     1       7.014   3.775  11.662  0.00  0.00    +0.000 A 
ATOM     14  C   UNL     1       7.682   4.583  12.585  0.00  0.00    +0.000 A 
ATOM     15  C   UNL     1       7.082   4.901  13.812  0.00  0.00    +0.000 A 
ENDBRANCH   8  10
ENDBRANCH   5   6
BRANCH   1  16
ATOM     16  S   UNL     1       6.059   4.600  18.927  0.00  0.00    +0.000 S 
ATOM     17  O   UNL     1       6.666   5.220  20.081  0.00  0.00    +0.000 OA
ATOM     18  O   UNL     1       6.809   4.439  17.696  0.00  0.00    +0.000 OA
BRANCH  16  19
ATOM     19  N   UNL     1       5.416   3.070  19.288  0.00  0.00    +0.000 N 
ATOM     20  H   UNL     1       6.052   2.357  18.934  0.00  0.00    +0.000 HD
BRANCH  19  25
ATOM     21  C   UNL     1       0.457   2.713  18.835  0.00  0.00    +0.000 C 
ATOM     22  C   UNL     1       1.919   2.717  18.595  0.00  0.00    +0.000 A 
ATOM     23  N   UNL     1       2.412   2.694  17.351  0.00  0.00    +0.000 NA
ATOM     24  O   UNL     1       3.783   2.779  17.490  0.00  0.00    +0.000 OA
ATOM     25  C   UNL     1       4.095   2.902  18.804  0.00  0.00    +0.000 A 
ATOM     26  C   UNL     1       2.956   2.768  19.566  0.00  0.00    +0.000 A 
ATOM     27  C   UNL     1       2.807   2.687  21.036  0.00  0.00    +0.000 C 
ENDBRANCH  19  25
ENDBRANCH  16  19
ENDBRANCH   1  16
TORSDOF 5
ENDMDL
MODEL 3
REMARK VINA RESULT:      -7.9      2.568      6.693
REMARK  Name = 
REMARK  7 active torsions:
REMARK  status: ('A' for Active; 'I' for Inactive)
REMARK    1  A    between atoms: C_1  and  C_2
REMARK    2  A    between atoms: C_5  and  N_6
REMARK    3  A    between atoms: N_6  and  S_7
REMARK    4  A    between atoms: S_7  and  C_10
REMARK    5  A    between atoms: C_14  and  C_15
REMARK    6  A    between atoms: N_17  and  C_18
REMARK    7  A    between atoms: C_24  and  C_25
REMARK                            x       y       z     vdW  Elec       q    Type
REMARK                         _______ _______ _______ _____ _____    ______ ____
ROOT
ATOM      1  C   UNL     1       4.664   4.328  19.201  0.00  0.00    +0.000 A 
ATOM      2  C   UNL     1       4.655   2.928  19.562  0.00  0.00    +0.000 A 
ATOM      3  C   UNL     1       3.399   2.451  19.839  0.00  0.00    +0.000 A 
ATOM      4  S   UNL     1       2.225   3.665  19.699  0.00  0.00    +0.000 S 
ATOM      5  C   UNL     1       3.397   4.888  19.291  0.00  0.00    +0.000 A 
ENDROOT
BRANCH   5   6
ATOM      6  C   UNL     1       2.832   6.232  19.162  0.00  0.00    +0.000 C 
ATOM      7  O   UNL     1       2.913   6.825  18.085  0.00  0.00    +0.000 OA
ATOM      8  N   UNL     1       2.287   6.823  20.292  0.00  0.00    +0.000 N 
ATOM      9  H   UNL     1       2.397   6.351  21.185  0.00  0.00    +0.000 HD
BRANCH   8  10
ATOM     10  C   UNL     1       1.680   8.106  20.322  0.00  0.00    +0.000 A 
ATOM     11  C   UNL     1       1.544   8.910  19.184  0.00  0.00    +0.000 A 
ATOM     12  C   UNL     1       0.973  10.180  19.258  0.00  0.00    +0.000 A 
ATOM     13  C   UNL     1       0.516  10.665  20.476  0.00  0.00    +0.000 A 
ATOM     14  C   UNL     1       0.617   9.866  21.618  0.00  0.00    +0.000 A 
ATOM     15  C   UNL     1       1.185   8.587  21.539  0.00  0.00    +0.000 A 
ENDBRANCH   8  10
ENDBRANCH   5   6
BRANCH   1  16
ATOM     16  S   UNL     1       6.162   5.104  18.759  0.00  0.00    +0.000 S 
ATOM     17  O   UNL     1       7.040   4.014  18.402  0.00  0.00    +0.000 OA
ATOM     18  O   UNL     1       6.454   5.939  19.909  0.00  0.00    +0.000 OA
BRANCH  16  19
ATOM     19  N   UNL     1       5.903   6.168  17.461  0.00  0.00    +0.000 N 
ATOM     20  H   UNL     1       4.915   6.418  17.436  0.00  0.00    +0.000 HD
BRANCH  19  25
ATOM     21  C   UNL     1       6.316   3.797  13.087  0.00  0.00    +0.000 C 
ATOM     22  C   UNL     1       6.564   4.591  14.314  0.00  0.00    +0.000 A 
ATOM     23  N   UNL     1       7.645   5.372  14.420  0.00  0.00    +0.000 NA
ATOM     24  O   UNL     1       7.526   6.011  15.638  0.00  0.00    +0.000 OA
ATOM     25  C   UNL     1       6.359   5.647  16.225  0.00  0.00    +0.000 A 
ATOM     26  C   UNL     1       5.749   4.667  15.476  0.00  0.00    +0.000 A 
ATOM     27  C   UNL     1       4.543   3.863  15.775  0.00  0.00    +0.000 C 
ENDBRANCH  19  25
ENDBRANCH  16  19
ENDBRANCH   1  16
TORSDOF 5
ENDMDL
MODEL 4
REMARK VINA RESULT:      -7.7      2.369      6.653
REMARK  Name = 
REMARK  7 active torsions:
REMARK  status: ('A' for Active; 'I' for Inactive)
REMARK    1  A    between atoms: C_1  and  C_2
REMARK    2  A    between atoms: C_5  and  N_6
REMARK    3  A    between atoms: N_6  and  S_7
REMARK    4  A    between atoms: S_7  and  C_10
REMARK    5  A    between atoms: C_14  and  C_15
REMARK    6  A    between atoms: N_17  and  C_18
REMARK    7  A    between atoms: C_24  and  C_25
REMARK                            x       y       z     vdW  Elec       q    Type
REMARK                         _______ _______ _______ _____ _____    ______ ____
ROOT
ATOM      1  C   UNL     1       4.534   3.825  19.064  0.00  0.00    +0.000 A 
ATOM      2  C   UNL     1       4.895   2.640  19.809  0.00  0.00    +0.000 A 
ATOM      3  C   UNL     1       3.883   2.182  20.615  0.00  0.00    +0.000 A 
ATOM      4  S   UNL     1       2.510   3.168  20.515  0.00  0.00    +0.000 S 
ATOM      5  C   UNL     1       3.262   4.272  19.396  0.00  0.00    +0.000 A 
ENDROOT
BRANCH   5   6
ATOM      6  C   UNL     1       2.439   5.436  19.066  0.00  0.00    +0.000 C 
ATOM      7  O   UNL     1       1.523   5.320  18.250  0.00  0.00    +0.000 OA
ATOM      8  N   UNL     1       2.772   6.655  19.635  0.00  0.00    +0.000 N 
ATOM      9  H   UNL     1       3.634   6.719  20.169  0.00  0.00    +0.000 HD
BRANCH   8  10
ATOM     10  C   UNL     1       2.058   7.865  19.433  0.00  0.00    +0.000 A 
ATOM     11  C   UNL     1       2.108   8.587  18.235  0.00  0.00    +0.000 A 
ATOM     12  C   UNL     1       1.420   9.790  18.086  0.00  0.00    +0.000 A 
ATOM     13  C   UNL     1       0.656  10.288  19.133  0.00  0.00    +0.000 A 
ATOM     14  C   UNL     1       0.570   9.567  20.327  0.00  0.00    +0.000 A 
ATOM     15  C   UNL     1       1.257   8.354  20.472  0.00  0.00    +0.000 A 
ENDBRANCH   8  10
ENDBRANCH   5   6
BRANCH   1  16
ATOM     16  S   UNL     1       5.669   4.528  17.942  0.00  0.00    +0.000 S 
ATOM     17  O   UNL     1       6.958   4.328  18.562  0.00  0.00    +0.000 OA
ATOM     18  O   UNL     1       5.149   5.866  17.737  0.00  0.00    +0.000 OA
BRANCH  16  19
ATOM     19  N   UNL     1       5.556   3.746  16.438  0.00  0.00    +0.000 N 
ATOM     20  H   UNL     1       5.728   2.751  16.573  0.00  0.00    +0.000 HD
BRANCH  19  25
ATOM     21  C   UNL     1       7.605   5.362  12.182  0.00  0.00    +0.000 C 
ATOM     22  C   UNL     1       7.333   5.005  13.595  0.00  0.00    +0.000 A 
ATOM     23  N   UNL     1       8.098   5.483  14.584  0.00  0.00    +0.000 NA
ATOM     24  O   UNL     1       7.529   5.018  15.753  0.00  0.00    +0.000 OA
ATOM     25  C   UNL     1       6.410   4.312  15.459  0.00  0.00    +0.000 A 
ATOM     26  C   UNL     1       6.287   4.183  14.095  0.00  0.00    +0.000 A 
ATOM     27  C   UNL     1       5.321   3.390  13.304  0.00  0.00    +0.000 C 
ENDBRANCH  19  25
ENDBRANCH  16  19
ENDBRANCH   1  16
TORSDOF 5
ENDMDL
MODEL 5
REMARK VINA RESULT:      -7.7      2.884      6.883
REMARK  Name = 
REMARK  7 active torsions:
REMARK  status: ('A' for Active; 'I' for Inactive)
REMARK    1  A    between atoms: C_1  and  C_2
REMARK    2  A    between atoms: C_5  and  N_6
REMARK    3  A    between atoms: N_6  and  S_7
REMARK    4  A    between atoms: S_7  and  C_10
REMARK    5  A    between atoms: C_14  and  C_15
REMARK    6  A    between atoms: N_17  and  C_18
REMARK    7  A    between atoms: C_24  and  C_25
REMARK                            x       y       z     vdW  Elec       q    Type
REMARK                         _______ _______ _______ _____ _____    ______ ____
ROOT
ATOM      1  C   UNL     1       3.276   3.447  19.177  0.00  0.00    +0.000 A 
ATOM      2  C   UNL     1       3.960   2.271  19.668  0.00  0.00    +0.000 A 
ATOM      3  C   UNL     1       3.672   1.988  20.978  0.00  0.00    +0.000 A 
ATOM      4  S   UNL     1       2.609   3.126  21.645  0.00  0.00    +0.000 S 
ATOM      5  C   UNL     1       2.537   4.063  20.177  0.00  0.00    +0.000 A 
ENDROOT
BRANCH   5   6
ATOM      6  C   UNL     1       1.760   5.298  20.299  0.00  0.00    +0.000 C 
ATOM      7  O   UNL     1       0.553   5.235  20.537  0.00  0.00    +0.000 OA
ATOM      8  N   UNL     1       2.406   6.502  20.067  0.00  0.00    +0.000 N 
ATOM      9  H   UNL     1       3.359   6.479  19.715  0.00  0.00    +0.000 HD
BRANCH   8  10
ATOM     10  C   UNL     1       1.797   7.780  20.170  0.00  0.00    +0.000 A 
ATOM     11  C   UNL     1       1.291   8.286  21.373  0.00  0.00    +0.000 A 
ATOM     12  C   UNL     1       0.669   9.533  21.430  0.00  0.00    +0.000 A 
ATOM     13  C   UNL     1       0.553  10.303  20.281  0.00  0.00    +0.000 A 
ATOM     14  C   UNL     1       1.077   9.828  19.076  0.00  0.00    +0.000 A 
ATOM     15  C   UNL     1       1.708   8.577  19.023  0.00  0.00    +0.000 A 
ENDBRANCH   8  10
ENDBRANCH   5   6
BRANCH   1  16
ATOM     16  S   UNL     1       3.471   3.939  17.515  0.00  0.00    +0.000 S 
ATOM     17  O   UNL     1       3.220   5.361  17.530  0.00  0.00    +0.000 OA
ATOM     18  O   UNL     1       2.586   3.042  16.798  0.00  0.00    +0.000 OA
BRANCH  16  19
ATOM     19  N   UNL     1       5.042   3.573  16.984  0.00  0.00    +0.000 N 
ATOM     20  H   UNL     1       5.261   2.613  17.247  0.00  0.00    +0.000 HD
BRANCH  19  25
ATOM     21  C   UNL     1       7.862   7.614  17.785  0.00  0.00    +0.000 C 
ATOM     22  C   UNL     1       7.272   6.255  17.800  0.00  0.00    +0.000 A 
ATOM     23  N   UNL     1       7.608   5.370  18.746  0.00  0.00    +0.000 NA
ATOM     24  O   UNL     1       6.832   4.253  18.505  0.00  0.00    +0.000 OA
ATOM     25  C   UNL     1       6.009   4.495  17.455  0.00  0.00    +0.000 A 
ATOM     26  C   UNL     1       6.313   5.717  16.899  0.00  0.00    +0.000 A 
ATOM     27  C   UNL     1       5.794   6.349  15.666  0.00  0.00    +0.000 C 
ENDBRANCH  19  25
ENDBRANCH  16  19
ENDBRANCH   1  16
TORSDOF 5
ENDMDL
MODEL 6
REMARK VINA RESULT:      -7.6      2.981      6.974
REMARK  Name = 
REMARK  7 active torsions:
REMARK  status: ('A' for Active; 'I' for Inactive)
REMARK    1  A    between atoms: C_1  and  C_2
REMARK    2  A    between atoms: C_5  and  N_6
REMARK    3  A    between atoms: N_6  and  S_7
REMARK    4  A    between atoms: S_7  and  C_10
REMARK    5  A    between atoms: C_14  and  C_15
REMARK    6  A    between atoms: N_17  and  C_18
REMARK    7  A    between atoms: C_24  and  C_25
REMARK                            x       y       z     vdW  Elec       q    Type
REMARK                         _______ _______ _______ _____ _____    ______ ____
ROOT
ATOM      1  C   UNL     1       3.356   3.546  19.400  0.00  0.00    +0.000 A 
ATOM      2  C   UNL     1       3.970   2.363  19.960  0.00  0.00    +0.000 A 
ATOM      3  C   UNL     1       3.516   2.065  21.219  0.00  0.00    +0.000 A 
ATOM      4  S   UNL     1       2.379   3.199  21.758  0.00  0.00    +0.000 S 
ATOM      5  C   UNL     1       2.496   4.153  20.305  0.00  0.00    +0.000 A 
ENDROOT
BRANCH   5   6
ATOM      6  C   UNL     1       1.712   5.389  20.341  0.00  0.00    +0.000 C 
ATOM      7  O   UNL     1       0.484   5.327  20.430  0.00  0.00    +0.000 OA
ATOM      8  N   UNL     1       2.383   6.593  20.198  0.00  0.00    +0.000 N 
ATOM      9  H   UNL     1       3.372   6.571  19.964  0.00  0.00    +0.000 HD
BRANCH   8  10
ATOM     10  C   UNL     1       1.768   7.872  20.237  0.00  0.00    +0.000 A 
ATOM     11  C   UNL     1       1.603   8.671  19.100  0.00  0.00    +0.000 A 
ATOM     12  C   UNL     1       1.025   9.938  19.183  0.00  0.00    +0.000 A 
ATOM     13  C   UNL     1       0.590  10.423  20.409  0.00  0.00    +0.000 A 
ATOM     14  C   UNL     1       0.721   9.629  21.551  0.00  0.00    +0.000 A 
ATOM     15  C   UNL     1       1.296   8.353  21.463  0.00  0.00    +0.000 A 
ENDBRANCH   8  10
ENDBRANCH   5   6
BRANCH   1  16
ATOM     16  S   UNL     1       3.762   4.057  17.783  0.00  0.00    +0.000 S 
ATOM     17  O   UNL     1       3.497   5.477  17.777  0.00  0.00    +0.000 OA
ATOM     18  O   UNL     1       2.989   3.159  16.947  0.00  0.00    +0.000 OA
BRANCH  16  19
ATOM     19  N   UNL     1       5.393   3.711  17.459  0.00  0.00    +0.000 N 
ATOM     20  H   UNL     1       5.642   2.841  17.928  0.00  0.00    +0.000 HD
BRANCH  19  25
ATOM     21  C   UNL     1       7.915   8.017  17.619  0.00  0.00    +0.000 C 
ATOM     22  C   UNL     1       7.393   6.653  17.875  0.00  0.00    +0.000 A 
ATOM     23  N   UNL     1       7.669   6.015  19.019  0.00  0.00    +0.000 NA
ATOM     24  O   UNL     1       6.977   4.821  18.956  0.00  0.00    +0.000 OA
ATOM     25  C   UNL     1       6.260   4.777  17.806  0.00  0.00    +0.000 A 
ATOM     26  C   UNL     1       6.562   5.871  17.028  0.00  0.00    +0.000 A 
ATOM     27  C   UNL     1       6.147   6.189  15.643  0.00  0.00    +0.000 C 
ENDBRANCH  19  25
ENDBRANCH  16  19
ENDBRANCH   1  16
TORSDOF 5
ENDMDL
MODEL 7
REMARK VINA RESULT:      -7.5      2.287      5.347
REMARK  Name = 
REMARK  7 active torsions:
REMARK  status: ('A' for Active; 'I' for Inactive)
REMARK    1  A    between atoms: C_1  and  C_2
REMARK    2  A    between atoms: C_5  and  N_6
REMARK    3  A    between atoms: N_6  and  S_7
REMARK    4  A    between atoms: S_7  and  C_10
REMARK    5  A    between atoms: C_14  and  C_15
REMARK    6  A    between atoms: N_17  and  C_18
REMARK    7  A    between atoms: C_24  and  C_25
REMARK                            x       y       z     vdW  Elec       q    Type
REMARK                         _______ _______ _______ _____ _____    ______ ____
ROOT
ATOM      1  C   UNL     1       5.493   5.431  17.661  0.00  0.00    +0.000 A 
ATOM      2  C   UNL     1       6.453   5.140  16.620  0.00  0.00    +0.000 A 
ATOM      3  C   UNL     1       6.169   5.767  15.434  0.00  0.00    +0.000 A 
ATOM      4  S   UNL     1       4.748   6.684  15.537  0.00  0.00    +0.000 S 
ATOM      5  C   UNL     1       4.456   6.226  17.192  0.00  0.00    +0.000 A 
ENDROOT
BRANCH   5   6
ATOM      6  C   UNL     1       3.192   6.730  17.733  0.00  0.00    +0.000 C 
ATOM      7  O   UNL     1       2.245   5.957  17.885  0.00  0.00    +0.000 OA
ATOM      8  N   UNL     1       3.085   8.088  17.986  0.00  0.00    +0.000 N 
ATOM      9  H   UNL     1       3.842   8.697  17.687  0.00  0.00    +0.000 HD
BRANCH   8  10
ATOM     10  C   UNL     1       1.938   8.722  18.532  0.00  0.00    +0.000 A 
ATOM     11  C   UNL     1       1.049   9.481  17.762  0.00  0.00    +0.000 A 
ATOM     12  C   UNL     1      -0.049  10.117  18.340  0.00  0.00    +0.000 A 
ATOM     13  C   UNL     1      -0.284   9.995  19.703  0.00  0.00    +0.000 A 
ATOM     14  C   UNL     1       0.576   9.219  20.484  0.00  0.00    +0.000 A 
ATOM     15  C   UNL     1       1.675   8.574  19.899  0.00  0.00    +0.000 A 
ENDBRANCH   8  10
ENDBRANCH   5   6
BRANCH   1  16
ATOM     16  S   UNL     1       5.713   4.770  19.260  0.00  0.00    +0.000 S 
ATOM     17  O   UNL     1       4.788   5.511  20.086  0.00  0.00    +0.000 OA
ATOM     18  O   UNL     1       7.143   4.883  19.471  0.00  0.00    +0.000 OA
BRANCH  16  19
ATOM     19  N   UNL     1       5.370   3.107  19.251  0.00  0.00    +0.000 N 
ATOM     20  H   UNL     1       6.077   2.630  18.694  0.00  0.00    +0.000 HD
BRANCH  19  25
ATOM     21  C   UNL     1       0.432   2.443  18.925  0.00  0.00    +0.000 C 
ATOM     22  C   UNL     1       1.889   2.500  18.660  0.00  0.00    +0.000 A 
ATOM     23  N   UNL     1       2.367   2.375  17.416  0.00  0.00    +0.000 NA
ATOM     24  O   UNL     1       3.733   2.546  17.522  0.00  0.00    +0.000 OA
ATOM     25  C   UNL     1       4.054   2.820  18.811  0.00  0.00    +0.000 A 
ATOM     26  C   UNL     1       2.934   2.705  19.602  0.00  0.00    +0.000 A 
ATOM     27  C   UNL     1       2.807   2.769  21.075  0.00  0.00    +0.000 C 
ENDBRANCH  19  25
ENDBRANCH  16  19
ENDBRANCH   1  16
TORSDOF 5
ENDMDL
MODEL 8
REMARK VINA RESULT:      -7.4      2.929      6.849
REMARK  Name = 
REMARK  7 active torsions:
REMARK  status: ('A' for Active; 'I' for Inactive)
REMARK    1  A    between atoms: C_1  and  C_2
REMARK    2  A    between atoms: C_5  and  N_6
REMARK    3  A    between atoms: N_6  and  S_7
REMARK    4  A    between atoms: S_7  and  C_10
REMARK    5  A    between atoms: C_14  and  C_15
REMARK    6  A    between atoms: N_17  and  C_18
REMARK    7  A    between atoms: C_24  and  C_25
REMARK                            x       y       z     vdW  Elec       q    Type
REMARK                         _______ _______ _______ _____ _____    ______ ____
ROOT
ATOM      1  C   UNL     1       3.007   3.425  19.335  0.00  0.00    +0.000 A 
ATOM      2  C   UNL     1       3.653   2.259  19.894  0.00  0.00    +0.000 A 
ATOM      3  C   UNL     1       3.374   2.075  21.225  0.00  0.00    +0.000 A 
ATOM      4  S   UNL     1       2.368   3.297  21.827  0.00  0.00    +0.000 S 
ATOM      5  C   UNL     1       2.309   4.137  20.301  0.00  0.00    +0.000 A 
ENDROOT
BRANCH   5   6
ATOM      6  C   UNL     1       1.583   5.407  20.350  0.00  0.00    +0.000 C 
ATOM      7  O   UNL     1       0.357   5.402  20.467  0.00  0.00    +0.000 OA
ATOM      8  N   UNL     1       2.305   6.579  20.186  0.00  0.00    +0.000 N 
ATOM      9  H   UNL     1       3.286   6.510  19.930  0.00  0.00    +0.000 HD
BRANCH   8  10
ATOM     10  C   UNL     1       1.750   7.885  20.234  0.00  0.00    +0.000 A 
ATOM     11  C   UNL     1       1.582   8.681  19.095  0.00  0.00    +0.000 A 
ATOM     12  C   UNL     1       1.065   9.973  19.186  0.00  0.00    +0.000 A 
ATOM     13  C   UNL     1       0.695  10.488  20.421  0.00  0.00    +0.000 A 
ATOM     14  C   UNL     1       0.829   9.698  21.565  0.00  0.00    +0.000 A 
ATOM     15  C   UNL     1       1.342   8.397  21.471  0.00  0.00    +0.000 A 
ENDBRANCH   8  10
ENDBRANCH   5   6
BRANCH   1  16
ATOM     16  S   UNL     1       3.194   3.797  17.641  0.00  0.00    +0.000 S 
ATOM     17  O   UNL     1       2.852   5.197  17.541  0.00  0.00    +0.000 OA
ATOM     18  O   UNL     1       2.380   2.791  16.989  0.00  0.00    +0.000 OA
BRANCH  16  19
ATOM     19  N   UNL     1       4.793   3.494  17.155  0.00  0.00    +0.000 N 
ATOM     20  H   UNL     1       5.232   2.881  17.841  0.00  0.00    +0.000 HD
BRANCH  19  25
ATOM     21  C   UNL     1       7.755   7.483  17.643  0.00  0.00    +0.000 C 
ATOM     22  C   UNL     1       6.815   6.451  17.146  0.00  0.00    +0.000 A 
ATOM     23  N   UNL     1       6.509   6.368  15.846  0.00  0.00    +0.000 NA
ATOM     24  O   UNL     1       5.679   5.270  15.727  0.00  0.00    +0.000 OA
ATOM     25  C   UNL     1       5.536   4.681  16.939  0.00  0.00    +0.000 A 
ATOM     26  C   UNL     1       6.154   5.445  17.903  0.00  0.00    +0.000 A 
ATOM     27  C   UNL     1       6.152   5.292  19.375  0.00  0.00    +0.000 C 
ENDBRANCH  19  25
ENDBRANCH  16  19
ENDBRANCH   1  16
TORSDOF 5
ENDMDL
MODEL 9
REMARK VINA RESULT:      -7.4      2.480      6.919
REMARK  Name = 
REMARK  7 active torsions:
REMARK  status: ('A' for Active; 'I' for Inactive)
REMARK    1  A    between atoms: C_1  and  C_2
REMARK    2  A    between atoms: C_5  and  N_6
REMARK    3  A    between atoms: N_6  and  S_7
REMARK    4  A    between atoms: S_7  and  C_10
REMARK    5  A    between atoms: C_14  and  C_15
REMARK    6  A    between atoms: N_17  and  C_18
REMARK    7  A    between atoms: C_24  and  C_25
REMARK                            x       y       z     vdW  Elec       q    Type
REMARK                         _______ _______ _______ _____ _____    ______ ____
ROOT
ATOM      1  C   UNL     1       4.256   3.831  19.082  0.00  0.00    +0.000 A 
ATOM      2  C   UNL     1       4.890   2.605  19.513  0.00  0.00    +0.000 A 
ATOM      3  C   UNL     1       4.228   1.991  20.546  0.00  0.00    +0.000 A 
ATOM      4  S   UNL     1       2.867   2.876  21.030  0.00  0.00    +0.000 S 
ATOM      5  C   UNL     1       3.157   4.144  19.870  0.00  0.00    +0.000 A 
ENDROOT
BRANCH   5   6
ATOM      6  C   UNL     1       2.228   5.270  19.978  0.00  0.00    +0.000 C 
ATOM      7  O   UNL     1       1.028   5.054  20.148  0.00  0.00    +0.000 OA
ATOM      8  N   UNL     1       2.732   6.550  19.807  0.00  0.00    +0.000 N 
ATOM      9  H   UNL     1       3.697   6.654  19.506  0.00  0.00    +0.000 HD
BRANCH   8  10
ATOM     10  C   UNL     1       1.966   7.741  19.906  0.00  0.00    +0.000 A 
ATOM     11  C   UNL     1       1.347   8.150  21.093  0.00  0.00    +0.000 A 
ATOM     12  C   UNL     1       0.574   9.310  21.144  0.00  0.00    +0.000 A 
ATOM     13  C   UNL     1       0.415  10.089  20.006  0.00  0.00    +0.000 A 
ATOM     14  C   UNL     1       1.049   9.713  18.819  0.00  0.00    +0.000 A 
ATOM     15  C   UNL     1       1.832   8.551  18.772  0.00  0.00    +0.000 A 
ENDBRANCH   8  10
ENDBRANCH   5   6
BRANCH   1  16
ATOM     16  S   UNL     1       4.918   4.729  17.741  0.00  0.00    +0.000 S 
ATOM     17  O   UNL     1       6.030   5.455  18.309  0.00  0.00    +0.000 OA
ATOM     18  O   UNL     1       3.767   5.438  17.216  0.00  0.00    +0.000 OA
BRANCH  16  19
ATOM     19  N   UNL     1       5.411   3.662  16.516  0.00  0.00    +0.000 N 
ATOM     20  H   UNL     1       5.802   2.826  16.948  0.00  0.00    +0.000 HD
BRANCH  19  25
ATOM     21  C   UNL     1       7.637   5.418  12.406  0.00  0.00    +0.000 C 
ATOM     22  C   UNL     1       7.306   5.014  13.793  0.00  0.00    +0.000 A 
ATOM     23  N   UNL     1       8.027   5.459  14.830  0.00  0.00    +0.000 NA
ATOM     24  O   UNL     1       7.410   4.956  15.958  0.00  0.00    +0.000 OA
ATOM     25  C   UNL     1       6.304   4.260  15.593  0.00  0.00    +0.000 A 
ATOM     26  C   UNL     1       6.240   4.176  14.221  0.00  0.00    +0.000 A 
ATOM     27  C   UNL     1       5.309   3.409  13.364  0.00  0.00    +0.000 C 
ENDBRANCH  19  25
ENDBRANCH  16  19
ENDBRANCH   1  16
TORSDOF 5
ENDMDL
