MODEL 1
REMARK VINA RESULT:      -6.6      0.000      0.000
REMARK  Name = 
REMARK  6 active torsions:
REMARK  status: ('A' for Active; 'I' for Inactive)
REMARK    1  A    between atoms: C_1  and  O_2
REMARK    2  A    between atoms: O_2  and  C_3
REMARK    3  A    between atoms: C_5  and  N_6
REMARK    4  A    between atoms: N_6  and  C_7
REMARK    5  A    between atoms: N_10  and  C_11
REMARK    6  A    between atoms: C_13  and  C_14
REMARK                            x       y       z     vdW  Elec       q    Type
REMARK                         _______ _______ _______ _____ _____    ______ ____
ROOT
ATOM      1  N   UNL     1       2.819   7.435  18.855  0.00  0.00    +0.000 N 
ATOM      2  C   UNL     1       3.034   7.738  17.443  0.00  0.00    +0.000 C 
ATOM      3  C   UNL     1       1.852   8.123  19.593  0.00  0.00    +0.000 C 
ATOM      4  O   UNL     1       1.414   7.738  20.676  0.00  0.00    +0.000 OA
ATOM      5  N   UNL     1       1.363   9.255  18.997  0.00  0.00    +0.000 N 
ATOM      6  H   UNL     1       2.030   9.779  18.448  0.00  0.00    +0.000 HD
ENDROOT
BRANCH   5   7
ATOM      7  C   UNL     1       0.368  10.077  19.648  0.00  0.00    +0.000 C 
ATOM      8  C   UNL     1      -1.062   9.979  19.035  0.00  0.00    +0.000 C 
ATOM      9  C   UNL     1      -1.440  11.381  18.491  0.00  0.00    +0.000 C 
ATOM     10  C   UNL     1      -2.678  11.964  19.157  0.00  0.00    +0.000 C 
ATOM     11  N   UNL     1      -0.255  12.167  18.760  0.00  0.00    +0.000 N 
ATOM     12  C   UNL     1       0.181  13.401  18.445  0.00  0.00    +0.000 A 
ATOM     13  C   UNL     1       1.472  13.423  18.946  0.00  0.00    +0.000 A 
ATOM     14  N   UNL     1       1.816  12.215  19.522  0.00  0.00    +0.000 NA
ATOM     15  C   UNL     1       0.736  11.487  19.391  0.00  0.00    +0.000 A 
ENDBRANCH   5   7
BRANCH   1  18
ATOM     16  C   UNL     1       3.945   4.097  18.893  0.00  0.00    +0.000 C 
ATOM     17  C   UNL     1       4.525   5.513  18.634  0.00  0.00    +0.000 C 
ATOM     18  C   UNL     1       3.269   6.095  19.354  0.00  0.00    +0.000 C 
ATOM     19  C   UNL     1       2.585   4.805  18.947  0.00  0.00    +0.000 C 
ATOM     20  C   UNL     1       1.503   4.206  19.820  0.00  0.00    +0.000 C 
ATOM     21  C   UNL     1       0.936   3.566  18.530  0.00  0.00    +0.000 C 
ATOM     22  C   UNL     1       1.716   4.636  17.717  0.00  0.00    +0.000 C 
BRANCH  16  24
ATOM     23  C   UNL     1       4.481   2.034  20.068  0.00  0.00    +0.000 C 
ATOM     24  O   UNL     1       4.380   3.452  20.112  0.00  0.00    +0.000 OA
ENDBRANCH  16  24
ENDBRANCH   1  18
TORSDOF 3
ENDMDL
MODEL 2
REMARK VINA RESULT:      -6.5      2.291      3.518
REMARK  Name = 
REMARK  6 active torsions:
REMARK  status: ('A' for Active; 'I' for Inactive)
REMARK    1  A    between atoms: C_1  and  O_2
REMARK    2  A    between atoms: O_2  and  C_3
REMARK    3  A    between atoms: C_5  and  N_6
REMARK    4  A    between atoms: N_6  and  C_7
REMARK    5  A    between atoms: N_10  and  C_11
REMARK    6  A    between atoms: C_13  and  C_14
REMARK                            x       y       z     vdW  Elec       q    Type
REMARK                         _______ _______ _______ _____ _____    ______ ____
ROOT
ATOM      1  N   UNL     1       2.529   6.067  18.524  0.00  0.00    +0.000 N 
ATOM      2  C   UNL     1       2.126   5.108  19.549  0.00  0.00    +0.000 C 
ATOM      3  C   UNL     1       2.457   7.441  18.765  0.00  0.00    +0.000 C 
ATOM      4  O   UNL     1       3.037   8.287  18.087  0.00  0.00    +0.000 OA
ATOM      5  N   UNL     1       1.727   7.800  19.867  0.00  0.00    +0.000 N 
ATOM      6  H   UNL     1       0.921   7.221  20.061  0.00  0.00    +0.000 HD
ENDROOT
BRANCH   5   7
ATOM      7  C   UNL     1       1.552   9.187  20.234  0.00  0.00    +0.000 C 
ATOM      8  C   UNL     1       0.966   9.416  21.660  0.00  0.00    +0.000 C 
ATOM      9  C   UNL     1      -0.400  10.133  21.500  0.00  0.00    +0.000 C 
ATOM     10  C   UNL     1      -0.440  11.494  22.179  0.00  0.00    +0.000 C 
ATOM     11  N   UNL     1      -0.550  10.235  20.064  0.00  0.00    +0.000 N 
ATOM     12  C   UNL     1      -1.526  10.608  19.216  0.00  0.00    +0.000 A 
ATOM     13  C   UNL     1      -0.994  10.327  17.969  0.00  0.00    +0.000 A 
ATOM     14  N   UNL     1       0.266   9.766  18.068  0.00  0.00    +0.000 NA
ATOM     15  C   UNL     1       0.495   9.737  19.356  0.00  0.00    +0.000 A 
ENDBRANCH   5   7
BRANCH   1  18
ATOM     16  C   UNL     1       4.954   4.165  16.817  0.00  0.00    +0.000 C 
ATOM     17  C   UNL     1       3.464   4.039  17.231  0.00  0.00    +0.000 C 
ATOM     18  C   UNL     1       3.455   5.585  17.448  0.00  0.00    +0.000 C 
ATOM     19  C   UNL     1       4.948   5.443  17.665  0.00  0.00    +0.000 C 
ATOM     20  C   UNL     1       5.887   6.564  17.272  0.00  0.00    +0.000 C 
ATOM     21  C   UNL     1       6.841   6.034  18.369  0.00  0.00    +0.000 C 
ATOM     22  C   UNL     1       5.620   5.327  19.019  0.00  0.00    +0.000 C 
BRANCH  16  24
ATOM     23  C   UNL     1       6.455   3.866  14.924  0.00  0.00    +0.000 C 
ATOM     24  O   UNL     1       5.201   4.336  15.402  0.00  0.00    +0.000 OA
ENDBRANCH  16  24
ENDBRANCH   1  18
TORSDOF 3
ENDMDL
MODEL 3
REMARK VINA RESULT:      -6.4      2.266      7.704
REMARK  Name = 
REMARK  6 active torsions:
REMARK  status: ('A' for Active; 'I' for Inactive)
REMARK    1  A    between atoms: C_1  and  O_2
REMARK    2  A    between atoms: O_2  and  C_3
REMARK    3  A    between atoms: C_5  and  N_6
REMARK    4  A    between atoms: N_6  and  C_7
REMARK    5  A    between atoms: N_10  and  C_11
REMARK    6  A    between atoms: C_13  and  C_14
REMARK                            x       y       z     vdW  Elec       q    Type
REMARK                         _______ _______ _______ _____ _____    ______ ____
ROOT
ATOM      1  N   UNL     1       1.052   8.937  20.803  0.00  0.00    +0.000 N 
ATOM      2  C   UNL     1       0.104   8.431  21.791  0.00  0.00    +0.000 C 
ATOM      3  C   UNL     1       1.820   8.057  20.036  0.00  0.00    +0.000 C 
ATOM      4  O   UNL     1       2.409   8.381  19.006  0.00  0.00    +0.000 OA
ATOM      5  N   UNL     1       1.834   6.761  20.478  0.00  0.00    +0.000 N 
ATOM      6  H   UNL     1       1.805   6.645  21.482  0.00  0.00    +0.000 HD
ENDROOT
BRANCH   5   7
ATOM      7  C   UNL     1       2.597   5.742  19.794  0.00  0.00    +0.000 C 
ATOM      8  C   UNL     1       2.180   5.501  18.311  0.00  0.00    +0.000 C 
ATOM      9  C   UNL     1       1.667   4.042  18.196  0.00  0.00    +0.000 C 
ATOM     10  C   UNL     1       2.480   3.200  17.224  0.00  0.00    +0.000 C 
ATOM     11  N   UNL     1       1.762   3.553  19.554  0.00  0.00    +0.000 N 
ATOM     12  C   UNL     1       1.372   2.447  20.216  0.00  0.00    +0.000 A 
ATOM     13  C   UNL     1       1.696   2.729  21.532  0.00  0.00    +0.000 A 
ATOM     14  N   UNL     1       2.242   3.992  21.663  0.00  0.00    +0.000 NA
ATOM     15  C   UNL     1       2.268   4.450  20.437  0.00  0.00    +0.000 A 
ENDBRANCH   5   7
BRANCH   1  18
ATOM     16  C   UNL     1      -0.485  12.016  20.049  0.00  0.00    +0.000 C 
ATOM     17  C   UNL     1       0.133  11.300  21.279  0.00  0.00    +0.000 C 
ATOM     18  C   UNL     1       0.840  10.328  20.285  0.00  0.00    +0.000 C 
ATOM     19  C   UNL     1      -0.286  10.675  19.331  0.00  0.00    +0.000 C 
ATOM     20  C   UNL     1      -0.043  10.696  17.837  0.00  0.00    +0.000 C 
ATOM     21  C   UNL     1      -1.548  10.375  17.674  0.00  0.00    +0.000 C 
ATOM     22  C   UNL     1      -1.543   9.850  19.137  0.00  0.00    +0.000 C 
BRANCH  16  24
ATOM     23  C   UNL     1      -0.487  14.299  19.204  0.00  0.00    +0.000 C 
ATOM     24  O   UNL     1       0.266  13.138  19.531  0.00  0.00    +0.000 OA
ENDBRANCH  16  24
ENDBRANCH   1  18
TORSDOF 3
ENDMDL
MODEL 4
REMARK VINA RESULT:      -6.2      1.695      2.629
REMARK  Name = 
REMARK  6 active torsions:
REMARK  status: ('A' for Active; 'I' for Inactive)
REMARK    1  A    between atoms: C_1  and  O_2
REMARK    2  A    between atoms: O_2  and  C_3
REMARK    3  A    between atoms: C_5  and  N_6
REMARK    4  A    between atoms: N_6  and  C_7
REMARK    5  A    between atoms: N_10  and  C_11
REMARK    6  A    between atoms: C_13  and  C_14
REMARK                            x       y       z     vdW  Elec       q    Type
REMARK                         _______ _______ _______ _____ _____    ______ ____
ROOT
ATOM      1  N   UNL     1       2.271   7.212  19.177  0.00  0.00    +0.000 N 
ATOM      2  C   UNL     1       1.771   7.014  20.534  0.00  0.00    +0.000 C 
ATOM      3  C   UNL     1       2.089   8.431  18.519  0.00  0.00    +0.000 C 
ATOM      4  O   UNL     1       2.718   8.771  17.519  0.00  0.00    +0.000 OA
ATOM      5  N   UNL     1       1.183   9.275  19.103  0.00  0.00    +0.000 N 
ATOM      6  H   UNL     1       0.389   8.826  19.540  0.00  0.00    +0.000 HD
ENDROOT
BRANCH   5   7
ATOM      7  C   UNL     1       0.879  10.566  18.528  0.00  0.00    +0.000 C 
ATOM      8  C   UNL     1       0.932  11.757  19.532  0.00  0.00    +0.000 C 
ATOM      9  C   UNL     1      -0.491  12.370  19.614  0.00  0.00    +0.000 C 
ATOM     10  C   UNL     1      -0.535  13.829  19.186  0.00  0.00    +0.000 C 
ATOM     11  N   UNL     1      -1.264  11.519  18.736  0.00  0.00    +0.000 N 
ATOM     12  C   UNL     1      -2.567  11.369  18.432  0.00  0.00    +0.000 A 
ATOM     13  C   UNL     1      -2.578  10.266  17.596  0.00  0.00    +0.000 A 
ATOM     14  N   UNL     1      -1.309   9.743  17.426  0.00  0.00    +0.000 NA
ATOM     15  C   UNL     1      -0.546  10.540  18.130  0.00  0.00    +0.000 A 
ENDBRANCH   5   7
BRANCH   1  18
ATOM     16  C   UNL     1       4.201   5.094  17.126  0.00  0.00    +0.000 C 
ATOM     17  C   UNL     1       3.897   6.609  17.266  0.00  0.00    +0.000 C 
ATOM     18  C   UNL     1       3.374   6.312  18.706  0.00  0.00    +0.000 C 
ATOM     19  C   UNL     1       3.114   4.909  18.192  0.00  0.00    +0.000 C 
ATOM     20  C   UNL     1       3.223   3.721  19.124  0.00  0.00    +0.000 C 
ATOM     21  C   UNL     1       2.208   3.010  18.198  0.00  0.00    +0.000 C 
ATOM     22  C   UNL     1       1.778   4.409  17.677  0.00  0.00    +0.000 C 
BRANCH  16  24
ATOM     23  C   UNL     1       6.401   4.324  16.425  0.00  0.00    +0.000 C 
ATOM     24  O   UNL     1       5.538   4.684  17.496  0.00  0.00    +0.000 OA
ENDBRANCH  16  24
ENDBRANCH   1  18
TORSDOF 3
ENDMDL
MODEL 5
REMARK VINA RESULT:      -6.1      2.133      7.650
REMARK  Name = 
REMARK  6 active torsions:
REMARK  status: ('A' for Active; 'I' for Inactive)
REMARK    1  A    between atoms: C_1  and  O_2
REMARK    2  A    between atoms: O_2  and  C_3
REMARK    3  A    between atoms: C_5  and  N_6
REMARK    4  A    between atoms: N_6  and  C_7
REMARK    5  A    between atoms: N_10  and  C_11
REMARK    6  A    between atoms: C_13  and  C_14
REMARK                            x       y       z     vdW  Elec       q    Type
REMARK                         _______ _______ _______ _____ _____    ______ ____
ROOT
ATOM      1  N   UNL     1       1.596   9.070  19.656  0.00  0.00    +0.000 N 
ATOM      2  C   UNL     1       1.228   8.611  20.992  0.00  0.00    +0.000 C 
ATOM      3  C   UNL     1       1.913   8.153  18.649  0.00  0.00    +0.000 C 
ATOM      4  O   UNL     1       1.945   8.434  17.453  0.00  0.00    +0.000 OA
ATOM      5  N   UNL     1       2.137   6.873  19.080  0.00  0.00    +0.000 N 
ATOM      6  H   UNL     1       2.586   6.790  19.982  0.00  0.00    +0.000 HD
ENDROOT
BRANCH   5   7
ATOM      7  C   UNL     1       2.488   5.820  18.154  0.00  0.00    +0.000 C 
ATOM      8  C   UNL     1       1.662   4.508  18.314  0.00  0.00    +0.000 C 
ATOM      9  C   UNL     1       2.645   3.375  18.706  0.00  0.00    +0.000 C 
ATOM     10  C   UNL     1       2.676   2.238  17.696  0.00  0.00    +0.000 C 
ATOM     11  N   UNL     1       3.917   4.061  18.796  0.00  0.00    +0.000 N 
ATOM     12  C   UNL     1       5.158   3.750  19.213  0.00  0.00    +0.000 A 
ATOM     13  C   UNL     1       5.839   4.952  19.120  0.00  0.00    +0.000 A 
ATOM     14  N   UNL     1       5.014   5.972  18.685  0.00  0.00    +0.000 NA
ATOM     15  C   UNL     1       3.861   5.383  18.495  0.00  0.00    +0.000 A 
ENDBRANCH   5   7
BRANCH   1  18
ATOM     16  C   UNL     1      -0.083  12.167  19.639  0.00  0.00    +0.000 C 
ATOM     17  C   UNL     1       1.071  11.479  20.415  0.00  0.00    +0.000 C 
ATOM     18  C   UNL     1       1.161  10.445  19.250  0.00  0.00    +0.000 C 
ATOM     19  C   UNL     1      -0.291  10.793  18.988  0.00  0.00    +0.000 C 
ATOM     20  C   UNL     1      -0.847  10.747  17.581  0.00  0.00    +0.000 C 
ATOM     21  C   UNL     1      -2.226  10.471  18.226  0.00  0.00    +0.000 C 
ATOM     22  C   UNL     1      -1.478  10.004  19.505  0.00  0.00    +0.000 C 
BRANCH  16  24
ATOM     23  C   UNL     1      -0.250  14.519  19.037  0.00  0.00    +0.000 C 
ATOM     24  O   UNL     1       0.308  13.242  18.754  0.00  0.00    +0.000 OA
ENDBRANCH  16  24
ENDBRANCH   1  18
TORSDOF 3
ENDMDL
MODEL 6
REMARK VINA RESULT:      -6.1      2.911      7.613
REMARK  Name = 
REMARK  6 active torsions:
REMARK  status: ('A' for Active; 'I' for Inactive)
REMARK    1  A    between atoms: C_1  and  O_2
REMARK    2  A    between atoms: O_2  and  C_3
REMARK    3  A    between atoms: C_5  and  N_6
REMARK    4  A    between atoms: N_6  and  C_7
REMARK    5  A    between atoms: N_10  and  C_11
REMARK    6  A    between atoms: C_13  and  C_14
REMARK                            x       y       z     vdW  Elec       q    Type
REMARK                         _______ _______ _______ _____ _____    ______ ____
ROOT
ATOM      1  N   UNL     1       2.127   7.562  19.419  0.00  0.00    +0.000 N 
ATOM      2  C   UNL     1       2.060   6.423  20.331  0.00  0.00    +0.000 C 
ATOM      3  C   UNL     1       2.886   7.494  18.247  0.00  0.00    +0.000 C 
ATOM      4  O   UNL     1       2.763   8.276  17.306  0.00  0.00    +0.000 OA
ATOM      5  N   UNL     1       3.759   6.441  18.181  0.00  0.00    +0.000 N 
ATOM      6  H   UNL     1       4.182   6.172  19.060  0.00  0.00    +0.000 HD
ENDROOT
BRANCH   5   7
ATOM      7  C   UNL     1       4.620   6.250  17.036  0.00  0.00    +0.000 C 
ATOM      8  C   UNL     1       4.330   4.960  16.210  0.00  0.00    +0.000 C 
ATOM      9  C   UNL     1       5.590   4.060  16.282  0.00  0.00    +0.000 C 
ATOM     10  C   UNL     1       6.203   3.784  14.917  0.00  0.00    +0.000 C 
ATOM     11  N   UNL     1       6.481   4.812  17.139  0.00  0.00    +0.000 N 
ATOM     12  C   UNL     1       7.667   4.590  17.737  0.00  0.00    +0.000 A 
ATOM     13  C   UNL     1       7.854   5.724  18.509  0.00  0.00    +0.000 A 
ATOM     14  N   UNL     1       6.787   6.596  18.401  0.00  0.00    +0.000 NA
ATOM     15  C   UNL     1       5.983   6.004  17.555  0.00  0.00    +0.000 A 
ENDBRANCH   5   7
BRANCH   1  18
ATOM     16  C   UNL     1       0.383  10.552  20.073  0.00  0.00    +0.000 C 
ATOM     17  C   UNL     1       1.426  10.018  19.056  0.00  0.00    +0.000 C 
ATOM     18  C   UNL     1       1.024   8.574  19.491  0.00  0.00    +0.000 C 
ATOM     19  C   UNL     1       0.594   9.215  20.795  0.00  0.00    +0.000 C 
ATOM     20  C   UNL     1      -0.563   8.641  21.585  0.00  0.00    +0.000 C 
ATOM     21  C   UNL     1       0.108   9.241  22.842  0.00  0.00    +0.000 C 
ATOM     22  C   UNL     1       1.443   9.283  22.049  0.00  0.00    +0.000 C 
BRANCH  16  24
ATOM     23  C   UNL     1      -1.523  12.052  19.866  0.00  0.00    +0.000 C 
ATOM     24  O   UNL     1      -0.942  10.794  19.546  0.00  0.00    +0.000 OA
ENDBRANCH  16  24
ENDBRANCH   1  18
TORSDOF 3
ENDMDL
MODEL 7
REMARK VINA RESULT:      -6.0      1.539      2.543
REMARK  Name = 
REMARK  6 active torsions:
REMARK  status: ('A' for Active; 'I' for Inactive)
REMARK    1  A    between atoms: C_1  and  O_2
REMARK    2  A    between atoms: O_2  and  C_3
REMARK    3  A    between atoms: C_5  and  N_6
REMARK    4  A    between atoms: N_6  and  C_7
REMARK    5  A    between atoms: N_10  and  C_11
REMARK    6  A    between atoms: C_13  and  C_14
REMARK                            x       y       z     vdW  Elec       q    Type
REMARK                         _______ _______ _______ _____ _____    ______ ____
ROOT
ATOM      1  N   UNL     1       1.817   7.121  19.764  0.00  0.00    +0.000 N 
ATOM      2  C   UNL     1       1.583   7.296  21.195  0.00  0.00    +0.000 C 
ATOM      3  C   UNL     1       1.806   8.220  18.901  0.00  0.00    +0.000 C 
ATOM      4  O   UNL     1       2.273   8.201  17.763  0.00  0.00    +0.000 OA
ATOM      5  N   UNL     1       1.283   9.369  19.430  0.00  0.00    +0.000 N 
ATOM      6  H   UNL     1       0.514   9.240  20.074  0.00  0.00    +0.000 HD
ENDROOT
BRANCH   5   7
ATOM      7  C   UNL     1       1.193  10.583  18.649  0.00  0.00    +0.000 C 
ATOM      8  C   UNL     1       1.390  11.898  19.463  0.00  0.00    +0.000 C 
ATOM      9  C   UNL     1       0.073  12.711  19.373  0.00  0.00    +0.000 C 
ATOM     10  C   UNL     1       0.259  14.075  18.727  0.00  0.00    +0.000 C 
ATOM     11  N   UNL     1      -0.791  11.850  18.593  0.00  0.00    +0.000 N 
ATOM     12  C   UNL     1      -2.091  11.841  18.245  0.00  0.00    +0.000 A 
ATOM     13  C   UNL     1      -2.239  10.632  17.587  0.00  0.00    +0.000 A 
ATOM     14  N   UNL     1      -1.057   9.915  17.568  0.00  0.00    +0.000 NA
ATOM     15  C   UNL     1      -0.207  10.696  18.183  0.00  0.00    +0.000 A 
ENDBRANCH   5   7
BRANCH   1  18
ATOM     16  C   UNL     1       2.437   3.929  18.407  0.00  0.00    +0.000 C 
ATOM     17  C   UNL     1       2.154   5.369  17.901  0.00  0.00    +0.000 C 
ATOM     18  C   UNL     1       2.536   5.882  19.324  0.00  0.00    +0.000 C 
ATOM     19  C   UNL     1       2.136   4.499  19.800  0.00  0.00    +0.000 C 
ATOM     20  C   UNL     1       2.827   3.871  20.992  0.00  0.00    +0.000 C 
ATOM     21  C   UNL     1       1.523   3.069  21.216  0.00  0.00    +0.000 C 
ATOM     22  C   UNL     1       0.778   4.138  20.370  0.00  0.00    +0.000 C 
BRANCH  16  24
ATOM     23  C   UNL     1       3.901   2.053  17.902  0.00  0.00    +0.000 C 
ATOM     24  O   UNL     1       3.780   3.440  18.192  0.00  0.00    +0.000 OA
ENDBRANCH  16  24
ENDBRANCH   1  18
TORSDOF 3
ENDMDL
MODEL 8
REMARK VINA RESULT:      -5.9      2.666      4.159
REMARK  Name = 
REMARK  6 active torsions:
REMARK  status: ('A' for Active; 'I' for Inactive)
REMARK    1  A    between atoms: C_1  and  O_2
REMARK    2  A    between atoms: O_2  and  C_3
REMARK    3  A    between atoms: C_5  and  N_6
REMARK    4  A    between atoms: N_6  and  C_7
REMARK    5  A    between atoms: N_10  and  C_11
REMARK    6  A    between atoms: C_13  and  C_14
REMARK                            x       y       z     vdW  Elec       q    Type
REMARK                         _______ _______ _______ _____ _____    ______ ____
ROOT
ATOM      1  N   UNL     1       3.428   6.718  18.262  0.00  0.00    +0.000 N 
ATOM      2  C   UNL     1       3.652   6.108  19.570  0.00  0.00    +0.000 C 
ATOM      3  C   UNL     1       2.603   7.838  18.129  0.00  0.00    +0.000 C 
ATOM      4  O   UNL     1       2.597   8.570  17.141  0.00  0.00    +0.000 OA
ATOM      5  N   UNL     1       1.820   8.115  19.217  0.00  0.00    +0.000 N 
ATOM      6  H   UNL     1       1.480   7.309  19.724  0.00  0.00    +0.000 HD
ENDROOT
BRANCH   5   7
ATOM      7  C   UNL     1       0.906   9.235  19.220  0.00  0.00    +0.000 C 
ATOM      8  C   UNL     1       1.585  10.631  19.085  0.00  0.00    +0.000 C 
ATOM      9  C   UNL     1       1.282  11.431  20.379  0.00  0.00    +0.000 C 
ATOM     10  C   UNL     1       0.509  12.715  20.118  0.00  0.00    +0.000 C 
ATOM     11  N   UNL     1       0.524  10.490  21.175  0.00  0.00    +0.000 N 
ATOM     12  C   UNL     1       0.058  10.443  22.437  0.00  0.00    +0.000 A 
ATOM     13  C   UNL     1      -0.474   9.168  22.536  0.00  0.00    +0.000 A 
ATOM     14  N   UNL     1      -0.303   8.453  21.366  0.00  0.00    +0.000 NA
ATOM     15  C   UNL     1       0.300   9.297  20.569  0.00  0.00    +0.000 A 
ENDBRANCH   5   7
BRANCH   1  18
ATOM     16  C   UNL     1       5.946   5.140  16.368  0.00  0.00    +0.000 C 
ATOM     17  C   UNL     1       4.417   5.011  16.599  0.00  0.00    +0.000 C 
ATOM     18  C   UNL     1       4.443   6.455  17.191  0.00  0.00    +0.000 C 
ATOM     19  C   UNL     1       5.899   6.172  17.503  0.00  0.00    +0.000 C 
ATOM     20  C   UNL     1       6.916   7.293  17.490  0.00  0.00    +0.000 C 
ATOM     21  C   UNL     1       7.728   6.454  18.505  0.00  0.00    +0.000 C 
ATOM     22  C   UNL     1       6.419   5.687  18.842  0.00  0.00    +0.000 C 
BRANCH  16  24
ATOM     23  C   UNL     1       6.861   4.667  14.163  0.00  0.00    +0.000 C 
ATOM     24  O   UNL     1       6.347   5.635  15.070  0.00  0.00    +0.000 OA
ENDBRANCH  16  24
ENDBRANCH   1  18
TORSDOF 3
ENDMDL
MODEL 9
REMARK VINA RESULT:      -5.9      2.033      7.776
REMARK  Name = 
REMARK  6 active torsions:
REMARK  status: ('A' for Active; 'I' for Inactive)
REMARK    1  A    between atoms: C_1  and  O_2
REMARK    2  A    between atoms: O_2  and  C_3
REMARK    3  A    between atoms: C_5  and  N_6
REMARK    4  A    between atoms: N_6  and  C_7
REMARK    5  A    between atoms: N_10  and  C_11
REMARK    6  A    between atoms: C_13  and  C_14
REMARK                            x       y       z     vdW  Elec       q    Type
REMARK                         _______ _______ _______ _____ _____    ______ ____
ROOT
ATOM      1  N   UNL     1       1.307   8.889  19.376  0.00  0.00    +0.000 N 
ATOM      2  C   UNL     1       1.645   9.028  17.963  0.00  0.00    +0.000 C 
ATOM      3  C   UNL     1       1.842   7.846  20.138  0.00  0.00    +0.000 C 
ATOM      4  O   UNL     1       1.844   7.828  21.368  0.00  0.00    +0.000 OA
ATOM      5  N   UNL     1       2.431   6.843  19.417  0.00  0.00    +0.000 N 
ATOM      6  H   UNL     1       1.996   6.632  18.529  0.00  0.00    +0.000 HD
ENDROOT
BRANCH   5   7
ATOM      7  C   UNL     1       3.015   5.692  20.069  0.00  0.00    +0.000 C 
ATOM      8  C   UNL     1       4.273   5.108  19.357  0.00  0.00    +0.000 C 
ATOM      9  C   UNL     1       3.934   3.662  18.910  0.00  0.00    +0.000 C 
ATOM     10  C   UNL     1       4.842   2.617  19.541  0.00  0.00    +0.000 C 
ATOM     11  N   UNL     1       2.555   3.507  19.321  0.00  0.00    +0.000 N 
ATOM     12  C   UNL     1       1.588   2.588  19.142  0.00  0.00    +0.000 A 
ATOM     13  C   UNL     1       0.477   3.172  19.725  0.00  0.00    +0.000 A 
ATOM     14  N   UNL     1       0.763   4.431  20.218  0.00  0.00    +0.000 NA
ATOM     15  C   UNL     1       2.036   4.588  19.956  0.00  0.00    +0.000 A 
ENDBRANCH   5   7
BRANCH   1  18
ATOM     16  C   UNL     1      -0.846  11.147  21.013  0.00  0.00    +0.000 C 
ATOM     17  C   UNL     1      -0.109   9.818  21.323  0.00  0.00    +0.000 C 
ATOM     18  C   UNL     1       0.808  10.107  20.094  0.00  0.00    +0.000 C 
ATOM     19  C   UNL     1      -0.350  10.937  19.576  0.00  0.00    +0.000 C 
ATOM     20  C   UNL     1      -0.092  12.161  18.724  0.00  0.00    +0.000 C 
ATOM     21  C   UNL     1      -1.489  11.919  18.105  0.00  0.00    +0.000 C 
ATOM     22  C   UNL     1      -1.396  10.447  18.594  0.00  0.00    +0.000 C 
BRANCH  16  24
ATOM     23  C   UNL     1      -1.222  12.910  22.649  0.00  0.00    +0.000 C 
ATOM     24  O   UNL     1      -0.345  12.318  21.698  0.00  0.00    +0.000 OA
ENDBRANCH  16  24
ENDBRANCH   1  18
TORSDOF 3
ENDMDL
