MODEL 1
REMARK VINA RESULT:      -8.2      0.000      0.000
REMARK  Name = 
REMARK  8 active torsions:
REMARK  status: ('A' for Active; 'I' for Inactive)
REMARK    1  A    between atoms: C_1  and  C_2
REMARK    2  A    between atoms: C_4  and  C_5
REMARK    3  A    between atoms: C_6  and  N_7
REMARK    4  A    between atoms: N_10  and  C_11
REMARK    5  A    between atoms: N_10  and  C_23
REMARK    6  A    between atoms: C_11  and  C_12
REMARK    7  A    between atoms: C_15  and  C_16
REMARK    8  A    between atoms: C_30  and  C_31
REMARK                            x       y       z     vdW  Elec       q    Type
REMARK                         _______ _______ _______ _____ _____    ______ ____
ROOT
ATOM      1  N   UNL     1      -2.017  11.395  19.508  0.00  0.00    +0.000 N 
ATOM      2  C   UNL     1      -0.885  12.195  19.522  0.00  0.00    +0.000 C 
ATOM      3  O   UNL     1      -0.855  13.298  18.988  0.00  0.00    +0.000 OA
ATOM      4  N   UNL     1       0.236  11.649  20.172  0.00  0.00    +0.000 N 
ATOM      5  H   UNL     1      -1.802  10.427  19.343  0.00  0.00    +0.000 HD
ENDROOT
BRANCH   1  11
ATOM      6  C   UNL     1      -7.051  12.785  17.049  0.00  0.00    +0.000 C 
ATOM      7  C   UNL     1      -5.738  12.440  17.691  0.00  0.00    +0.000 A 
ATOM      8  C   UNL     1      -4.760  11.741  16.991  0.00  0.00    +0.000 A 
ATOM      9  C   UNL     1      -3.523  11.424  17.583  0.00  0.00    +0.000 A 
ATOM     10  C   UNL     1      -2.521  10.686  16.735  0.00  0.00    +0.000 C 
ATOM     11  C   UNL     1      -3.258  11.800  18.923  0.00  0.00    +0.000 A 
ATOM     12  C   UNL     1      -4.262  12.477  19.649  0.00  0.00    +0.000 A 
ATOM     13  C   UNL     1      -4.136  12.846  21.102  0.00  0.00    +0.000 C 
ATOM     14  C   UNL     1      -5.477  12.813  19.012  0.00  0.00    +0.000 A 
ENDBRANCH   1  11
BRANCH   4  15
ATOM     15  C   UNL     1       1.534  12.394  20.186  0.00  0.00    +0.000 C 
ATOM     16  C   UNL     1       2.144  12.503  18.771  0.00  0.00    +0.000 C 
ATOM     17  C   UNL     1       2.223  13.895  18.145  0.00  0.00    +0.000 C 
ATOM     18  C   UNL     1       3.415  14.719  18.631  0.00  0.00    +0.000 C 
ATOM     19  C   UNL     1       3.289  15.298  20.037  0.00  0.00    +0.000 C 
ATOM     20  C   UNL     1       2.953  14.297  21.140  0.00  0.00    +0.000 C 
ATOM     21  C   UNL     1       1.549  13.693  21.014  0.00  0.00    +0.000 C 
ENDBRANCH   4  15
BRANCH   4  22
ATOM     22  C   UNL     1       0.287  10.303  20.783  0.00  0.00    +0.000 C 
BRANCH  22  23
ATOM     23  C   UNL     1       1.059   9.270  19.990  0.00  0.00    +0.000 A 
ATOM     24  C   UNL     1       1.588   8.125  20.594  0.00  0.00    +0.000 A 
ATOM     25  C   UNL     1       2.308   7.185  19.847  0.00  0.00    +0.000 A 
ATOM     26  C   UNL     1       2.513   7.354  18.471  0.00  0.00    +0.000 A 
ATOM     27  C   UNL     1       1.921   8.462  17.851  0.00  0.00    +0.000 A 
ATOM     28  C   UNL     1       1.201   9.406  18.599  0.00  0.00    +0.000 A 
BRANCH  26  29
ATOM     29  C   UNL     1       3.359   6.421  17.737  0.00  0.00    +0.000 A 
ATOM     30  C   UNL     1       3.441   5.048  17.631  0.00  0.00    +0.000 A 
ATOM     31  N   UNL     1       4.487   4.688  16.819  0.00  0.00    +0.000 NA
ATOM     32  C   UNL     1       5.001   5.843  16.464  0.00  0.00    +0.000 A 
ATOM     33  O   UNL     1       4.375   6.941  16.973  0.00  0.00    +0.000 OA
ENDBRANCH  26  29
ENDBRANCH  22  23
ENDBRANCH   4  22
TORSDOF 5
ENDMDL
MODEL 2
REMARK VINA RESULT:      -8.2      0.250      1.560
REMARK  Name = 
REMARK  8 active torsions:
REMARK  status: ('A' for Active; 'I' for Inactive)
REMARK    1  A    between atoms: C_1  and  C_2
REMARK    2  A    between atoms: C_4  and  C_5
REMARK    3  A    between atoms: C_6  and  N_7
REMARK    4  A    between atoms: N_10  and  C_11
REMARK    5  A    between atoms: N_10  and  C_23
REMARK    6  A    between atoms: C_11  and  C_12
REMARK    7  A    between atoms: C_15  and  C_16
REMARK    8  A    between atoms: C_30  and  C_31
REMARK                            x       y       z     vdW  Elec       q    Type
REMARK                         _______ _______ _______ _____ _____    ______ ____
ROOT
ATOM      1  N   UNL     1      -1.839  11.238  19.390  0.00  0.00    +0.000 N 
ATOM      2  C   UNL     1      -0.731  12.072  19.359  0.00  0.00    +0.000 C 
ATOM      3  O   UNL     1      -0.732  13.140  18.756  0.00  0.00    +0.000 OA
ATOM      4  N   UNL     1       0.402  11.602  20.046  0.00  0.00    +0.000 N 
ATOM      5  H   UNL     1      -1.593  10.270  19.287  0.00  0.00    +0.000 HD
ENDROOT
BRANCH   1  11
ATOM      6  C   UNL     1      -6.850  12.817  17.001  0.00  0.00    +0.000 C 
ATOM      7  C   UNL     1      -5.552  12.390  17.620  0.00  0.00    +0.000 A 
ATOM      8  C   UNL     1      -5.234  12.736  18.930  0.00  0.00    +0.000 A 
ATOM      9  C   UNL     1      -4.023  12.330  19.520  0.00  0.00    +0.000 A 
ATOM     10  C   UNL     1      -3.782  12.735  20.950  0.00  0.00    +0.000 C 
ATOM     11  C   UNL     1      -3.088  11.568  18.775  0.00  0.00    +0.000 A 
ATOM     12  C   UNL     1      -3.390  11.246  17.435  0.00  0.00    +0.000 A 
ATOM     13  C   UNL     1      -2.442  10.524  16.517  0.00  0.00    +0.000 C 
ATOM     14  C   UNL     1      -4.631  11.638  16.886  0.00  0.00    +0.000 A 
ENDBRANCH   1  11
BRANCH   4  15
ATOM     15  C   UNL     1       1.677  12.386  20.019  0.00  0.00    +0.000 C 
ATOM     16  C   UNL     1       2.232  12.520  18.584  0.00  0.00    +0.000 C 
ATOM     17  C   UNL     1       2.247  13.917  17.964  0.00  0.00    +0.000 C 
ATOM     18  C   UNL     1       3.430  14.775  18.413  0.00  0.00    +0.000 C 
ATOM     19  C   UNL     1       3.337  15.342  19.826  0.00  0.00    +0.000 C 
ATOM     20  C   UNL     1       3.071  14.326  20.934  0.00  0.00    +0.000 C 
ATOM     21  C   UNL     1       1.681  13.680  20.854  0.00  0.00    +0.000 C 
ENDBRANCH   4  15
BRANCH   4  22
ATOM     22  C   UNL     1       0.489  10.299  20.740  0.00  0.00    +0.000 C 
BRANCH  22  23
ATOM     23  C   UNL     1       1.196   9.208  19.965  0.00  0.00    +0.000 A 
ATOM     24  C   UNL     1       1.628   8.030  20.582  0.00  0.00    +0.000 A 
ATOM     25  C   UNL     1       2.290   7.036  19.852  0.00  0.00    +0.000 A 
ATOM     26  C   UNL     1       2.532   7.183  18.479  0.00  0.00    +0.000 A 
ATOM     27  C   UNL     1       2.035   8.329  17.845  0.00  0.00    +0.000 A 
ATOM     28  C   UNL     1       1.373   9.327  18.577  0.00  0.00    +0.000 A 
BRANCH  26  29
ATOM     29  C   UNL     1       3.320   6.186  17.764  0.00  0.00    +0.000 A 
ATOM     30  C   UNL     1       3.314   4.809  17.680  0.00  0.00    +0.000 A 
ATOM     31  N   UNL     1       4.338   4.371  16.878  0.00  0.00    +0.000 NA
ATOM     32  C   UNL     1       4.925   5.485  16.507  0.00  0.00    +0.000 A 
ATOM     33  O   UNL     1       4.369   6.628  16.996  0.00  0.00    +0.000 OA
ENDBRANCH  26  29
ENDBRANCH  22  23
ENDBRANCH   4  22
TORSDOF 5
ENDMDL
MODEL 3
REMARK VINA RESULT:      -8.0      3.709      7.209
REMARK  Name = 
REMARK  8 active torsions:
REMARK  status: ('A' for Active; 'I' for Inactive)
REMARK    1  A    between atoms: C_1  and  C_2
REMARK    2  A    between atoms: C_4  and  C_5
REMARK    3  A    between atoms: C_6  and  N_7
REMARK    4  A    between atoms: N_10  and  C_11
REMARK    5  A    between atoms: N_10  and  C_23
REMARK    6  A    between atoms: C_11  and  C_12
REMARK    7  A    between atoms: C_15  and  C_16
REMARK    8  A    between atoms: C_30  and  C_31
REMARK                            x       y       z     vdW  Elec       q    Type
REMARK                         _______ _______ _______ _____ _____    ______ ____
ROOT
ATOM      1  N   UNL     1       2.188   8.202  20.082  0.00  0.00    +0.000 N 
ATOM      2  C   UNL     1       1.840   6.863  19.992  0.00  0.00    +0.000 C 
ATOM      3  O   UNL     1       0.696   6.469  20.192  0.00  0.00    +0.000 OA
ATOM      4  N   UNL     1       2.890   5.982  19.678  0.00  0.00    +0.000 N 
ATOM      5  H   UNL     1       3.072   8.339  20.541  0.00  0.00    +0.000 HD
ENDROOT
BRANCH   1  11
ATOM      6  C   UNL     1      -1.781  12.284  21.027  0.00  0.00    +0.000 C 
ATOM      7  C   UNL     1      -0.737  11.233  20.789  0.00  0.00    +0.000 A 
ATOM      8  C   UNL     1      -0.412  10.825  19.498  0.00  0.00    +0.000 A 
ATOM      9  C   UNL     1       0.574   9.847  19.268  0.00  0.00    +0.000 A 
ATOM     10  C   UNL     1       0.870   9.491  17.835  0.00  0.00    +0.000 C 
ATOM     11  C   UNL     1       1.246   9.242  20.359  0.00  0.00    +0.000 A 
ATOM     12  C   UNL     1       0.894   9.627  21.670  0.00  0.00    +0.000 A 
ATOM     13  C   UNL     1       1.468   8.993  22.908  0.00  0.00    +0.000 C 
ATOM     14  C   UNL     1      -0.074  10.638  21.865  0.00  0.00    +0.000 A 
ENDBRANCH   1  11
BRANCH   4  15
ATOM     15  C   UNL     1       2.643   4.506  19.626  0.00  0.00    +0.000 C 
ATOM     16  C   UNL     1       1.918   4.096  18.326  0.00  0.00    +0.000 C 
ATOM     17  C   UNL     1       2.695   3.235  17.329  0.00  0.00    +0.000 C 
ATOM     18  C   UNL     1       2.715   1.748  17.689  0.00  0.00    +0.000 C 
ATOM     19  C   UNL     1       3.643   1.358  18.835  0.00  0.00    +0.000 C 
ATOM     20  C   UNL     1       3.455   2.135  20.137  0.00  0.00    +0.000 C 
ATOM     21  C   UNL     1       3.835   3.617  20.029  0.00  0.00    +0.000 C 
ENDBRANCH   4  15
BRANCH   4  22
ATOM     22  C   UNL     1       4.300   6.383  19.485  0.00  0.00    +0.000 C 
BRANCH  22  23
ATOM     23  C   UNL     1       4.889   6.019  18.139  0.00  0.00    +0.000 A 
ATOM     24  C   UNL     1       4.443   6.617  16.956  0.00  0.00    +0.000 A 
ATOM     25  C   UNL     1       4.992   6.262  15.719  0.00  0.00    +0.000 A 
ATOM     26  C   UNL     1       6.011   5.305  15.624  0.00  0.00    +0.000 A 
ATOM     27  C   UNL     1       6.510   4.759  16.814  0.00  0.00    +0.000 A 
ATOM     28  C   UNL     1       5.959   5.113  18.055  0.00  0.00    +0.000 A 
BRANCH  26  29
ATOM     29  C   UNL     1       6.489   4.871  14.317  0.00  0.00    +0.000 A 
ATOM     30  C   UNL     1       6.103   3.916  13.400  0.00  0.00    +0.000 A 
ATOM     31  N   UNL     1       6.962   3.898  12.330  0.00  0.00    +0.000 NA
ATOM     32  C   UNL     1       7.834   4.832  12.632  0.00  0.00    +0.000 A 
ATOM     33  O   UNL     1       7.618   5.472  13.814  0.00  0.00    +0.000 OA
ENDBRANCH  26  29
ENDBRANCH  22  23
ENDBRANCH   4  22
TORSDOF 5
ENDMDL
MODEL 4
REMARK VINA RESULT:      -7.9      3.765      7.346
REMARK  Name = 
REMARK  8 active torsions:
REMARK  status: ('A' for Active; 'I' for Inactive)
REMARK    1  A    between atoms: C_1  and  C_2
REMARK    2  A    between atoms: C_4  and  C_5
REMARK    3  A    between atoms: C_6  and  N_7
REMARK    4  A    between atoms: N_10  and  C_11
REMARK    5  A    between atoms: N_10  and  C_23
REMARK    6  A    between atoms: C_11  and  C_12
REMARK    7  A    between atoms: C_15  and  C_16
REMARK    8  A    between atoms: C_30  and  C_31
REMARK                            x       y       z     vdW  Elec       q    Type
REMARK                         _______ _______ _______ _____ _____    ______ ____
ROOT
ATOM      1  N   UNL     1       2.116   8.172  19.990  0.00  0.00    +0.000 N 
ATOM      2  C   UNL     1       1.845   6.812  19.960  0.00  0.00    +0.000 C 
ATOM      3  O   UNL     1       0.734   6.360  20.211  0.00  0.00    +0.000 OA
ATOM      4  N   UNL     1       2.936   5.983  19.643  0.00  0.00    +0.000 N 
ATOM      5  H   UNL     1       3.003   8.378  20.414  0.00  0.00    +0.000 HD
ENDROOT
BRANCH   1  11
ATOM      6  C   UNL     1      -1.721  12.301  21.236  0.00  0.00    +0.000 C 
ATOM      7  C   UNL     1      -0.736  11.217  20.906  0.00  0.00    +0.000 A 
ATOM      8  C   UNL     1       0.019  10.606  21.903  0.00  0.00    +0.000 A 
ATOM      9  C   UNL     1       0.936   9.582  21.601  0.00  0.00    +0.000 A 
ATOM     10  C   UNL     1       1.687   8.968  22.752  0.00  0.00    +0.000 C 
ATOM     11  C   UNL     1       1.121   9.165  20.260  0.00  0.00    +0.000 A 
ATOM     12  C   UNL     1       0.385   9.807  19.241  0.00  0.00    +0.000 A 
ATOM     13  C   UNL     1       0.561   9.518  17.775  0.00  0.00    +0.000 C 
ATOM     14  C   UNL     1      -0.555  10.806  19.583  0.00  0.00    +0.000 A 
ENDBRANCH   1  11
BRANCH   4  15
ATOM     15  C   UNL     1       2.777   4.495  19.653  0.00  0.00    +0.000 C 
ATOM     16  C   UNL     1       2.043   3.993  18.390  0.00  0.00    +0.000 C 
ATOM     17  C   UNL     1       2.841   3.141  17.404  0.00  0.00    +0.000 C 
ATOM     18  C   UNL     1       2.960   1.674  17.817  0.00  0.00    +0.000 C 
ATOM     19  C   UNL     1       3.941   1.383  18.949  0.00  0.00    +0.000 C 
ATOM     20  C   UNL     1       3.743   2.196  20.226  0.00  0.00    +0.000 C 
ATOM     21  C   UNL     1       4.030   3.693  20.052  0.00  0.00    +0.000 C 
ENDBRANCH   4  15
BRANCH   4  22
ATOM     22  C   UNL     1       4.313   6.459  19.390  0.00  0.00    +0.000 C 
BRANCH  22  23
ATOM     23  C   UNL     1       4.887   6.067  18.045  0.00  0.00    +0.000 A 
ATOM     24  C   UNL     1       4.438   6.652  16.856  0.00  0.00    +0.000 A 
ATOM     25  C   UNL     1       4.973   6.271  15.620  0.00  0.00    +0.000 A 
ATOM     26  C   UNL     1       5.979   5.300  15.533  0.00  0.00    +0.000 A 
ATOM     27  C   UNL     1       6.481   4.767  16.727  0.00  0.00    +0.000 A 
ATOM     28  C   UNL     1       5.945   5.147  17.966  0.00  0.00    +0.000 A 
BRANCH  26  29
ATOM     29  C   UNL     1       6.441   4.840  14.228  0.00  0.00    +0.000 A 
ATOM     30  C   UNL     1       6.083   3.827  13.363  0.00  0.00    +0.000 A 
ATOM     31  N   UNL     1       6.909   3.814  12.268  0.00  0.00    +0.000 NA
ATOM     32  C   UNL     1       7.733   4.808  12.502  0.00  0.00    +0.000 A 
ATOM     33  O   UNL     1       7.516   5.483  13.665  0.00  0.00    +0.000 OA
ENDBRANCH  26  29
ENDBRANCH  22  23
ENDBRANCH   4  22
TORSDOF 5
ENDMDL
MODEL 5
REMARK VINA RESULT:      -7.7      1.365      5.961
REMARK  Name = 
REMARK  8 active torsions:
REMARK  status: ('A' for Active; 'I' for Inactive)
REMARK    1  A    between atoms: C_1  and  C_2
REMARK    2  A    between atoms: C_4  and  C_5
REMARK    3  A    between atoms: C_6  and  N_7
REMARK    4  A    between atoms: N_10  and  C_11
REMARK    5  A    between atoms: N_10  and  C_23
REMARK    6  A    between atoms: C_11  and  C_12
REMARK    7  A    between atoms: C_15  and  C_16
REMARK    8  A    between atoms: C_30  and  C_31
REMARK                            x       y       z     vdW  Elec       q    Type
REMARK                         _______ _______ _______ _____ _____    ______ ____
ROOT
ATOM      1  N   UNL     1       1.391  13.240  20.078  0.00  0.00    +0.000 N 
ATOM      2  C   UNL     1       0.225  13.310  19.330  0.00  0.00    +0.000 C 
ATOM      3  O   UNL     1      -0.030  14.264  18.604  0.00  0.00    +0.000 OA
ATOM      4  N   UNL     1      -0.656  12.224  19.476  0.00  0.00    +0.000 N 
ATOM      5  H   UNL     1       1.232  12.882  21.003  0.00  0.00    +0.000 HD
ENDROOT
BRANCH   1  11
ATOM      6  C   UNL     1       5.478  17.291  19.626  0.00  0.00    +0.000 C 
ATOM      7  C   UNL     1       4.422  16.232  19.759  0.00  0.00    +0.000 A 
ATOM      8  C   UNL     1       4.319  15.201  18.830  0.00  0.00    +0.000 A 
ATOM      9  C   UNL     1       3.339  14.200  18.955  0.00  0.00    +0.000 A 
ATOM     10  C   UNL     1       3.325  13.114  17.912  0.00  0.00    +0.000 C 
ATOM     11  C   UNL     1       2.417  14.236  20.030  0.00  0.00    +0.000 A 
ATOM     12  C   UNL     1       2.493  15.300  20.954  0.00  0.00    +0.000 A 
ATOM     13  C   UNL     1       1.516  15.499  22.080  0.00  0.00    +0.000 C 
ATOM     14  C   UNL     1       3.514  16.268  20.820  0.00  0.00    +0.000 A 
ENDBRANCH   1  11
BRANCH   4  15
ATOM     15  C   UNL     1      -1.977  12.228  18.772  0.00  0.00    +0.000 C 
ATOM     16  C   UNL     1      -1.910  11.463  17.431  0.00  0.00    +0.000 C 
ATOM     17  C   UNL     1      -2.711  10.166  17.321  0.00  0.00    +0.000 C 
ATOM     18  C   UNL     1      -4.196  10.386  17.026  0.00  0.00    +0.000 C 
ATOM     19  C   UNL     1      -5.038  10.872  18.201  0.00  0.00    +0.000 C 
ATOM     20  C   UNL     1      -4.529  12.125  18.910  0.00  0.00    +0.000 C 
ATOM     21  C   UNL     1      -3.202  11.916  19.651  0.00  0.00    +0.000 C 
ENDBRANCH   4  15
BRANCH   4  22
ATOM     22  C   UNL     1      -0.438  11.074  20.378  0.00  0.00    +0.000 C 
BRANCH  22  23
ATOM     23  C   UNL     1       0.479   9.999  19.833  0.00  0.00    +0.000 A 
ATOM     24  C   UNL     1       1.008  10.071  18.541  0.00  0.00    +0.000 A 
ATOM     25  C   UNL     1       1.845   9.063  18.049  0.00  0.00    +0.000 A 
ATOM     26  C   UNL     1       2.189   7.955  18.837  0.00  0.00    +0.000 A 
ATOM     27  C   UNL     1       1.720   7.919  20.156  0.00  0.00    +0.000 A 
ATOM     28  C   UNL     1       0.878   8.928  20.649  0.00  0.00    +0.000 A 
BRANCH  26  29
ATOM     29  C   UNL     1       2.971   6.865  18.266  0.00  0.00    +0.000 A 
ATOM     30  C   UNL     1       4.080   6.777  17.451  0.00  0.00    +0.000 A 
ATOM     31  N   UNL     1       4.371   5.465  17.173  0.00  0.00    +0.000 NA
ATOM     32  C   UNL     1       3.437   4.808  17.820  0.00  0.00    +0.000 A 
ATOM     33  O   UNL     1       2.552   5.579  18.510  0.00  0.00    +0.000 OA
ENDBRANCH  26  29
ENDBRANCH  22  23
ENDBRANCH   4  22
TORSDOF 5
ENDMDL
MODEL 6
REMARK VINA RESULT:      -7.7      1.337      6.132
REMARK  Name = 
REMARK  8 active torsions:
REMARK  status: ('A' for Active; 'I' for Inactive)
REMARK    1  A    between atoms: C_1  and  C_2
REMARK    2  A    between atoms: C_4  and  C_5
REMARK    3  A    between atoms: C_6  and  N_7
REMARK    4  A    between atoms: N_10  and  C_11
REMARK    5  A    between atoms: N_10  and  C_23
REMARK    6  A    between atoms: C_11  and  C_12
REMARK    7  A    between atoms: C_15  and  C_16
REMARK    8  A    between atoms: C_30  and  C_31
REMARK                            x       y       z     vdW  Elec       q    Type
REMARK                         _______ _______ _______ _____ _____    ______ ____
ROOT
ATOM      1  N   UNL     1       1.243  13.498  20.153  0.00  0.00    +0.000 N 
ATOM      2  C   UNL     1       0.095  13.503  19.375  0.00  0.00    +0.000 C 
ATOM      3  O   UNL     1      -0.200  14.446  18.649  0.00  0.00    +0.000 OA
ATOM      4  N   UNL     1      -0.721  12.363  19.490  0.00  0.00    +0.000 N 
ATOM      5  H   UNL     1       1.083  13.123  21.072  0.00  0.00    +0.000 HD
ENDROOT
BRANCH   1  11
ATOM      6  C   UNL     1       5.165  17.728  20.358  0.00  0.00    +0.000 C 
ATOM      7  C   UNL     1       4.139  16.634  20.289  0.00  0.00    +0.000 A 
ATOM      8  C   UNL     1       3.126  16.541  21.238  0.00  0.00    +0.000 A 
ATOM      9  C   UNL     1       2.155  15.524  21.173  0.00  0.00    +0.000 A 
ATOM     10  C   UNL     1       1.085  15.522  22.233  0.00  0.00    +0.000 C 
ATOM     11  C   UNL     1       2.206  14.556  20.140  0.00  0.00    +0.000 A 
ATOM     12  C   UNL     1       3.254  14.625  19.196  0.00  0.00    +0.000 A 
ATOM     13  C   UNL     1       3.468  13.605  18.112  0.00  0.00    +0.000 C 
ATOM     14  C   UNL     1       4.190  15.681  19.269  0.00  0.00    +0.000 A 
ENDBRANCH   1  11
BRANCH   4  15
ATOM     15  C   UNL     1      -2.021  12.292  18.751  0.00  0.00    +0.000 C 
ATOM     16  C   UNL     1      -1.908  11.417  17.484  0.00  0.00    +0.000 C 
ATOM     17  C   UNL     1      -2.694  10.106  17.462  0.00  0.00    +0.000 C 
ATOM     18  C   UNL     1      -4.171  10.282  17.107  0.00  0.00    +0.000 C 
ATOM     19  C   UNL     1      -5.051  10.857  18.213  0.00  0.00    +0.000 C 
ATOM     20  C   UNL     1      -4.575  12.171  18.827  0.00  0.00    +0.000 C 
ATOM     21  C   UNL     1      -3.268  12.041  19.620  0.00  0.00    +0.000 C 
ENDBRANCH   4  15
BRANCH   4  22
ATOM     22  C   UNL     1      -0.455  11.221  20.390  0.00  0.00    +0.000 C 
BRANCH  22  23
ATOM     23  C   UNL     1       0.447  10.150  19.815  0.00  0.00    +0.000 A 
ATOM     24  C   UNL     1       0.985  10.256  18.528  0.00  0.00    +0.000 A 
ATOM     25  C   UNL     1       1.809   9.251  18.008  0.00  0.00    +0.000 A 
ATOM     26  C   UNL     1       2.129   8.113  18.760  0.00  0.00    +0.000 A 
ATOM     27  C   UNL     1       1.652   8.040  20.075  0.00  0.00    +0.000 A 
ATOM     28  C   UNL     1       0.824   9.046  20.597  0.00  0.00    +0.000 A 
BRANCH  26  29
ATOM     29  C   UNL     1       2.897   7.030  18.158  0.00  0.00    +0.000 A 
ATOM     30  C   UNL     1       2.802   5.653  18.139  0.00  0.00    +0.000 A 
ATOM     31  N   UNL     1       3.850   5.107  17.443  0.00  0.00    +0.000 NA
ATOM     32  C   UNL     1       4.541   6.158  17.068  0.00  0.00    +0.000 A 
ATOM     33  O   UNL     1       4.031   7.360  17.456  0.00  0.00    +0.000 OA
ENDBRANCH  26  29
ENDBRANCH  22  23
ENDBRANCH   4  22
TORSDOF 5
ENDMDL
MODEL 7
REMARK VINA RESULT:      -7.6      1.323      5.719
REMARK  Name = 
REMARK  8 active torsions:
REMARK  status: ('A' for Active; 'I' for Inactive)
REMARK    1  A    between atoms: C_1  and  C_2
REMARK    2  A    between atoms: C_4  and  C_5
REMARK    3  A    between atoms: C_6  and  N_7
REMARK    4  A    between atoms: N_10  and  C_11
REMARK    5  A    between atoms: N_10  and  C_23
REMARK    6  A    between atoms: C_11  and  C_12
REMARK    7  A    between atoms: C_15  and  C_16
REMARK    8  A    between atoms: C_30  and  C_31
REMARK                            x       y       z     vdW  Elec       q    Type
REMARK                         _______ _______ _______ _____ _____    ______ ____
ROOT
ATOM      1  N   UNL     1       0.931  12.586  20.118  0.00  0.00    +0.000 N 
ATOM      2  C   UNL     1      -0.133  12.237  19.300  0.00  0.00    +0.000 C 
ATOM      3  O   UNL     1      -0.709  13.055  18.592  0.00  0.00    +0.000 OA
ATOM      4  N   UNL     1      -0.522  10.887  19.351  0.00  0.00    +0.000 N 
ATOM      5  H   UNL     1       0.883  12.143  21.019  0.00  0.00    +0.000 HD
ENDROOT
BRANCH   1  11
ATOM      6  C   UNL     1       3.196  17.874  20.591  0.00  0.00    +0.000 C 
ATOM      7  C   UNL     1       2.600  16.503  20.453  0.00  0.00    +0.000 A 
ATOM      8  C   UNL     1       1.649  16.040  21.357  0.00  0.00    +0.000 A 
ATOM      9  C   UNL     1       1.079  14.760  21.226  0.00  0.00    +0.000 A 
ATOM     10  C   UNL     1       0.041  14.360  22.242  0.00  0.00    +0.000 C 
ATOM     11  C   UNL     1       1.483  13.905  20.171  0.00  0.00    +0.000 A 
ATOM     12  C   UNL     1       2.473  14.356  19.273  0.00  0.00    +0.000 A 
ATOM     13  C   UNL     1       3.049  13.509  18.172  0.00  0.00    +0.000 C 
ATOM     14  C   UNL     1       2.997  15.661  19.411  0.00  0.00    +0.000 A 
ENDBRANCH   1  11
BRANCH   4  15
ATOM     15  C   UNL     1      -1.703  10.414  18.564  0.00  0.00    +0.000 C 
ATOM     16  C   UNL     1      -3.025  10.986  19.122  0.00  0.00    +0.000 C 
ATOM     17  C   UNL     1      -3.791  11.974  18.242  0.00  0.00    +0.000 C 
ATOM     18  C   UNL     1      -4.636  11.303  17.159  0.00  0.00    +0.000 C 
ATOM     19  C   UNL     1      -3.863  10.752  15.964  0.00  0.00    +0.000 C 
ATOM     20  C   UNL     1      -2.716   9.800  16.296  0.00  0.00    +0.000 C 
ATOM     21  C   UNL     1      -1.551  10.474  17.032  0.00  0.00    +0.000 C 
ENDBRANCH   4  15
BRANCH   4  22
ATOM     22  C   UNL     1       0.090   9.864  20.226  0.00  0.00    +0.000 C 
BRANCH  22  23
ATOM     23  C   UNL     1       1.094   8.959  19.545  0.00  0.00    +0.000 A 
ATOM     24  C   UNL     1       1.654   9.283  18.305  0.00  0.00    +0.000 A 
ATOM     25  C   UNL     1       2.573   8.428  17.686  0.00  0.00    +0.000 A 
ATOM     26  C   UNL     1       2.970   7.227  18.289  0.00  0.00    +0.000 A 
ATOM     27  C   UNL     1       2.468   6.937  19.564  0.00  0.00    +0.000 A 
ATOM     28  C   UNL     1       1.544   7.792  20.185  0.00  0.00    +0.000 A 
BRANCH  26  29
ATOM     29  C   UNL     1       3.843   6.302  17.575  0.00  0.00    +0.000 A 
ATOM     30  C   UNL     1       4.871   6.430  16.665  0.00  0.00    +0.000 A 
ATOM     31  N   UNL     1       5.318   5.196  16.267  0.00  0.00    +0.000 NA
ATOM     32  C   UNL     1       4.554   4.368  16.940  0.00  0.00    +0.000 A 
ATOM     33  O   UNL     1       3.637   4.956  17.758  0.00  0.00    +0.000 OA
ENDBRANCH  26  29
ENDBRANCH  22  23
ENDBRANCH   4  22
TORSDOF 5
ENDMDL
MODEL 8
REMARK VINA RESULT:      -7.5      1.200      5.425
REMARK  Name = 
REMARK  8 active torsions:
REMARK  status: ('A' for Active; 'I' for Inactive)
REMARK    1  A    between atoms: C_1  and  C_2
REMARK    2  A    between atoms: C_4  and  C_5
REMARK    3  A    between atoms: C_6  and  N_7
REMARK    4  A    between atoms: N_10  and  C_11
REMARK    5  A    between atoms: N_10  and  C_23
REMARK    6  A    between atoms: C_11  and  C_12
REMARK    7  A    between atoms: C_15  and  C_16
REMARK    8  A    between atoms: C_30  and  C_31
REMARK                            x       y       z     vdW  Elec       q    Type
REMARK                         _______ _______ _______ _____ _____    ______ ____
ROOT
ATOM      1  N   UNL     1       0.813  12.574  20.262  0.00  0.00    +0.000 N 
ATOM      2  C   UNL     1      -0.229  12.240  19.410  0.00  0.00    +0.000 C 
ATOM      3  O   UNL     1      -0.797  13.074  18.713  0.00  0.00    +0.000 OA
ATOM      4  N   UNL     1      -0.607  10.886  19.414  0.00  0.00    +0.000 N 
ATOM      5  H   UNL     1       0.749  12.105  21.149  0.00  0.00    +0.000 HD
ENDROOT
BRANCH   1  11
ATOM      6  C   UNL     1       2.950  17.933  20.415  0.00  0.00    +0.000 C 
ATOM      7  C   UNL     1       2.402  16.537  20.391  0.00  0.00    +0.000 A 
ATOM      8  C   UNL     1       2.808  15.623  19.423  0.00  0.00    +0.000 A 
ATOM      9  C   UNL     1       2.305  14.309  19.402  0.00  0.00    +0.000 A 
ATOM     10  C   UNL     1       2.824  13.389  18.329  0.00  0.00    +0.000 C 
ATOM     11  C   UNL     1       1.351  13.896  20.365  0.00  0.00    +0.000 A 
ATOM     12  C   UNL     1       0.909  14.830  21.326  0.00  0.00    +0.000 A 
ATOM     13  C   UNL     1      -0.164  14.540  22.339  0.00  0.00    +0.000 C 
ATOM     14  C   UNL     1       1.463  16.130  21.342  0.00  0.00    +0.000 A 
ENDBRANCH   1  11
BRANCH   4  15
ATOM     15  C   UNL     1      -1.766  10.426  18.587  0.00  0.00    +0.000 C 
ATOM     16  C   UNL     1      -3.102  10.996  19.113  0.00  0.00    +0.000 C 
ATOM     17  C   UNL     1      -3.839  11.997  18.222  0.00  0.00    +0.000 C 
ATOM     18  C   UNL     1      -4.654  11.341  17.107  0.00  0.00    +0.000 C 
ATOM     19  C   UNL     1      -3.848  10.801  15.929  0.00  0.00    +0.000 C 
ATOM     20  C   UNL     1      -2.714   9.841  16.284  0.00  0.00    +0.000 C 
ATOM     21  C   UNL     1      -1.569  10.503  17.061  0.00  0.00    +0.000 C 
ENDBRANCH   4  15
BRANCH   4  22
ATOM     22  C   UNL     1      -0.006   9.844  20.273  0.00  0.00    +0.000 C 
BRANCH  22  23
ATOM     23  C   UNL     1       1.016   8.962  19.588  0.00  0.00    +0.000 A 
ATOM     24  C   UNL     1       1.526   9.274  18.324  0.00  0.00    +0.000 A 
ATOM     25  C   UNL     1       2.463   8.442  17.701  0.00  0.00    +0.000 A 
ATOM     26  C   UNL     1       2.929   7.276  18.325  0.00  0.00    +0.000 A 
ATOM     27  C   UNL     1       2.475   7.001  19.622  0.00  0.00    +0.000 A 
ATOM     28  C   UNL     1       1.534   7.834  20.246  0.00  0.00    +0.000 A 
BRANCH  26  29
ATOM     29  C   UNL     1       3.819   6.368  17.612  0.00  0.00    +0.000 A 
ATOM     30  C   UNL     1       3.870   5.005  17.407  0.00  0.00    +0.000 A 
ATOM     31  N   UNL     1       4.984   4.668  16.681  0.00  0.00    +0.000 NA
ATOM     32  C   UNL     1       5.568   5.825  16.474  0.00  0.00    +0.000 A 
ATOM     33  O   UNL     1       4.926   6.905  17.000  0.00  0.00    +0.000 OA
ENDBRANCH  26  29
ENDBRANCH  22  23
ENDBRANCH   4  22
TORSDOF 5
ENDMDL
MODEL 9
REMARK VINA RESULT:      -7.5      1.263      5.614
REMARK  Name = 
REMARK  8 active torsions:
REMARK  status: ('A' for Active; 'I' for Inactive)
REMARK    1  A    between atoms: C_1  and  C_2
REMARK    2  A    between atoms: C_4  and  C_5
REMARK    3  A    between atoms: C_6  and  N_7
REMARK    4  A    between atoms: N_10  and  C_11
REMARK    5  A    between atoms: N_10  and  C_23
REMARK    6  A    between atoms: C_11  and  C_12
REMARK    7  A    between atoms: C_15  and  C_16
REMARK    8  A    between atoms: C_30  and  C_31
REMARK                            x       y       z     vdW  Elec       q    Type
REMARK                         _______ _______ _______ _____ _____    ______ ____
ROOT
ATOM      1  N   UNL     1       0.842  12.634  20.150  0.00  0.00    +0.000 N 
ATOM      2  C   UNL     1      -0.201  12.276  19.310  0.00  0.00    +0.000 C 
ATOM      3  O   UNL     1      -0.761  13.086  18.580  0.00  0.00    +0.000 OA
ATOM      4  N   UNL     1      -0.588  10.925  19.364  0.00  0.00    +0.000 N 
ATOM      5  H   UNL     1       0.774  12.200  21.054  0.00  0.00    +0.000 HD
ENDROOT
BRANCH   1  11
ATOM      6  C   UNL     1       3.091  17.929  20.628  0.00  0.00    +0.000 C 
ATOM      7  C   UNL     1       2.499  16.557  20.488  0.00  0.00    +0.000 A 
ATOM      8  C   UNL     1       1.547  16.091  21.390  0.00  0.00    +0.000 A 
ATOM      9  C   UNL     1       0.980  14.809  21.258  0.00  0.00    +0.000 A 
ATOM     10  C   UNL     1      -0.060  14.408  22.270  0.00  0.00    +0.000 C 
ATOM     11  C   UNL     1       1.390  13.955  20.204  0.00  0.00    +0.000 A 
ATOM     12  C   UNL     1       2.383  14.409  19.309  0.00  0.00    +0.000 A 
ATOM     13  C   UNL     1       2.965  13.563  18.211  0.00  0.00    +0.000 C 
ATOM     14  C   UNL     1       2.903  15.715  19.449  0.00  0.00    +0.000 A 
ENDBRANCH   1  11
BRANCH   4  15
ATOM     15  C   UNL     1      -1.749  10.443  18.552  0.00  0.00    +0.000 C 
ATOM     16  C   UNL     1      -3.087  11.006  19.082  0.00  0.00    +0.000 C 
ATOM     17  C   UNL     1      -3.841  11.987  18.185  0.00  0.00    +0.000 C 
ATOM     18  C   UNL     1      -4.658  11.309  17.085  0.00  0.00    +0.000 C 
ATOM     19  C   UNL     1      -3.857  10.762  15.908  0.00  0.00    +0.000 C 
ATOM     20  C   UNL     1      -2.710   9.819  16.265  0.00  0.00    +0.000 C 
ATOM     21  C   UNL     1      -1.566  10.502  17.024  0.00  0.00    +0.000 C 
ENDBRANCH   4  15
BRANCH   4  22
ATOM     22  C   UNL     1       0.004   9.912  20.263  0.00  0.00    +0.000 C 
BRANCH  22  23
ATOM     23  C   UNL     1       1.022   8.998  19.613  0.00  0.00    +0.000 A 
ATOM     24  C   UNL     1       1.470   7.833  20.242  0.00  0.00    +0.000 A 
ATOM     25  C   UNL     1       2.419   7.005  19.631  0.00  0.00    +0.000 A 
ATOM     26  C   UNL     1       2.943   7.310  18.368  0.00  0.00    +0.000 A 
ATOM     27  C   UNL     1       2.441   8.437  17.704  0.00  0.00    +0.000 A 
ATOM     28  C   UNL     1       1.491   9.268  18.317  0.00  0.00    +0.000 A 
BRANCH  26  29
ATOM     29  C   UNL     1       4.010   6.494  17.801  0.00  0.00    +0.000 A 
ATOM     30  C   UNL     1       4.709   5.375  18.206  0.00  0.00    +0.000 A 
ATOM     31  N   UNL     1       5.670   5.047  17.283  0.00  0.00    +0.000 NA
ATOM     32  C   UNL     1       5.526   5.968  16.360  0.00  0.00    +0.000 A 
ATOM     33  O   UNL     1       4.541   6.880  16.594  0.00  0.00    +0.000 OA
ENDBRANCH  26  29
ENDBRANCH  22  23
ENDBRANCH   4  22
TORSDOF 5
ENDMDL
