MODEL 1
REMARK VINA RESULT:      -5.7      0.000      0.000
REMARK  Name = 
REMARK  5 active torsions:
REMARK  status: ('A' for Active; 'I' for Inactive)
REMARK    1  A    between atoms: C_1  and  N_2
REMARK    2  A    between atoms: C_3  and  S_12
REMARK    3  A    between atoms: N_4  and  C_5
REMARK    4  A    between atoms: C_8  and  C_9
REMARK    5  A    between atoms: S_12  and  C_13
REMARK                            x       y       z     vdW  Elec       q    Type
REMARK                         _______ _______ _______ _____ _____    ______ ____
ROOT
ATOM      1  C   UNL     1       6.009   5.153  19.114  0.00  0.00    +0.000 C 
ATOM      2  N   UNL     1       6.007   5.531  17.719  0.00  0.00    +0.000 N 
ATOM      3  C   UNL     1       5.652   4.699  16.684  0.00  0.00    +0.000 C 
ATOM      4  N   UNL     1       4.685   3.869  16.480  0.00  0.00    +0.000 NA
ATOM      5  H   UNL     1       6.846   6.043  17.469  0.00  0.00    +0.000 HD
ENDROOT
BRANCH   4   6
ATOM      6  C   UNL     1       3.663   3.651  17.421  0.00  0.00    +0.000 A 
ATOM      7  C   UNL     1       2.645   4.571  17.683  0.00  0.00    +0.000 A 
ATOM      8  C   UNL     1       1.779   4.397  18.762  0.00  0.00    +0.000 A 
ATOM      9  C   UNL     1       1.848   3.239  19.541  0.00  0.00    +0.000 A 
ATOM     10  C   UNL     1       0.968   3.080  20.744  0.00  0.00    +0.000 C 
ATOM     11  C   UNL     1       2.729   2.224  19.158  0.00  0.00    +0.000 A 
ATOM     12  C   UNL     1       3.639   2.437  18.115  0.00  0.00    +0.000 A 
ENDBRANCH   4   6
BRANCH   3  13
ATOM     13  S   UNL     1       6.855   4.904  15.394  0.00  0.00    +0.000 S 
ATOM     14  C   UNL     1       6.143   3.940  14.050  0.00  0.00    +0.000 C 
ENDBRANCH   3  13
TORSDOF 2
ENDMDL
MODEL 2
REMARK VINA RESULT:      -5.7      1.765      2.429
REMARK  Name = 
REMARK  5 active torsions:
REMARK  status: ('A' for Active; 'I' for Inactive)
REMARK    1  A    between atoms: C_1  and  N_2
REMARK    2  A    between atoms: C_3  and  S_12
REMARK    3  A    between atoms: N_4  and  C_5
REMARK    4  A    between atoms: C_8  and  C_9
REMARK    5  A    between atoms: S_12  and  C_13
REMARK                            x       y       z     vdW  Elec       q    Type
REMARK                         _______ _______ _______ _____ _____    ______ ____
ROOT
ATOM      1  C   UNL     1       5.965   3.956  16.101  0.00  0.00    +0.000 C 
ATOM      2  N   UNL     1       6.761   4.304  17.256  0.00  0.00    +0.000 N 
ATOM      3  C   UNL     1       6.379   5.196  18.230  0.00  0.00    +0.000 C 
ATOM      4  N   UNL     1       5.292   5.401  18.893  0.00  0.00    +0.000 NA
ATOM      5  H   UNL     1       7.731   4.470  17.006  0.00  0.00    +0.000 HD
ENDROOT
BRANCH   4   6
ATOM      6  C   UNL     1       4.138   4.616  18.719  0.00  0.00    +0.000 A 
ATOM      7  C   UNL     1       3.045   5.011  17.946  0.00  0.00    +0.000 A 
ATOM      8  C   UNL     1       1.850   4.291  17.971  0.00  0.00    +0.000 A 
ATOM      9  C   UNL     1       1.761   3.098  18.691  0.00  0.00    +0.000 A 
ATOM     10  C   UNL     1       0.460   2.359  18.779  0.00  0.00    +0.000 C 
ATOM     11  C   UNL     1       2.914   2.594  19.301  0.00  0.00    +0.000 A 
ATOM     12  C   UNL     1       4.089   3.357  19.325  0.00  0.00    +0.000 A 
ENDBRANCH   4   6
BRANCH   3  13
ATOM     13  S   UNL     1       7.774   6.240  18.578  0.00  0.00    +0.000 S 
ATOM     14  C   UNL     1       7.476   7.648  17.497  0.00  0.00    +0.000 C 
ENDBRANCH   3  13
TORSDOF 2
ENDMDL
MODEL 3
REMARK VINA RESULT:      -5.6      1.214      1.276
REMARK  Name = 
REMARK  5 active torsions:
REMARK  status: ('A' for Active; 'I' for Inactive)
REMARK    1  A    between atoms: C_1  and  N_2
REMARK    2  A    between atoms: C_3  and  S_12
REMARK    3  A    between atoms: N_4  and  C_5
REMARK    4  A    between atoms: C_8  and  C_9
REMARK    5  A    between atoms: S_12  and  C_13
REMARK                            x       y       z     vdW  Elec       q    Type
REMARK                         _______ _______ _______ _____ _____    ______ ____
ROOT
ATOM      1  C   UNL     1       4.815   6.827  17.360  0.00  0.00    +0.000 C 
ATOM      2  N   UNL     1       5.077   6.153  16.109  0.00  0.00    +0.000 N 
ATOM      3  C   UNL     1       5.475   4.842  15.994  0.00  0.00    +0.000 C 
ATOM      4  N   UNL     1       5.101   3.732  16.536  0.00  0.00    +0.000 NA
ATOM      5  H   UNL     1       5.628   6.729  15.481  0.00  0.00    +0.000 HD
ENDROOT
BRANCH   4   6
ATOM      6  C   UNL     1       4.050   3.660  17.468  0.00  0.00    +0.000 A 
ATOM      7  C   UNL     1       2.700   3.660  17.111  0.00  0.00    +0.000 A 
ATOM      8  C   UNL     1       1.701   3.792  18.075  0.00  0.00    +0.000 A 
ATOM      9  C   UNL     1       2.032   3.821  19.432  0.00  0.00    +0.000 A 
ATOM     10  C   UNL     1       0.970   4.034  20.468  0.00  0.00    +0.000 C 
ATOM     11  C   UNL     1       3.364   3.617  19.803  0.00  0.00    +0.000 A 
ATOM     12  C   UNL     1       4.366   3.552  18.825  0.00  0.00    +0.000 A 
ENDBRANCH   4   6
BRANCH   3  13
ATOM     13  S   UNL     1       6.792   4.783  14.804  0.00  0.00    +0.000 S 
ATOM     14  C   UNL     1       6.059   3.817  13.472  0.00  0.00    +0.000 C 
ENDBRANCH   3  13
TORSDOF 2
ENDMDL
MODEL 4
REMARK VINA RESULT:      -5.6      2.593      5.217
REMARK  Name = 
REMARK  5 active torsions:
REMARK  status: ('A' for Active; 'I' for Inactive)
REMARK    1  A    between atoms: C_1  and  N_2
REMARK    2  A    between atoms: C_3  and  S_12
REMARK    3  A    between atoms: N_4  and  C_5
REMARK    4  A    between atoms: C_8  and  C_9
REMARK    5  A    between atoms: S_12  and  C_13
REMARK                            x       y       z     vdW  Elec       q    Type
REMARK                         _______ _______ _______ _____ _____    ______ ____
ROOT
ATOM      1  C   UNL     1       3.360   5.515  19.641  0.00  0.00    +0.000 C 
ATOM      2  N   UNL     1       3.516   4.083  19.524  0.00  0.00    +0.000 N 
ATOM      3  C   UNL     1       3.812   3.421  18.356  0.00  0.00    +0.000 C 
ATOM      4  N   UNL     1       4.653   3.610  17.396  0.00  0.00    +0.000 NA
ATOM      5  H   UNL     1       2.783   3.585  20.018  0.00  0.00    +0.000 HD
ENDROOT
BRANCH   4   6
ATOM      6  C   UNL     1       5.563   4.683  17.386  0.00  0.00    +0.000 A 
ATOM      7  C   UNL     1       6.782   4.667  18.067  0.00  0.00    +0.000 A 
ATOM      8  C   UNL     1       7.550   5.825  18.192  0.00  0.00    +0.000 A 
ATOM      9  C   UNL     1       7.163   7.001  17.546  0.00  0.00    +0.000 A 
ATOM     10  C   UNL     1       7.946   8.265  17.735  0.00  0.00    +0.000 C 
ATOM     11  C   UNL     1       6.052   6.966  16.698  0.00  0.00    +0.000 A 
ATOM     12  C   UNL     1       5.251   5.818  16.632  0.00  0.00    +0.000 A 
ENDBRANCH   4   6
BRANCH   3  13
ATOM     13  S   UNL     1       2.745   2.004  18.258  0.00  0.00    +0.000 S 
ATOM     14  C   UNL     1       1.145   2.698  18.706  0.00  0.00    +0.000 C 
ENDBRANCH   3  13
TORSDOF 2
ENDMDL
MODEL 5
REMARK VINA RESULT:      -5.6      1.797      2.809
REMARK  Name = 
REMARK  5 active torsions:
REMARK  status: ('A' for Active; 'I' for Inactive)
REMARK    1  A    between atoms: C_1  and  N_2
REMARK    2  A    between atoms: C_3  and  S_12
REMARK    3  A    between atoms: N_4  and  C_5
REMARK    4  A    between atoms: C_8  and  C_9
REMARK    5  A    between atoms: S_12  and  C_13
REMARK                            x       y       z     vdW  Elec       q    Type
REMARK                         _______ _______ _______ _____ _____    ______ ____
ROOT
ATOM      1  C   UNL     1       5.432   4.057  16.418  0.00  0.00    +0.000 C 
ATOM      2  N   UNL     1       6.444   4.282  17.424  0.00  0.00    +0.000 N 
ATOM      3  C   UNL     1       6.287   5.091  18.525  0.00  0.00    +0.000 C 
ATOM      4  N   UNL     1       5.352   5.259  19.399  0.00  0.00    +0.000 NA
ATOM      5  H   UNL     1       7.355   4.449  17.009  0.00  0.00    +0.000 HD
ENDROOT
BRANCH   4   6
ATOM      6  C   UNL     1       4.157   4.517  19.383  0.00  0.00    +0.000 A 
ATOM      7  C   UNL     1       4.068   3.188  19.801  0.00  0.00    +0.000 A 
ATOM      8  C   UNL     1       2.912   2.440  19.575  0.00  0.00    +0.000 A 
ATOM      9  C   UNL     1       1.781   3.041  19.018  0.00  0.00    +0.000 A 
ATOM     10  C   UNL     1       0.563   2.226  18.708  0.00  0.00    +0.000 C 
ATOM     11  C   UNL     1       1.799   4.420  18.786  0.00  0.00    +0.000 A 
ATOM     12  C   UNL     1       2.985   5.147  18.954  0.00  0.00    +0.000 A 
ENDBRANCH   4   6
BRANCH   3  13
ATOM     13  S   UNL     1       7.760   6.069  18.687  0.00  0.00    +0.000 S 
ATOM     14  C   UNL     1       7.483   7.379  17.484  0.00  0.00    +0.000 C 
ENDBRANCH   3  13
TORSDOF 2
ENDMDL
MODEL 6
REMARK VINA RESULT:      -5.5      2.602      5.360
REMARK  Name = 
REMARK  5 active torsions:
REMARK  status: ('A' for Active; 'I' for Inactive)
REMARK    1  A    between atoms: C_1  and  N_2
REMARK    2  A    between atoms: C_3  and  S_12
REMARK    3  A    between atoms: N_4  and  C_5
REMARK    4  A    between atoms: C_8  and  C_9
REMARK    5  A    between atoms: S_12  and  C_13
REMARK                            x       y       z     vdW  Elec       q    Type
REMARK                         _______ _______ _______ _____ _____    ______ ____
ROOT
ATOM      1  C   UNL     1       2.848   2.781  17.700  0.00  0.00    +0.000 C 
ATOM      2  N   UNL     1       2.272   3.799  18.548  0.00  0.00    +0.000 N 
ATOM      3  C   UNL     1       2.986   4.595  19.412  0.00  0.00    +0.000 C 
ATOM      4  N   UNL     1       4.088   5.261  19.328  0.00  0.00    +0.000 NA
ATOM      5  H   UNL     1       1.430   3.470  19.010  0.00  0.00    +0.000 HD
ENDROOT
BRANCH   4   6
ATOM      6  C   UNL     1       4.856   5.309  18.150  0.00  0.00    +0.000 A 
ATOM      7  C   UNL     1       4.521   6.088  17.041  0.00  0.00    +0.000 A 
ATOM      8  C   UNL     1       5.200   5.945  15.831  0.00  0.00    +0.000 A 
ATOM      9  C   UNL     1       6.301   5.091  15.738  0.00  0.00    +0.000 A 
ATOM     10  C   UNL     1       6.990   4.880  14.424  0.00  0.00    +0.000 C 
ATOM     11  C   UNL     1       6.765   4.464  16.899  0.00  0.00    +0.000 A 
ATOM     12  C   UNL     1       6.036   4.563  18.091  0.00  0.00    +0.000 A 
ENDBRANCH   4   6
BRANCH   3  13
ATOM     13  S   UNL     1       2.097   4.652  20.948  0.00  0.00    +0.000 S 
ATOM     14  C   UNL     1       1.668   2.923  21.207  0.00  0.00    +0.000 C 
ENDBRANCH   3  13
TORSDOF 2
ENDMDL
MODEL 7
REMARK VINA RESULT:      -5.5      1.271      1.610
REMARK  Name = 
REMARK  5 active torsions:
REMARK  status: ('A' for Active; 'I' for Inactive)
REMARK    1  A    between atoms: C_1  and  N_2
REMARK    2  A    between atoms: C_3  and  S_12
REMARK    3  A    between atoms: N_4  and  C_5
REMARK    4  A    between atoms: C_8  and  C_9
REMARK    5  A    between atoms: S_12  and  C_13
REMARK                            x       y       z     vdW  Elec       q    Type
REMARK                         _______ _______ _______ _____ _____    ______ ____
ROOT
ATOM      1  C   UNL     1       5.078   7.030  17.053  0.00  0.00    +0.000 C 
ATOM      2  N   UNL     1       5.284   6.236  15.864  0.00  0.00    +0.000 N 
ATOM      3  C   UNL     1       5.635   4.906  15.862  0.00  0.00    +0.000 C 
ATOM      4  N   UNL     1       5.240   3.865  16.512  0.00  0.00    +0.000 NA
ATOM      5  H   UNL     1       5.837   6.732  15.173  0.00  0.00    +0.000 HD
ENDROOT
BRANCH   4   6
ATOM      6  C   UNL     1       4.211   3.915  17.471  0.00  0.00    +0.000 A 
ATOM      7  C   UNL     1       4.440   4.018  18.844  0.00  0.00    +0.000 A 
ATOM      8  C   UNL     1       3.400   3.860  19.760  0.00  0.00    +0.000 A 
ATOM      9  C   UNL     1       2.087   3.700  19.314  0.00  0.00    +0.000 A 
ATOM     10  C   UNL     1       0.976   3.458  20.291  0.00  0.00    +0.000 C 
ATOM     11  C   UNL     1       1.826   3.800  17.943  0.00  0.00    +0.000 A 
ATOM     12  C   UNL     1       2.885   3.892  17.030  0.00  0.00    +0.000 A 
ENDBRANCH   4   6
BRANCH   3  13
ATOM     13  S   UNL     1       6.917   4.692  14.651  0.00  0.00    +0.000 S 
ATOM     14  C   UNL     1       6.074   3.759  13.363  0.00  0.00    +0.000 C 
ENDBRANCH   3  13
TORSDOF 2
ENDMDL
MODEL 8
REMARK VINA RESULT:      -5.4      2.840      5.386
REMARK  Name = 
REMARK  5 active torsions:
REMARK  status: ('A' for Active; 'I' for Inactive)
REMARK    1  A    between atoms: C_1  and  N_2
REMARK    2  A    between atoms: C_3  and  S_12
REMARK    3  A    between atoms: N_4  and  C_5
REMARK    4  A    between atoms: C_8  and  C_9
REMARK    5  A    between atoms: S_12  and  C_13
REMARK                            x       y       z     vdW  Elec       q    Type
REMARK                         _______ _______ _______ _____ _____    ______ ____
ROOT
ATOM      1  C   UNL     1       2.592   6.530  19.682  0.00  0.00    +0.000 C 
ATOM      2  N   UNL     1       2.477   5.122  19.989  0.00  0.00    +0.000 N 
ATOM      3  C   UNL     1       2.688   4.104  19.090  0.00  0.00    +0.000 C 
ATOM      4  N   UNL     1       3.587   3.856  18.198  0.00  0.00    +0.000 NA
ATOM      5  H   UNL     1       1.644   4.925  20.534  0.00  0.00    +0.000 HD
ENDROOT
BRANCH   4   6
ATOM      6  C   UNL     1       4.684   4.706  17.971  0.00  0.00    +0.000 A 
ATOM      7  C   UNL     1       5.817   4.740  18.786  0.00  0.00    +0.000 A 
ATOM      8  C   UNL     1       6.780   5.737  18.637  0.00  0.00    +0.000 A 
ATOM      9  C   UNL     1       6.681   6.662  17.595  0.00  0.00    +0.000 A 
ATOM     10  C   UNL     1       7.674   7.778  17.473  0.00  0.00    +0.000 C 
ATOM     11  C   UNL     1       5.658   6.508  16.655  0.00  0.00    +0.000 A 
ATOM     12  C   UNL     1       4.660   5.545  16.853  0.00  0.00    +0.000 A 
ENDBRANCH   4   6
BRANCH   3  13
ATOM     13  S   UNL     1       1.376   2.925  19.298  0.00  0.00    +0.000 S 
ATOM     14  C   UNL     1       1.292   2.759  21.088  0.00  0.00    +0.000 C 
ENDBRANCH   3  13
TORSDOF 2
ENDMDL
MODEL 9
REMARK VINA RESULT:      -5.4      2.647      5.123
REMARK  Name = 
REMARK  5 active torsions:
REMARK  status: ('A' for Active; 'I' for Inactive)
REMARK    1  A    between atoms: C_1  and  N_2
REMARK    2  A    between atoms: C_3  and  S_12
REMARK    3  A    between atoms: N_4  and  C_5
REMARK    4  A    between atoms: C_8  and  C_9
REMARK    5  A    between atoms: S_12  and  C_13
REMARK                            x       y       z     vdW  Elec       q    Type
REMARK                         _______ _______ _______ _____ _____    ______ ____
ROOT
ATOM      1  C   UNL     1       3.111   5.222  19.985  0.00  0.00    +0.000 C 
ATOM      2  N   UNL     1       3.478   3.846  19.742  0.00  0.00    +0.000 N 
ATOM      3  C   UNL     1       3.877   3.345  18.525  0.00  0.00    +0.000 C 
ATOM      4  N   UNL     1       4.687   3.744  17.603  0.00  0.00    +0.000 NA
ATOM      5  H   UNL     1       2.824   3.201  20.174  0.00  0.00    +0.000 HD
ENDROOT
BRANCH   4   6
ATOM      6  C   UNL     1       5.428   4.935  17.709  0.00  0.00    +0.000 A 
ATOM      7  C   UNL     1       5.051   6.135  17.104  0.00  0.00    +0.000 A 
ATOM      8  C   UNL     1       5.920   7.226  17.071  0.00  0.00    +0.000 A 
ATOM      9  C   UNL     1       7.146   7.172  17.737  0.00  0.00    +0.000 A 
ATOM     10  C   UNL     1       8.112   8.313  17.645  0.00  0.00    +0.000 C 
ATOM     11  C   UNL     1       7.438   6.046  18.514  0.00  0.00    +0.000 A 
ATOM     12  C   UNL     1       6.590   4.932  18.486  0.00  0.00    +0.000 A 
ENDBRANCH   4   6
BRANCH   3  13
ATOM     13  S   UNL     1       3.033   1.802  18.277  0.00  0.00    +0.000 S 
ATOM     14  C   UNL     1       1.341   2.214  18.737  0.00  0.00    +0.000 C 
ENDBRANCH   3  13
TORSDOF 2
ENDMDL
