MODEL 1
REMARK VINA RESULT:      -7.9      0.000      0.000
REMARK  Name = 
REMARK  14 active torsions:
REMARK  status: ('A' for Active; 'I' for Inactive)
REMARK    1  A    between atoms: C_1  and  C_2
REMARK    2  A    between atoms: C_2  and  C_3
REMARK    3  A    between atoms: C_3  and  C_4
REMARK    4  A    between atoms: C_4  and  C_5
REMARK    5  A    between atoms: C_5  and  C_6
REMARK    6  A    between atoms: C_6  and  C_7
REMARK    7  A    between atoms: C_7  and  C_8
REMARK    8  A    between atoms: C_8  and  C_9
REMARK    9  A    between atoms: C_9  and  C_10
REMARK   10  A    between atoms: C_10  and  N_11
REMARK   11  A    between atoms: C_14  and  C_15
REMARK   12  A    between atoms: C_14  and  C_16
REMARK   13  A    between atoms: N_19  and  C_20
REMARK   14  A    between atoms: C_20  and  C_21
REMARK                            x       y       z     vdW  Elec       q    Type
REMARK                         _______ _______ _______ _____ _____    ______ ____
ROOT
ATOM      1  N   UNL     1       4.254   4.141  17.231  0.00  0.00    +0.000 N 
ATOM      2  C   UNL     1       3.365   4.199  18.261  0.00  0.00    +0.000 C 
ATOM      3  N   UNL     1       2.862   3.069  18.625  0.00  0.00    +0.000 NA
ATOM      4  C   UNL     1       1.945   3.052  19.740  0.00  0.00    +0.000 C 
ATOM      5  C   UNL     1       2.618   2.276  20.882  0.00  0.00    +0.000 C 
ATOM      6  C   UNL     1       0.682   2.311  19.288  0.00  0.00    +0.000 C 
ATOM      7  N   UNL     1       1.578   4.338  20.246  0.00  0.00    +0.000 N 
ATOM      8  C   UNL     1       2.223   5.422  19.788  0.00  0.00    +0.000 C 
ATOM      9  N   UNL     1       1.835   6.550  20.432  0.00  0.00    +0.000 N 
ATOM     10  N   UNL     1       3.073   5.398  18.824  0.00  0.00    +0.000 NA
ATOM     11  H   UNL     1       4.493   3.176  17.040  0.00  0.00    +0.000 HD
ATOM     12  H   UNL     1       0.967   4.393  21.044  0.00  0.00    +0.000 HD
ATOM     13  H   UNL     1       1.456   6.489  21.363  0.00  0.00    +0.000 HD
ENDROOT
BRANCH   1  14
ATOM     14  C   UNL     1       5.358   5.073  17.132  0.00  0.00    +0.000 C 
BRANCH  14  15
ATOM     15  C   UNL     1       5.633   5.339  15.649  0.00  0.00    +0.000 C 
BRANCH  15  16
ATOM     16  C   UNL     1       6.046   4.075  14.899  0.00  0.00    +0.000 C 
BRANCH  16  17
ATOM     17  C   UNL     1       6.988   4.365  13.726  0.00  0.00    +0.000 C 
BRANCH  17  18
ATOM     18  C   UNL     1       6.481   3.802  12.394  0.00  0.00    +0.000 C 
BRANCH  18  19
ATOM     19  C   UNL     1       4.951   3.807  12.326  0.00  0.00    +0.000 C 
BRANCH  19  20
ATOM     20  C   UNL     1       4.383   2.829  11.298  0.00  0.00    +0.000 C 
BRANCH  20  21
ATOM     21  C   UNL     1       3.110   3.237  10.542  0.00  0.00    +0.000 C 
BRANCH  21  23
ATOM     22  C   UNL     1       2.040   5.038   9.010  0.00  0.00    +0.000 C 
ATOM     23  C   UNL     1       3.254   4.190   9.351  0.00  0.00    +0.000 C 
ENDBRANCH  21  23
ENDBRANCH  20  21
ENDBRANCH  19  20
ENDBRANCH  18  19
ENDBRANCH  17  18
ENDBRANCH  16  17
ENDBRANCH  15  16
ENDBRANCH  14  15
ENDBRANCH   1  14
BRANCH   9  24
ATOM     24  C   UNL     1       1.948   7.880  19.879  0.00  0.00    +0.000 C 
BRANCH  24  25
ATOM     25  C   UNL     1       1.120   8.827  20.719  0.00  0.00    +0.000 A 
ATOM     26  C   UNL     1       1.096   8.728  22.116  0.00  0.00    +0.000 A 
ATOM     27  C   UNL     1       0.311   9.599  22.874  0.00  0.00    +0.000 A 
ATOM     28  C   UNL     1      -0.459  10.577  22.244  0.00  0.00    +0.000 A 
ATOM     29  C   UNL     1      -0.436  10.693  20.856  0.00  0.00    +0.000 A 
ATOM     30  C   UNL     1       0.351   9.826  20.098  0.00  0.00    +0.000 A 
ENDBRANCH  24  25
ENDBRANCH   9  24
TORSDOF 11
ENDMDL
MODEL 2
REMARK VINA RESULT:      -7.9      1.717      2.158
REMARK  Name = 
REMARK  14 active torsions:
REMARK  status: ('A' for Active; 'I' for Inactive)
REMARK    1  A    between atoms: C_1  and  C_2
REMARK    2  A    between atoms: C_2  and  C_3
REMARK    3  A    between atoms: C_3  and  C_4
REMARK    4  A    between atoms: C_4  and  C_5
REMARK    5  A    between atoms: C_5  and  C_6
REMARK    6  A    between atoms: C_6  and  C_7
REMARK    7  A    between atoms: C_7  and  C_8
REMARK    8  A    between atoms: C_8  and  C_9
REMARK    9  A    between atoms: C_9  and  C_10
REMARK   10  A    between atoms: C_10  and  N_11
REMARK   11  A    between atoms: C_14  and  C_15
REMARK   12  A    between atoms: C_14  and  C_16
REMARK   13  A    between atoms: N_19  and  C_20
REMARK   14  A    between atoms: C_20  and  C_21
REMARK                            x       y       z     vdW  Elec       q    Type
REMARK                         _______ _______ _______ _____ _____    ______ ____
ROOT
ATOM      1  N   UNL     1       4.731   4.285  18.669  0.00  0.00    +0.000 N 
ATOM      2  C   UNL     1       3.553   4.382  19.345  0.00  0.00    +0.000 C 
ATOM      3  N   UNL     1       2.928   3.271  19.536  0.00  0.00    +0.000 NA
ATOM      4  C   UNL     1       1.693   3.297  20.284  0.00  0.00    +0.000 C 
ATOM      5  C   UNL     1       1.929   2.530  21.594  0.00  0.00    +0.000 C 
ATOM      6  C   UNL     1       0.632   2.573  19.447  0.00  0.00    +0.000 C 
ATOM      7  N   UNL     1       1.214   4.600  20.623  0.00  0.00    +0.000 N 
ATOM      8  C   UNL     1       2.002   5.660  20.391  0.00  0.00    +0.000 C 
ATOM      9  N   UNL     1       1.454   6.809  20.856  0.00  0.00    +0.000 N 
ATOM     10  N   UNL     1       3.123   5.599  19.765  0.00  0.00    +0.000 NA
ATOM     11  H   UNL     1       4.995   3.311  18.580  0.00  0.00    +0.000 HD
ATOM     12  H   UNL     1       0.374   4.684  21.173  0.00  0.00    +0.000 HD
ATOM     13  H   UNL     1       0.786   6.776  21.610  0.00  0.00    +0.000 HD
ENDROOT
BRANCH   1  14
ATOM     14  C   UNL     1       5.830   5.191  18.930  0.00  0.00    +0.000 C 
BRANCH  14  15
ATOM     15  C   UNL     1       5.938   6.169  17.757  0.00  0.00    +0.000 C 
BRANCH  15  16
ATOM     16  C   UNL     1       7.209   5.956  16.939  0.00  0.00    +0.000 C 
BRANCH  16  17
ATOM     17  C   UNL     1       7.201   4.631  16.170  0.00  0.00    +0.000 C 
BRANCH  17  18
ATOM     18  C   UNL     1       6.878   4.801  14.682  0.00  0.00    +0.000 C 
BRANCH  18  19
ATOM     19  C   UNL     1       5.647   3.985  14.276  0.00  0.00    +0.000 C 
BRANCH  19  20
ATOM     20  C   UNL     1       5.591   3.668  12.781  0.00  0.00    +0.000 C 
BRANCH  20  21
ATOM     21  C   UNL     1       6.917   3.605  12.009  0.00  0.00    +0.000 C 
BRANCH  21  23
ATOM     22  C   UNL     1       6.176   1.250  11.210  0.00  0.00    +0.000 C 
ATOM     23  C   UNL     1       7.271   2.300  11.290  0.00  0.00    +0.000 C 
ENDBRANCH  21  23
ENDBRANCH  20  21
ENDBRANCH  19  20
ENDBRANCH  18  19
ENDBRANCH  17  18
ENDBRANCH  16  17
ENDBRANCH  15  16
ENDBRANCH  14  15
ENDBRANCH   1  14
BRANCH   9  24
ATOM     24  C   UNL     1       1.778   8.125  20.356  0.00  0.00    +0.000 C 
BRANCH  24  25
ATOM     25  C   UNL     1       0.876   9.136  21.026  0.00  0.00    +0.000 A 
ATOM     26  C   UNL     1       0.597   9.065  22.397  0.00  0.00    +0.000 A 
ATOM     27  C   UNL     1      -0.255   9.997  22.994  0.00  0.00    +0.000 A 
ATOM     28  C   UNL     1      -0.836  11.008  22.229  0.00  0.00    +0.000 A 
ATOM     29  C   UNL     1      -0.559  11.096  20.867  0.00  0.00    +0.000 A 
ATOM     30  C   UNL     1       0.295  10.169  20.270  0.00  0.00    +0.000 A 
ENDBRANCH  24  25
ENDBRANCH   9  24
TORSDOF 11
ENDMDL
MODEL 3
REMARK VINA RESULT:      -7.9      3.015      7.552
REMARK  Name = 
REMARK  14 active torsions:
REMARK  status: ('A' for Active; 'I' for Inactive)
REMARK    1  A    between atoms: C_1  and  C_2
REMARK    2  A    between atoms: C_2  and  C_3
REMARK    3  A    between atoms: C_3  and  C_4
REMARK    4  A    between atoms: C_4  and  C_5
REMARK    5  A    between atoms: C_5  and  C_6
REMARK    6  A    between atoms: C_6  and  C_7
REMARK    7  A    between atoms: C_7  and  C_8
REMARK    8  A    between atoms: C_8  and  C_9
REMARK    9  A    between atoms: C_9  and  C_10
REMARK   10  A    between atoms: C_10  and  N_11
REMARK   11  A    between atoms: C_14  and  C_15
REMARK   12  A    between atoms: C_14  and  C_16
REMARK   13  A    between atoms: N_19  and  C_20
REMARK   14  A    between atoms: C_20  and  C_21
REMARK                            x       y       z     vdW  Elec       q    Type
REMARK                         _______ _______ _______ _____ _____    ______ ____
ROOT
ATOM      1  N   UNL     1       4.049   7.129  17.112  0.00  0.00    +0.000 N 
ATOM      2  C   UNL     1       4.635   5.918  16.901  0.00  0.00    +0.000 C 
ATOM      3  N   UNL     1       5.792   5.952  16.332  0.00  0.00    +0.000 NA
ATOM      4  C   UNL     1       6.488   4.706  16.117  0.00  0.00    +0.000 C 
ATOM      5  C   UNL     1       7.746   4.720  16.999  0.00  0.00    +0.000 C 
ATOM      6  C   UNL     1       6.895   4.653  14.640  0.00  0.00    +0.000 C 
ATOM      7  N   UNL     1       5.745   3.528  16.440  0.00  0.00    +0.000 N 
ATOM      8  C   UNL     1       4.566   3.659  17.066  0.00  0.00    +0.000 C 
ATOM      9  N   UNL     1       4.031   2.457  17.394  0.00  0.00    +0.000 N 
ATOM     10  N   UNL     1       3.992   4.788  17.289  0.00  0.00    +0.000 NA
ATOM     11  H   UNL     1       4.717   7.868  16.932  0.00  0.00    +0.000 HD
ATOM     12  H   UNL     1       6.187   2.629  16.344  0.00  0.00    +0.000 HD
ATOM     13  H   UNL     1       4.633   1.659  17.519  0.00  0.00    +0.000 HD
ENDROOT
BRANCH   1  14
ATOM     14  C   UNL     1       3.178   7.359  18.246  0.00  0.00    +0.000 C 
BRANCH  14  15
ATOM     15  C   UNL     1       1.946   8.127  17.759  0.00  0.00    +0.000 C 
BRANCH  15  16
ATOM     16  C   UNL     1       1.723   9.421  18.538  0.00  0.00    +0.000 C 
BRANCH  16  17
ATOM     17  C   UNL     1       0.981   9.195  19.860  0.00  0.00    +0.000 C 
BRANCH  17  18
ATOM     18  C   UNL     1      -0.306  10.018  19.976  0.00  0.00    +0.000 C 
BRANCH  18  19
ATOM     19  C   UNL     1      -0.277  11.242  19.055  0.00  0.00    +0.000 C 
BRANCH  19  20
ATOM     20  C   UNL     1      -1.402  11.252  18.020  0.00  0.00    +0.000 C 
BRANCH  20  21
ATOM     21  C   UNL     1      -1.694   9.950  17.260  0.00  0.00    +0.000 C 
BRANCH  21  23
ATOM     22  C   UNL     1      -2.965  10.406  15.043  0.00  0.00    +0.000 C 
ATOM     23  C   UNL     1      -2.997   9.858  16.460  0.00  0.00    +0.000 C 
ENDBRANCH  21  23
ENDBRANCH  20  21
ENDBRANCH  19  20
ENDBRANCH  18  19
ENDBRANCH  17  18
ENDBRANCH  16  17
ENDBRANCH  15  16
ENDBRANCH  14  15
ENDBRANCH   1  14
BRANCH   9  24
ATOM     24  C   UNL     1       2.621   2.227  17.609  0.00  0.00    +0.000 C 
BRANCH  24  25
ATOM     25  C   UNL     1       2.267   2.661  19.013  0.00  0.00    +0.000 A 
ATOM     26  C   UNL     1       3.006   2.220  20.119  0.00  0.00    +0.000 A 
ATOM     27  C   UNL     1       2.651   2.617  21.410  0.00  0.00    +0.000 A 
ATOM     28  C   UNL     1       1.556   3.457  21.611  0.00  0.00    +0.000 A 
ATOM     29  C   UNL     1       0.818   3.910  20.519  0.00  0.00    +0.000 A 
ATOM     30  C   UNL     1       1.174   3.519  19.229  0.00  0.00    +0.000 A 
ENDBRANCH  24  25
ENDBRANCH   9  24
TORSDOF 11
ENDMDL
MODEL 4
REMARK VINA RESULT:      -7.8      1.826      2.423
REMARK  Name = 
REMARK  14 active torsions:
REMARK  status: ('A' for Active; 'I' for Inactive)
REMARK    1  A    between atoms: C_1  and  C_2
REMARK    2  A    between atoms: C_2  and  C_3
REMARK    3  A    between atoms: C_3  and  C_4
REMARK    4  A    between atoms: C_4  and  C_5
REMARK    5  A    between atoms: C_5  and  C_6
REMARK    6  A    between atoms: C_6  and  C_7
REMARK    7  A    between atoms: C_7  and  C_8
REMARK    8  A    between atoms: C_8  and  C_9
REMARK    9  A    between atoms: C_9  and  C_10
REMARK   10  A    between atoms: C_10  and  N_11
REMARK   11  A    between atoms: C_14  and  C_15
REMARK   12  A    between atoms: C_14  and  C_16
REMARK   13  A    between atoms: N_19  and  C_20
REMARK   14  A    between atoms: C_20  and  C_21
REMARK                            x       y       z     vdW  Elec       q    Type
REMARK                         _______ _______ _______ _____ _____    ______ ____
ROOT
ATOM      1  N   UNL     1       5.020   4.605  18.701  0.00  0.00    +0.000 N 
ATOM      2  C   UNL     1       3.830   4.626  19.361  0.00  0.00    +0.000 C 
ATOM      3  N   UNL     1       3.292   3.473  19.574  0.00  0.00    +0.000 NA
ATOM      4  C   UNL     1       2.050   3.420  20.307  0.00  0.00    +0.000 C 
ATOM      5  C   UNL     1       2.328   2.709  21.641  0.00  0.00    +0.000 C 
ATOM      6  C   UNL     1       1.061   2.592  19.479  0.00  0.00    +0.000 C 
ATOM      7  N   UNL     1       1.463   4.689  20.606  0.00  0.00    +0.000 N 
ATOM      8  C   UNL     1       2.168   5.802  20.354  0.00  0.00    +0.000 C 
ATOM      9  N   UNL     1       1.523   6.916  20.782  0.00  0.00    +0.000 N 
ATOM     10  N   UNL     1       3.299   5.815  19.743  0.00  0.00    +0.000 NA
ATOM     11  H   UNL     1       5.362   3.654  18.642  0.00  0.00    +0.000 HD
ATOM     12  H   UNL     1       0.612   4.720  21.144  0.00  0.00    +0.000 HD
ATOM     13  H   UNL     1       0.850   6.849  21.528  0.00  0.00    +0.000 HD
ENDROOT
BRANCH   1  14
ATOM     14  C   UNL     1       6.040   5.602  18.950  0.00  0.00    +0.000 C 
BRANCH  14  15
ATOM     15  C   UNL     1       7.382   5.054  18.457  0.00  0.00    +0.000 C 
BRANCH  15  16
ATOM     16  C   UNL     1       7.314   4.563  17.013  0.00  0.00    +0.000 C 
BRANCH  16  17
ATOM     17  C   UNL     1       6.937   5.675  16.028  0.00  0.00    +0.000 C 
BRANCH  17  18
ATOM     18  C   UNL     1       5.793   5.283  15.088  0.00  0.00    +0.000 C 
BRANCH  18  19
ATOM     19  C   UNL     1       5.910   3.824  14.635  0.00  0.00    +0.000 C 
BRANCH  19  20
ATOM     20  C   UNL     1       5.570   3.614  13.159  0.00  0.00    +0.000 C 
BRANCH  20  21
ATOM     21  C   UNL     1       6.705   3.742  12.134  0.00  0.00    +0.000 C 
BRANCH  21  23
ATOM     22  C   UNL     1       6.188   1.400  11.143  0.00  0.00    +0.000 C 
ATOM     23  C   UNL     1       7.223   2.463  11.468  0.00  0.00    +0.000 C 
ENDBRANCH  21  23
ENDBRANCH  20  21
ENDBRANCH  19  20
ENDBRANCH  18  19
ENDBRANCH  17  18
ENDBRANCH  16  17
ENDBRANCH  15  16
ENDBRANCH  14  15
ENDBRANCH   1  14
BRANCH   9  24
ATOM     24  C   UNL     1       1.749   8.240  20.250  0.00  0.00    +0.000 C 
BRANCH  24  25
ATOM     25  C   UNL     1       0.829   9.210  20.955  0.00  0.00    +0.000 A 
ATOM     26  C   UNL     1       0.357  10.362  20.312  0.00  0.00    +0.000 A 
ATOM     27  C   UNL     1      -0.477  11.257  20.986  0.00  0.00    +0.000 A 
ATOM     28  C   UNL     1      -0.848  11.011  22.307  0.00  0.00    +0.000 A 
ATOM     29  C   UNL     1      -0.394   9.864  22.955  0.00  0.00    +0.000 A 
ATOM     30  C   UNL     1       0.435   8.967  22.282  0.00  0.00    +0.000 A 
ENDBRANCH  24  25
ENDBRANCH   9  24
TORSDOF 11
ENDMDL
MODEL 5
REMARK VINA RESULT:      -7.8      1.136      1.651
REMARK  Name = 
REMARK  14 active torsions:
REMARK  status: ('A' for Active; 'I' for Inactive)
REMARK    1  A    between atoms: C_1  and  C_2
REMARK    2  A    between atoms: C_2  and  C_3
REMARK    3  A    between atoms: C_3  and  C_4
REMARK    4  A    between atoms: C_4  and  C_5
REMARK    5  A    between atoms: C_5  and  C_6
REMARK    6  A    between atoms: C_6  and  C_7
REMARK    7  A    between atoms: C_7  and  C_8
REMARK    8  A    between atoms: C_8  and  C_9
REMARK    9  A    between atoms: C_9  and  C_10
REMARK   10  A    between atoms: C_10  and  N_11
REMARK   11  A    between atoms: C_14  and  C_15
REMARK   12  A    between atoms: C_14  and  C_16
REMARK   13  A    between atoms: N_19  and  C_20
REMARK   14  A    between atoms: C_20  and  C_21
REMARK                            x       y       z     vdW  Elec       q    Type
REMARK                         _______ _______ _______ _____ _____    ______ ____
ROOT
ATOM      1  N   UNL     1       5.254   3.846  18.988  0.00  0.00    +0.000 N 
ATOM      2  C   UNL     1       4.006   4.072  19.482  0.00  0.00    +0.000 C 
ATOM      3  N   UNL     1       3.313   3.016  19.746  0.00  0.00    +0.000 NA
ATOM      4  C   UNL     1       1.996   3.183  20.314  0.00  0.00    +0.000 C 
ATOM      5  C   UNL     1       2.030   2.614  21.740  0.00  0.00    +0.000 C 
ATOM      6  C   UNL     1       1.019   2.369  19.458  0.00  0.00    +0.000 C 
ATOM      7  N   UNL     1       1.534   4.533  20.395  0.00  0.00    +0.000 N 
ATOM      8  C   UNL     1       2.391   5.528  20.119  0.00  0.00    +0.000 C 
ATOM      9  N   UNL     1       1.838   6.747  20.338  0.00  0.00    +0.000 N 
ATOM     10  N   UNL     1       3.579   5.347  19.662  0.00  0.00    +0.000 NA
ATOM     11  H   UNL     1       5.484   2.865  19.076  0.00  0.00    +0.000 HD
ATOM     12  H   UNL     1       0.636   4.719  20.812  0.00  0.00    +0.000 HD
ATOM     13  H   UNL     1       1.080   6.842  20.994  0.00  0.00    +0.000 HD
ENDROOT
BRANCH   1  14
ATOM     14  C   UNL     1       6.349   4.754  19.259  0.00  0.00    +0.000 C 
BRANCH  14  15
ATOM     15  C   UNL     1       6.628   5.566  17.990  0.00  0.00    +0.000 C 
BRANCH  15  16
ATOM     16  C   UNL     1       7.162   4.699  16.852  0.00  0.00    +0.000 C 
BRANCH  16  17
ATOM     17  C   UNL     1       6.087   4.358  15.815  0.00  0.00    +0.000 C 
BRANCH  17  18
ATOM     18  C   UNL     1       6.585   4.475  14.371  0.00  0.00    +0.000 C 
BRANCH  18  19
ATOM     19  C   UNL     1       5.498   4.086  13.366  0.00  0.00    +0.000 C 
BRANCH  19  20
ATOM     20  C   UNL     1       6.020   3.255  12.194  0.00  0.00    +0.000 C 
BRANCH  20  21
ATOM     21  C   UNL     1       4.993   2.546  11.300  0.00  0.00    +0.000 C 
BRANCH  21  23
ATOM     22  C   UNL     1       3.310   3.930   9.890  0.00  0.00    +0.000 C 
ATOM     23  C   UNL     1       3.598   3.167  11.171  0.00  0.00    +0.000 C 
ENDBRANCH  21  23
ENDBRANCH  20  21
ENDBRANCH  19  20
ENDBRANCH  18  19
ENDBRANCH  17  18
ENDBRANCH  16  17
ENDBRANCH  15  16
ENDBRANCH  14  15
ENDBRANCH   1  14
BRANCH   9  24
ATOM     24  C   UNL     1       2.281   7.965  19.701  0.00  0.00    +0.000 C 
BRANCH  24  25
ATOM     25  C   UNL     1       1.190   9.004  19.830  0.00  0.00    +0.000 A 
ATOM     26  C   UNL     1       0.582   9.270  21.063  0.00  0.00    +0.000 A 
ATOM     27  C   UNL     1      -0.437  10.220  21.159  0.00  0.00    +0.000 A 
ATOM     28  C   UNL     1      -0.858  10.914  20.025  0.00  0.00    +0.000 A 
ATOM     29  C   UNL     1      -0.255  10.667  18.794  0.00  0.00    +0.000 A 
ATOM     30  C   UNL     1       0.766   9.722  18.698  0.00  0.00    +0.000 A 
ENDBRANCH  24  25
ENDBRANCH   9  24
TORSDOF 11
ENDMDL
MODEL 6
REMARK VINA RESULT:      -7.7      1.102      1.810
REMARK  Name = 
REMARK  14 active torsions:
REMARK  status: ('A' for Active; 'I' for Inactive)
REMARK    1  A    between atoms: C_1  and  C_2
REMARK    2  A    between atoms: C_2  and  C_3
REMARK    3  A    between atoms: C_3  and  C_4
REMARK    4  A    between atoms: C_4  and  C_5
REMARK    5  A    between atoms: C_5  and  C_6
REMARK    6  A    between atoms: C_6  and  C_7
REMARK    7  A    between atoms: C_7  and  C_8
REMARK    8  A    between atoms: C_8  and  C_9
REMARK    9  A    between atoms: C_9  and  C_10
REMARK   10  A    between atoms: C_10  and  N_11
REMARK   11  A    between atoms: C_14  and  C_15
REMARK   12  A    between atoms: C_14  and  C_16
REMARK   13  A    between atoms: N_19  and  C_20
REMARK   14  A    between atoms: C_20  and  C_21
REMARK                            x       y       z     vdW  Elec       q    Type
REMARK                         _______ _______ _______ _____ _____    ______ ____
ROOT
ATOM      1  N   UNL     1       3.678   5.396  17.303  0.00  0.00    +0.000 N 
ATOM      2  C   UNL     1       2.975   5.355  18.468  0.00  0.00    +0.000 C 
ATOM      3  N   UNL     1       2.706   4.175  18.914  0.00  0.00    +0.000 NA
ATOM      4  C   UNL     1       2.000   4.059  20.168  0.00  0.00    +0.000 C 
ATOM      5  C   UNL     1       2.958   3.415  21.181  0.00  0.00    +0.000 C 
ATOM      6  C   UNL     1       0.798   3.136  19.936  0.00  0.00    +0.000 C 
ATOM      7  N   UNL     1       1.543   5.293  20.726  0.00  0.00    +0.000 N 
ATOM      8  C   UNL     1       1.940   6.444  20.164  0.00  0.00    +0.000 C 
ATOM      9  N   UNL     1       1.509   7.523  20.863  0.00  0.00    +0.000 N 
ATOM     10  N   UNL     1       2.613   6.516  19.071  0.00  0.00    +0.000 NA
ATOM     11  H   UNL     1       4.018   4.470  17.076  0.00  0.00    +0.000 HD
ATOM     12  H   UNL     1       1.072   5.282  21.616  0.00  0.00    +0.000 HD
ATOM     13  H   UNL     1       1.303   7.434  21.845  0.00  0.00    +0.000 HD
ENDROOT
BRANCH   1  14
ATOM     14  C   UNL     1       4.606   6.471  17.018  0.00  0.00    +0.000 C 
BRANCH  14  15
ATOM     15  C   UNL     1       5.930   6.166  17.724  0.00  0.00    +0.000 C 
BRANCH  15  16
ATOM     16  C   UNL     1       6.624   4.933  17.150  0.00  0.00    +0.000 C 
BRANCH  16  17
ATOM     17  C   UNL     1       6.890   5.052  15.645  0.00  0.00    +0.000 C 
BRANCH  17  18
ATOM     18  C   UNL     1       6.499   3.793  14.865  0.00  0.00    +0.000 C 
BRANCH  18  19
ATOM     19  C   UNL     1       5.526   4.115  13.726  0.00  0.00    +0.000 C 
BRANCH  19  20
ATOM     20  C   UNL     1       5.952   3.535  12.377  0.00  0.00    +0.000 C 
BRANCH  20  21
ATOM     21  C   UNL     1       4.871   2.894  11.496  0.00  0.00    +0.000 C 
BRANCH  21  23
ATOM     22  C   UNL     1       2.965   3.329   9.788  0.00  0.00    +0.000 C 
ATOM     23  C   UNL     1       3.694   3.767  11.048  0.00  0.00    +0.000 C 
ENDBRANCH  21  23
ENDBRANCH  20  21
ENDBRANCH  19  20
ENDBRANCH  18  19
ENDBRANCH  17  18
ENDBRANCH  16  17
ENDBRANCH  15  16
ENDBRANCH  14  15
ENDBRANCH   1  14
BRANCH   9  24
ATOM     24  C   UNL     1       1.337   8.841  20.297  0.00  0.00    +0.000 C 
BRANCH  24  25
ATOM     25  C   UNL     1       0.433   9.645  21.204  0.00  0.00    +0.000 A 
ATOM     26  C   UNL     1      -0.182  10.823  20.759  0.00  0.00    +0.000 A 
ATOM     27  C   UNL     1      -0.998  11.562  21.618  0.00  0.00    +0.000 A 
ATOM     28  C   UNL     1      -1.209  11.133  22.928  0.00  0.00    +0.000 A 
ATOM     29  C   UNL     1      -0.612   9.959  23.380  0.00  0.00    +0.000 A 
ATOM     30  C   UNL     1       0.200   9.217  22.522  0.00  0.00    +0.000 A 
ENDBRANCH  24  25
ENDBRANCH   9  24
TORSDOF 11
ENDMDL
MODEL 7
REMARK VINA RESULT:      -7.7      0.886      1.118
REMARK  Name = 
REMARK  14 active torsions:
REMARK  status: ('A' for Active; 'I' for Inactive)
REMARK    1  A    between atoms: C_1  and  C_2
REMARK    2  A    between atoms: C_2  and  C_3
REMARK    3  A    between atoms: C_3  and  C_4
REMARK    4  A    between atoms: C_4  and  C_5
REMARK    5  A    between atoms: C_5  and  C_6
REMARK    6  A    between atoms: C_6  and  C_7
REMARK    7  A    between atoms: C_7  and  C_8
REMARK    8  A    between atoms: C_8  and  C_9
REMARK    9  A    between atoms: C_9  and  C_10
REMARK   10  A    between atoms: C_10  and  N_11
REMARK   11  A    between atoms: C_14  and  C_15
REMARK   12  A    between atoms: C_14  and  C_16
REMARK   13  A    between atoms: N_19  and  C_20
REMARK   14  A    between atoms: C_20  and  C_21
REMARK                            x       y       z     vdW  Elec       q    Type
REMARK                         _______ _______ _______ _____ _____    ______ ____
ROOT
ATOM      1  N   UNL     1       4.053   4.734  17.791  0.00  0.00    +0.000 N 
ATOM      2  C   UNL     1       3.162   4.787  18.819  0.00  0.00    +0.000 C 
ATOM      3  N   UNL     1       2.691   3.650  19.204  0.00  0.00    +0.000 NA
ATOM      4  C   UNL     1       1.774   3.629  20.319  0.00  0.00    +0.000 C 
ATOM      5  C   UNL     1       2.467   2.895  21.477  0.00  0.00    +0.000 C 
ATOM      6  C   UNL     1       0.533   2.843  19.880  0.00  0.00    +0.000 C 
ATOM      7  N   UNL     1       1.369   4.913  20.799  0.00  0.00    +0.000 N 
ATOM      8  C   UNL     1       1.983   6.006  20.320  0.00  0.00    +0.000 C 
ATOM      9  N   UNL     1       1.562   7.135  20.942  0.00  0.00    +0.000 N 
ATOM     10  N   UNL     1       2.835   5.988  19.358  0.00  0.00    +0.000 NA
ATOM     11  H   UNL     1       4.321   3.773  17.619  0.00  0.00    +0.000 HD
ATOM     12  H   UNL     1       0.755   4.966  21.596  0.00  0.00    +0.000 HD
ATOM     13  H   UNL     1       1.184   7.082  21.874  0.00  0.00    +0.000 HD
ENDROOT
BRANCH   1  14
ATOM     14  C   UNL     1       5.131   5.695  17.674  0.00  0.00    +0.000 C 
BRANCH  14  15
ATOM     15  C   UNL     1       4.950   6.466  16.364  0.00  0.00    +0.000 C 
BRANCH  15  16
ATOM     16  C   UNL     1       5.725   5.836  15.209  0.00  0.00    +0.000 C 
BRANCH  16  17
ATOM     17  C   UNL     1       5.500   4.324  15.101  0.00  0.00    +0.000 C 
BRANCH  17  18
ATOM     18  C   UNL     1       6.335   3.669  13.996  0.00  0.00    +0.000 C 
BRANCH  18  19
ATOM     19  C   UNL     1       5.748   3.944  12.608  0.00  0.00    +0.000 C 
BRANCH  19  20
ATOM     20  C   UNL     1       5.364   2.675  11.847  0.00  0.00    +0.000 C 
BRANCH  20  21
ATOM     21  C   UNL     1       4.069   2.695  11.023  0.00  0.00    +0.000 C 
BRANCH  21  23
ATOM     22  C   UNL     1       2.880   4.214   9.286  0.00  0.00    +0.000 C 
ATOM     23  C   UNL     1       3.449   4.055  10.686  0.00  0.00    +0.000 C 
ENDBRANCH  21  23
ENDBRANCH  20  21
ENDBRANCH  19  20
ENDBRANCH  18  19
ENDBRANCH  17  18
ENDBRANCH  16  17
ENDBRANCH  15  16
ENDBRANCH  14  15
ENDBRANCH   1  14
BRANCH   9  24
ATOM     24  C   UNL     1       1.638   8.456  20.364  0.00  0.00    +0.000 C 
BRANCH  24  25
ATOM     25  C   UNL     1       0.793   9.398  21.191  0.00  0.00    +0.000 A 
ATOM     26  C   UNL     1       0.110   8.951  22.330  0.00  0.00    +0.000 A 
ATOM     27  C   UNL     1      -0.681   9.832  23.072  0.00  0.00    +0.000 A 
ATOM     28  C   UNL     1      -0.798  11.166  22.683  0.00  0.00    +0.000 A 
ATOM     29  C   UNL     1      -0.117  11.626  21.559  0.00  0.00    +0.000 A 
ATOM     30  C   UNL     1       0.677  10.749  20.820  0.00  0.00    +0.000 A 
ENDBRANCH  24  25
ENDBRANCH   9  24
TORSDOF 11
ENDMDL
MODEL 8
REMARK VINA RESULT:      -7.6      3.673      6.046
REMARK  Name = 
REMARK  14 active torsions:
REMARK  status: ('A' for Active; 'I' for Inactive)
REMARK    1  A    between atoms: C_1  and  C_2
REMARK    2  A    between atoms: C_2  and  C_3
REMARK    3  A    between atoms: C_3  and  C_4
REMARK    4  A    between atoms: C_4  and  C_5
REMARK    5  A    between atoms: C_5  and  C_6
REMARK    6  A    between atoms: C_6  and  C_7
REMARK    7  A    between atoms: C_7  and  C_8
REMARK    8  A    between atoms: C_8  and  C_9
REMARK    9  A    between atoms: C_9  and  C_10
REMARK   10  A    between atoms: C_10  and  N_11
REMARK   11  A    between atoms: C_14  and  C_15
REMARK   12  A    between atoms: C_14  and  C_16
REMARK   13  A    between atoms: N_19  and  C_20
REMARK   14  A    between atoms: C_20  and  C_21
REMARK                            x       y       z     vdW  Elec       q    Type
REMARK                         _______ _______ _______ _____ _____    ______ ____
ROOT
ATOM      1  N   UNL     1       4.247   4.710  17.592  0.00  0.00    +0.000 N 
ATOM      2  C   UNL     1       3.351   4.718  18.617  0.00  0.00    +0.000 C 
ATOM      3  N   UNL     1       2.900   3.563  18.970  0.00  0.00    +0.000 NA
ATOM      4  C   UNL     1       1.978   3.495  20.079  0.00  0.00    +0.000 C 
ATOM      5  C   UNL     1       2.681   2.743  21.220  0.00  0.00    +0.000 C 
ATOM      6  C   UNL     1       0.755   2.697  19.613  0.00  0.00    +0.000 C 
ATOM      7  N   UNL     1       1.547   4.757  20.591  0.00  0.00    +0.000 N 
ATOM      8  C   UNL     1       2.142   5.874  20.145  0.00  0.00    +0.000 C 
ATOM      9  N   UNL     1       1.697   6.978  20.794  0.00  0.00    +0.000 N 
ATOM     10  N   UNL     1       2.999   5.898  19.187  0.00  0.00    +0.000 NA
ATOM     11  H   UNL     1       4.534   3.759  17.396  0.00  0.00    +0.000 HD
ATOM     12  H   UNL     1       0.929   4.778  21.386  0.00  0.00    +0.000 HD
ATOM     13  H   UNL     1       1.316   6.893  21.723  0.00  0.00    +0.000 HD
ENDROOT
BRANCH   1  14
ATOM     14  C   UNL     1       5.306   5.694  17.506  0.00  0.00    +0.000 C 
BRANCH  14  15
ATOM     15  C   UNL     1       6.523   5.161  18.269  0.00  0.00    +0.000 C 
BRANCH  15  16
ATOM     16  C   UNL     1       7.567   6.245  18.526  0.00  0.00    +0.000 C 
BRANCH  16  17
ATOM     17  C   UNL     1       7.657   7.262  17.383  0.00  0.00    +0.000 C 
BRANCH  17  18
ATOM     18  C   UNL     1       7.443   8.707  17.846  0.00  0.00    +0.000 C 
BRANCH  18  19
ATOM     19  C   UNL     1       8.762   9.485  17.893  0.00  0.00    +0.000 C 
BRANCH  19  20
ATOM     20  C   UNL     1       9.099  10.031  19.281  0.00  0.00    +0.000 C 
BRANCH  20  21
ATOM     21  C   UNL     1       9.773  11.408  19.368  0.00  0.00    +0.000 C 
BRANCH  21  23
ATOM     22  C   UNL     1      12.314  11.821  19.698  0.00  0.00    +0.000 C 
ATOM     23  C   UNL     1      11.162  11.571  18.740  0.00  0.00    +0.000 C 
ENDBRANCH  21  23
ENDBRANCH  20  21
ENDBRANCH  19  20
ENDBRANCH  18  19
ENDBRANCH  17  18
ENDBRANCH  16  17
ENDBRANCH  15  16
ENDBRANCH  14  15
ENDBRANCH   1  14
BRANCH   9  24
ATOM     24  C   UNL     1       1.750   8.316  20.252  0.00  0.00    +0.000 C 
BRANCH  24  25
ATOM     25  C   UNL     1       0.850   9.209  21.075  0.00  0.00    +0.000 A 
ATOM     26  C   UNL     1       0.607   8.947  22.429  0.00  0.00    +0.000 A 
ATOM     27  C   UNL     1      -0.242   9.773  23.169  0.00  0.00    +0.000 A 
ATOM     28  C   UNL     1      -0.856  10.869  22.564  0.00  0.00    +0.000 A 
ATOM     29  C   UNL     1      -0.615  11.147  21.220  0.00  0.00    +0.000 A 
ATOM     30  C   UNL     1       0.236  10.326  20.482  0.00  0.00    +0.000 A 
ENDBRANCH  24  25
ENDBRANCH   9  24
TORSDOF 11
ENDMDL
MODEL 9
REMARK VINA RESULT:      -7.5      2.984      8.666
REMARK  Name = 
REMARK  14 active torsions:
REMARK  status: ('A' for Active; 'I' for Inactive)
REMARK    1  A    between atoms: C_1  and  C_2
REMARK    2  A    between atoms: C_2  and  C_3
REMARK    3  A    between atoms: C_3  and  C_4
REMARK    4  A    between atoms: C_4  and  C_5
REMARK    5  A    between atoms: C_5  and  C_6
REMARK    6  A    between atoms: C_6  and  C_7
REMARK    7  A    between atoms: C_7  and  C_8
REMARK    8  A    between atoms: C_8  and  C_9
REMARK    9  A    between atoms: C_9  and  C_10
REMARK   10  A    between atoms: C_10  and  N_11
REMARK   11  A    between atoms: C_14  and  C_15
REMARK   12  A    between atoms: C_14  and  C_16
REMARK   13  A    between atoms: N_19  and  C_20
REMARK   14  A    between atoms: C_20  and  C_21
REMARK                            x       y       z     vdW  Elec       q    Type
REMARK                         _______ _______ _______ _____ _____    ______ ____
ROOT
ATOM      1  N   UNL     1       4.057   7.206  17.140  0.00  0.00    +0.000 N 
ATOM      2  C   UNL     1       4.640   5.998  16.910  0.00  0.00    +0.000 C 
ATOM      3  N   UNL     1       5.804   6.039  16.355  0.00  0.00    +0.000 NA
ATOM      4  C   UNL     1       6.498   4.795  16.121  0.00  0.00    +0.000 C 
ATOM      5  C   UNL     1       7.746   4.785  17.017  0.00  0.00    +0.000 C 
ATOM      6  C   UNL     1       6.921   4.773  14.648  0.00  0.00    +0.000 C 
ATOM      7  N   UNL     1       5.746   3.614  16.410  0.00  0.00    +0.000 N 
ATOM      8  C   UNL     1       4.560   3.736  17.025  0.00  0.00    +0.000 C 
ATOM      9  N   UNL     1       4.017   2.530  17.320  0.00  0.00    +0.000 N 
ATOM     10  N   UNL     1       3.988   4.862  17.265  0.00  0.00    +0.000 NA
ATOM     11  H   UNL     1       4.730   7.946  16.983  0.00  0.00    +0.000 HD
ATOM     12  H   UNL     1       6.186   2.715  16.299  0.00  0.00    +0.000 HD
ATOM     13  H   UNL     1       4.614   1.727  17.435  0.00  0.00    +0.000 HD
ENDROOT
BRANCH   1  14
ATOM     14  C   UNL     1       3.174   7.416  18.268  0.00  0.00    +0.000 C 
BRANCH  14  15
ATOM     15  C   UNL     1       1.860   8.007  17.750  0.00  0.00    +0.000 C 
BRANCH  15  16
ATOM     16  C   UNL     1       1.705   9.483  18.110  0.00  0.00    +0.000 C 
BRANCH  16  17
ATOM     17  C   UNL     1       0.846   9.699  19.361  0.00  0.00    +0.000 C 
BRANCH  17  18
ATOM     18  C   UNL     1      -0.332  10.650  19.124  0.00  0.00    +0.000 C 
BRANCH  18  19
ATOM     19  C   UNL     1      -0.087  12.020  19.764  0.00  0.00    +0.000 C 
BRANCH  19  20
ATOM     20  C   UNL     1       0.233  11.947  21.257  0.00  0.00    +0.000 C 
BRANCH  20  21
ATOM     21  C   UNL     1      -0.938  12.021  22.248  0.00  0.00    +0.000 C 
BRANCH  21  23
ATOM     22  C   UNL     1      -0.162   9.709  23.137  0.00  0.00    +0.000 C 
ATOM     23  C   UNL     1      -1.230  10.789  23.111  0.00  0.00    +0.000 C 
ENDBRANCH  21  23
ENDBRANCH  20  21
ENDBRANCH  19  20
ENDBRANCH  18  19
ENDBRANCH  17  18
ENDBRANCH  16  17
ENDBRANCH  15  16
ENDBRANCH  14  15
ENDBRANCH   1  14
BRANCH   9  24
ATOM     24  C   UNL     1       2.604   2.301  17.514  0.00  0.00    +0.000 C 
BRANCH  24  25
ATOM     25  C   UNL     1       2.261   2.576  18.961  0.00  0.00    +0.000 A 
ATOM     26  C   UNL     1       0.978   2.996  19.336  0.00  0.00    +0.000 A 
ATOM     27  C   UNL     1       0.685   3.264  20.675  0.00  0.00    +0.000 A 
ATOM     28  C   UNL     1       1.670   3.115  21.652  0.00  0.00    +0.000 A 
ATOM     29  C   UNL     1       2.947   2.688  21.293  0.00  0.00    +0.000 A 
ATOM     30  C   UNL     1       3.239   2.416  19.957  0.00  0.00    +0.000 A 
ENDBRANCH  24  25
ENDBRANCH   9  24
TORSDOF 11
ENDMDL
