MODEL 1
REMARK VINA RESULT:      -7.1      0.000      0.000
REMARK  Name = 
REMARK  8 active torsions:
REMARK  status: ('A' for Active; 'I' for Inactive)
REMARK    1  A    between atoms: C_1  and  O_2
REMARK    2  A    between atoms: O_2  and  C_3
REMARK    3  A    between atoms: C_5  and  S_6
REMARK    4  A    between atoms: S_6  and  C_7
REMARK    5  A    between atoms: C_7  and  C_8
REMARK    6  A    between atoms: N_10  and  C_11
REMARK    7  A    between atoms: N_20  and  C_21
REMARK    8  A    between atoms: N_20  and  C_22
REMARK                            x       y       z     vdW  Elec       q    Type
REMARK                         _______ _______ _______ _____ _____    ______ ____
ROOT
ATOM      1  S   UNL     1       7.205   5.719  19.366  0.00  0.00    +0.000 S 
ENDROOT
BRANCH   1   4
ATOM      2  C   UNL     1       3.417   5.707  18.493  0.00  0.00    +0.000 A 
ATOM      3  N   UNL     1       4.658   6.162  18.612  0.00  0.00    +0.000 NA
ATOM      4  C   UNL     1       5.503   5.266  19.090  0.00  0.00    +0.000 A 
ATOM      5  N   UNL     1       5.206   4.011  19.391  0.00  0.00    +0.000 NA
ATOM      6  C   UNL     1       3.947   3.633  19.197  0.00  0.00    +0.000 A 
ATOM      7  N   UNL     1       3.627   2.301  19.374  0.00  0.00    +0.000 N 
ATOM      8  C   UNL     1       2.242   1.878  19.260  0.00  0.00    +0.000 C 
ATOM      9  C   UNL     1       4.502   1.470  20.182  0.00  0.00    +0.000 C 
ATOM     10  N   UNL     1       3.014   4.475  18.773  0.00  0.00    +0.000 NA
BRANCH   2  12
ATOM     11  C   UNL     1       2.331   7.728  18.907  0.00  0.00    +0.000 C 
ATOM     12  O   UNL     1       2.407   6.559  18.103  0.00  0.00    +0.000 OA
ENDBRANCH   2  12
ENDBRANCH   1   4
BRANCH   1  13
ATOM     13  C   UNL     1       7.671   6.384  17.742  0.00  0.00    +0.000 C 
BRANCH  13  14
ATOM     14  C   UNL     1       7.561   5.363  16.624  0.00  0.00    +0.000 C 
ATOM     15  O   UNL     1       7.988   4.218  16.781  0.00  0.00    +0.000 OA
ATOM     16  N   UNL     1       7.078   5.854  15.426  0.00  0.00    +0.000 N 
ATOM     17  H   UNL     1       7.185   6.849  15.255  0.00  0.00    +0.000 HD
BRANCH  16  18
ATOM     18  C   UNL     1       6.828   5.043  14.298  0.00  0.00    +0.000 A 
ATOM     19  C   UNL     1       7.662   5.098  13.175  0.00  0.00    +0.000 A 
ATOM     20  C   UNL     1       7.413   4.279  12.071  0.00  0.00    +0.000 A 
ATOM     21  C   UNL     1       6.318   3.417  12.073  0.00  0.00    +0.000 A 
ATOM     22  C   UNL     1       5.485   3.351  13.191  0.00  0.00    +0.000 A 
ATOM     23  C   UNL     1       5.753   4.143  14.310  0.00  0.00    +0.000 A 
ATOM     24 CL   UNL     1       4.684   4.052  15.665  0.00  0.00    +0.000 Cl
ENDBRANCH  16  18
ENDBRANCH  13  14
ENDBRANCH   1  13
TORSDOF 5
ENDMDL
MODEL 2
REMARK VINA RESULT:      -7.0      2.262      6.975
REMARK  Name = 
REMARK  8 active torsions:
REMARK  status: ('A' for Active; 'I' for Inactive)
REMARK    1  A    between atoms: C_1  and  O_2
REMARK    2  A    between atoms: O_2  and  C_3
REMARK    3  A    between atoms: C_5  and  S_6
REMARK    4  A    between atoms: S_6  and  C_7
REMARK    5  A    between atoms: C_7  and  C_8
REMARK    6  A    between atoms: N_10  and  C_11
REMARK    7  A    between atoms: N_20  and  C_21
REMARK    8  A    between atoms: N_20  and  C_22
REMARK                            x       y       z     vdW  Elec       q    Type
REMARK                         _______ _______ _______ _____ _____    ______ ____
ROOT
ATOM      1  S   UNL     1       3.966   3.203  17.556  0.00  0.00    +0.000 S 
ENDROOT
BRANCH   1   4
ATOM      2  C   UNL     1       6.950   5.640  17.031  0.00  0.00    +0.000 A 
ATOM      3  N   UNL     1       5.996   4.971  17.666  0.00  0.00    +0.000 NA
ATOM      4  C   UNL     1       5.322   4.147  16.884  0.00  0.00    +0.000 A 
ATOM      5  N   UNL     1       5.562   3.936  15.599  0.00  0.00    +0.000 NA
ATOM      6  C   UNL     1       6.566   4.619  15.059  0.00  0.00    +0.000 A 
ATOM      7  N   UNL     1       6.932   4.332  13.759  0.00  0.00    +0.000 N 
ATOM      8  C   UNL     1       7.963   5.127  13.114  0.00  0.00    +0.000 C 
ATOM      9  C   UNL     1       5.974   3.671  12.889  0.00  0.00    +0.000 C 
ATOM     10  N   UNL     1       7.266   5.509  15.750  0.00  0.00    +0.000 NA
BRANCH   2  12
ATOM     11  C   UNL     1       7.341   7.925  17.275  0.00  0.00    +0.000 C 
ATOM     12  O   UNL     1       7.669   6.609  17.697  0.00  0.00    +0.000 OA
ENDBRANCH   2  12
ENDBRANCH   1   4
BRANCH   1  13
ATOM     13  C   UNL     1       3.759   3.978  19.185  0.00  0.00    +0.000 C 
BRANCH  13  14
ATOM     14  C   UNL     1       2.667   5.032  19.212  0.00  0.00    +0.000 C 
ATOM     15  O   UNL     1       1.593   4.830  18.645  0.00  0.00    +0.000 OA
ATOM     16  N   UNL     1       3.026   6.234  19.793  0.00  0.00    +0.000 N 
ATOM     17  H   UNL     1       4.014   6.464  19.813  0.00  0.00    +0.000 HD
BRANCH  16  18
ATOM     18  C   UNL     1       2.124   7.303  19.984  0.00  0.00    +0.000 A 
ATOM     19  C   UNL     1       1.363   7.400  21.154  0.00  0.00    +0.000 A 
ATOM     20  C   UNL     1       0.486   8.471  21.338  0.00  0.00    +0.000 A 
ATOM     21  C   UNL     1       0.347   9.440  20.345  0.00  0.00    +0.000 A 
ATOM     22  C   UNL     1       1.107   9.355  19.177  0.00  0.00    +0.000 A 
ATOM     23  C   UNL     1       2.011   8.304  19.008  0.00  0.00    +0.000 A 
ATOM     24 CL   UNL     1       2.916   8.218  17.538  0.00  0.00    +0.000 Cl
ENDBRANCH  16  18
ENDBRANCH  13  14
ENDBRANCH   1  13
TORSDOF 5
ENDMDL
MODEL 3
REMARK VINA RESULT:      -7.0      2.392      6.586
REMARK  Name = 
REMARK  8 active torsions:
REMARK  status: ('A' for Active; 'I' for Inactive)
REMARK    1  A    between atoms: C_1  and  O_2
REMARK    2  A    between atoms: O_2  and  C_3
REMARK    3  A    between atoms: C_5  and  S_6
REMARK    4  A    between atoms: S_6  and  C_7
REMARK    5  A    between atoms: C_7  and  C_8
REMARK    6  A    between atoms: N_10  and  C_11
REMARK    7  A    between atoms: N_20  and  C_21
REMARK    8  A    between atoms: N_20  and  C_22
REMARK                            x       y       z     vdW  Elec       q    Type
REMARK                         _______ _______ _______ _____ _____    ______ ____
ROOT
ATOM      1  S   UNL     1       4.812   3.234  18.016  0.00  0.00    +0.000 S 
ENDROOT
BRANCH   1   4
ATOM      2  C   UNL     1       7.090   6.111  16.731  0.00  0.00    +0.000 A 
ATOM      3  N   UNL     1       6.398   5.369  17.586  0.00  0.00    +0.000 NA
ATOM      4  C   UNL     1       5.827   4.317  17.027  0.00  0.00    +0.000 A 
ATOM      5  N   UNL     1       5.940   3.964  15.756  0.00  0.00    +0.000 NA
ATOM      6  C   UNL     1       6.690   4.743  14.985  0.00  0.00    +0.000 A 
ATOM      7  N   UNL     1       6.939   4.339  13.687  0.00  0.00    +0.000 N 
ATOM      8  C   UNL     1       7.677   5.217  12.795  0.00  0.00    +0.000 C 
ATOM      9  C   UNL     1       6.047   3.374  13.069  0.00  0.00    +0.000 C 
ATOM     10  N   UNL     1       7.259   5.851  15.441  0.00  0.00    +0.000 NA
BRANCH   2  12
ATOM     11  C   UNL     1       8.109   7.241  18.496  0.00  0.00    +0.000 C 
ATOM     12  O   UNL     1       7.657   7.294  17.150  0.00  0.00    +0.000 OA
ENDBRANCH   2  12
ENDBRANCH   1   4
BRANCH   1  13
ATOM     13  C   UNL     1       3.211   3.366  17.169  0.00  0.00    +0.000 C 
BRANCH  13  14
ATOM     14  C   UNL     1       2.369   4.530  17.659  0.00  0.00    +0.000 C 
ATOM     15  O   UNL     1       1.163   4.573  17.415  0.00  0.00    +0.000 OA
ATOM     16  N   UNL     1       3.077   5.552  18.264  0.00  0.00    +0.000 N 
ATOM     17  H   UNL     1       4.058   5.646  18.021  0.00  0.00    +0.000 HD
BRANCH  16  18
ATOM     18  C   UNL     1       2.463   6.678  18.855  0.00  0.00    +0.000 A 
ATOM     19  C   UNL     1       2.304   7.868  18.137  0.00  0.00    +0.000 A 
ATOM     20  C   UNL     1       1.681   8.970  18.727  0.00  0.00    +0.000 A 
ATOM     21  C   UNL     1       1.234   8.897  20.045  0.00  0.00    +0.000 A 
ATOM     22  C   UNL     1       1.383   7.712  20.767  0.00  0.00    +0.000 A 
ATOM     23  C   UNL     1       1.972   6.598  20.166  0.00  0.00    +0.000 A 
ATOM     24 CL   UNL     1       2.162   5.156  21.100  0.00  0.00    +0.000 Cl
ENDBRANCH  16  18
ENDBRANCH  13  14
ENDBRANCH   1  13
TORSDOF 5
ENDMDL
MODEL 4
REMARK VINA RESULT:      -7.0      1.167      1.167
REMARK  Name = 
REMARK  8 active torsions:
REMARK  status: ('A' for Active; 'I' for Inactive)
REMARK    1  A    between atoms: C_1  and  O_2
REMARK    2  A    between atoms: O_2  and  C_3
REMARK    3  A    between atoms: C_5  and  S_6
REMARK    4  A    between atoms: S_6  and  C_7
REMARK    5  A    between atoms: C_7  and  C_8
REMARK    6  A    between atoms: N_10  and  C_11
REMARK    7  A    between atoms: N_20  and  C_21
REMARK    8  A    between atoms: N_20  and  C_22
REMARK                            x       y       z     vdW  Elec       q    Type
REMARK                         _______ _______ _______ _____ _____    ______ ____
ROOT
ATOM      1  S   UNL     1       6.914   5.344  19.106  0.00  0.00    +0.000 S 
ENDROOT
BRANCH   1   4
ATOM      2  C   UNL     1       3.100   6.074  19.287  0.00  0.00    +0.000 A 
ATOM      3  N   UNL     1       4.406   6.308  19.291  0.00  0.00    +0.000 NA
ATOM      4  C   UNL     1       5.135   5.227  19.081  0.00  0.00    +0.000 A 
ATOM      5  N   UNL     1       4.661   4.015  18.837  0.00  0.00    +0.000 NA
ATOM      6  C   UNL     1       3.339   3.885  18.809  0.00  0.00    +0.000 A 
ATOM      7  N   UNL     1       2.807   2.669  18.430  0.00  0.00    +0.000 N 
ATOM      8  C   UNL     1       1.368   2.471  18.479  0.00  0.00    +0.000 C 
ATOM      9  C   UNL     1       3.635   1.479  18.523  0.00  0.00    +0.000 C 
ATOM     10  N   UNL     1       2.524   4.901  19.061  0.00  0.00    +0.000 NA
BRANCH   2  12
ATOM     11  C   UNL     1       2.112   8.055  18.557  0.00  0.00    +0.000 C 
ATOM     12  O   UNL     1       2.219   7.088  19.592  0.00  0.00    +0.000 OA
ENDBRANCH   2  12
ENDBRANCH   1   4
BRANCH   1  13
ATOM     13  C   UNL     1       7.207   6.649  17.877  0.00  0.00    +0.000 C 
BRANCH  13  14
ATOM     14  C   UNL     1       6.714   6.285  16.489  0.00  0.00    +0.000 C 
ATOM     15  O   UNL     1       5.682   6.787  16.043  0.00  0.00    +0.000 OA
ATOM     16  N   UNL     1       7.428   5.286  15.855  0.00  0.00    +0.000 N 
ATOM     17  H   UNL     1       7.945   4.639  16.443  0.00  0.00    +0.000 HD
BRANCH  16  18
ATOM     18  C   UNL     1       7.173   4.869  14.531  0.00  0.00    +0.000 A 
ATOM     19  C   UNL     1       7.895   5.402  13.458  0.00  0.00    +0.000 A 
ATOM     20  C   UNL     1       7.644   4.970  12.154  0.00  0.00    +0.000 A 
ATOM     21  C   UNL     1       6.653   4.020  11.911  0.00  0.00    +0.000 A 
ATOM     22  C   UNL     1       5.931   3.478  12.976  0.00  0.00    +0.000 A 
ATOM     23  C   UNL     1       6.207   3.882  14.284  0.00  0.00    +0.000 A 
ATOM     24 CL   UNL     1       5.275   3.207  15.574  0.00  0.00    +0.000 Cl
ENDBRANCH  16  18
ENDBRANCH  13  14
ENDBRANCH   1  13
TORSDOF 5
ENDMDL
MODEL 5
REMARK VINA RESULT:      -6.8      1.356      1.686
REMARK  Name = 
REMARK  8 active torsions:
REMARK  status: ('A' for Active; 'I' for Inactive)
REMARK    1  A    between atoms: C_1  and  O_2
REMARK    2  A    between atoms: O_2  and  C_3
REMARK    3  A    between atoms: C_5  and  S_6
REMARK    4  A    between atoms: S_6  and  C_7
REMARK    5  A    between atoms: C_7  and  C_8
REMARK    6  A    between atoms: N_10  and  C_11
REMARK    7  A    between atoms: N_20  and  C_21
REMARK    8  A    between atoms: N_20  and  C_22
REMARK                            x       y       z     vdW  Elec       q    Type
REMARK                         _______ _______ _______ _____ _____    ______ ____
ROOT
ATOM      1  S   UNL     1       6.770   5.487  19.112  0.00  0.00    +0.000 S 
ENDROOT
BRANCH   1   4
ATOM      2  C   UNL     1       2.925   6.045  19.269  0.00  0.00    +0.000 A 
ATOM      3  N   UNL     1       4.219   6.339  19.272  0.00  0.00    +0.000 NA
ATOM      4  C   UNL     1       4.998   5.288  19.085  0.00  0.00    +0.000 A 
ATOM      5  N   UNL     1       4.581   4.051  18.864  0.00  0.00    +0.000 NA
ATOM      6  C   UNL     1       3.266   3.860  18.834  0.00  0.00    +0.000 A 
ATOM      7  N   UNL     1       2.791   2.613  18.478  0.00  0.00    +0.000 N 
ATOM      8  C   UNL     1       1.363   2.351  18.527  0.00  0.00    +0.000 C 
ATOM      9  C   UNL     1       3.673   1.465  18.597  0.00  0.00    +0.000 C 
ATOM     10  N   UNL     1       2.405   4.842  19.065  0.00  0.00    +0.000 NA
BRANCH   2  12
ATOM     11  C   UNL     1       2.161   8.185  18.750  0.00  0.00    +0.000 C 
ATOM     12  O   UNL     1       1.998   7.023  19.552  0.00  0.00    +0.000 OA
ENDBRANCH   2  12
ENDBRANCH   1   4
BRANCH   1  13
ATOM     13  C   UNL     1       7.070   6.271  17.502  0.00  0.00    +0.000 C 
BRANCH  13  14
ATOM     14  C   UNL     1       7.152   5.276  16.358  0.00  0.00    +0.000 C 
ATOM     15  O   UNL     1       7.808   4.242  16.479  0.00  0.00    +0.000 OA
ATOM     16  N   UNL     1       6.556   5.686  15.180  0.00  0.00    +0.000 N 
ATOM     17  H   UNL     1       6.453   6.685  15.034  0.00  0.00    +0.000 HD
BRANCH  16  18
ATOM     18  C   UNL     1       6.459   4.868  14.034  0.00  0.00    +0.000 A 
ATOM     19  C   UNL     1       5.370   4.006  13.857  0.00  0.00    +0.000 A 
ATOM     20  C   UNL     1       5.277   3.213  12.712  0.00  0.00    +0.000 A 
ATOM     21  C   UNL     1       6.281   3.258  11.747  0.00  0.00    +0.000 A 
ATOM     22  C   UNL     1       7.368   4.118  11.911  0.00  0.00    +0.000 A 
ATOM     23  C   UNL     1       7.444   4.939  13.039  0.00  0.00    +0.000 A 
ATOM     24 CL   UNL     1       8.817   5.974  13.220  0.00  0.00    +0.000 Cl
ENDBRANCH  16  18
ENDBRANCH  13  14
ENDBRANCH   1  13
TORSDOF 5
ENDMDL
MODEL 6
REMARK VINA RESULT:      -6.8      2.385      6.584
REMARK  Name = 
REMARK  8 active torsions:
REMARK  status: ('A' for Active; 'I' for Inactive)
REMARK    1  A    between atoms: C_1  and  O_2
REMARK    2  A    between atoms: O_2  and  C_3
REMARK    3  A    between atoms: C_5  and  S_6
REMARK    4  A    between atoms: S_6  and  C_7
REMARK    5  A    between atoms: C_7  and  C_8
REMARK    6  A    between atoms: N_10  and  C_11
REMARK    7  A    between atoms: N_20  and  C_21
REMARK    8  A    between atoms: N_20  and  C_22
REMARK                            x       y       z     vdW  Elec       q    Type
REMARK                         _______ _______ _______ _____ _____    ______ ____
ROOT
ATOM      1  S   UNL     1       3.341   2.358  19.376  0.00  0.00    +0.000 S 
ENDROOT
BRANCH   1   4
ATOM      2  C   UNL     1       6.363   4.787  19.084  0.00  0.00    +0.000 A 
ATOM      3  N   UNL     1       5.440   4.022  19.655  0.00  0.00    +0.000 NA
ATOM      4  C   UNL     1       4.671   3.390  18.787  0.00  0.00    +0.000 A 
ATOM      5  N   UNL     1       4.793   3.440  17.470  0.00  0.00    +0.000 NA
ATOM      6  C   UNL     1       5.774   4.197  16.990  0.00  0.00    +0.000 A 
ATOM      7  N   UNL     1       6.017   4.172  15.631  0.00  0.00    +0.000 N 
ATOM      8  C   UNL     1       7.021   5.060  15.068  0.00  0.00    +0.000 C 
ATOM      9  C   UNL     1       4.965   3.722  14.737  0.00  0.00    +0.000 C 
ATOM     10  N   UNL     1       6.564   4.912  17.779  0.00  0.00    +0.000 NA
BRANCH   2  12
ATOM     11  C   UNL     1       8.113   6.326  19.097  0.00  0.00    +0.000 C 
ATOM     12  O   UNL     1       7.173   5.584  19.862  0.00  0.00    +0.000 OA
ENDBRANCH   2  12
ENDBRANCH   1   4
BRANCH   1  13
ATOM     13  C   UNL     1       2.691   3.354  20.749  0.00  0.00    +0.000 C 
BRANCH  13  14
ATOM     14  C   UNL     1       1.947   4.594  20.288  0.00  0.00    +0.000 C 
ATOM     15  O   UNL     1       0.838   4.495  19.762  0.00  0.00    +0.000 OA
ATOM     16  N   UNL     1       2.656   5.776  20.391  0.00  0.00    +0.000 N 
ATOM     17  H   UNL     1       3.669   5.712  20.396  0.00  0.00    +0.000 HD
BRANCH  16  18
ATOM     18  C   UNL     1       2.105   7.040  20.090  0.00  0.00    +0.000 A 
ATOM     19  C   UNL     1       1.336   7.732  21.033  0.00  0.00    +0.000 A 
ATOM     20  C   UNL     1       0.809   8.989  20.729  0.00  0.00    +0.000 A 
ATOM     21  C   UNL     1       1.028   9.553  19.473  0.00  0.00    +0.000 A 
ATOM     22  C   UNL     1       1.798   8.873  18.528  0.00  0.00    +0.000 A 
ATOM     23  C   UNL     1       2.356   7.632  18.844  0.00  0.00    +0.000 A 
ATOM     24 CL   UNL     1       3.283   6.810  17.639  0.00  0.00    +0.000 Cl
ENDBRANCH  16  18
ENDBRANCH  13  14
ENDBRANCH   1  13
TORSDOF 5
ENDMDL
MODEL 7
REMARK VINA RESULT:      -6.8      1.292      2.715
REMARK  Name = 
REMARK  8 active torsions:
REMARK  status: ('A' for Active; 'I' for Inactive)
REMARK    1  A    between atoms: C_1  and  O_2
REMARK    2  A    between atoms: O_2  and  C_3
REMARK    3  A    between atoms: C_5  and  S_6
REMARK    4  A    between atoms: S_6  and  C_7
REMARK    5  A    between atoms: C_7  and  C_8
REMARK    6  A    between atoms: N_10  and  C_11
REMARK    7  A    between atoms: N_20  and  C_21
REMARK    8  A    between atoms: N_20  and  C_22
REMARK                            x       y       z     vdW  Elec       q    Type
REMARK                         _______ _______ _______ _____ _____    ______ ____
ROOT
ATOM      1  S   UNL     1       7.456   5.653  19.439  0.00  0.00    +0.000 S 
ENDROOT
BRANCH   1   4
ATOM      2  C   UNL     1       4.309   3.372  19.336  0.00  0.00    +0.000 A 
ATOM      3  N   UNL     1       5.568   3.735  19.547  0.00  0.00    +0.000 NA
ATOM      4  C   UNL     1       5.804   5.003  19.266  0.00  0.00    +0.000 A 
ATOM      5  N   UNL     1       4.902   5.883  18.858  0.00  0.00    +0.000 NA
ATOM      6  C   UNL     1       3.657   5.439  18.718  0.00  0.00    +0.000 A 
ATOM      7  N   UNL     1       2.664   6.351  18.422  0.00  0.00    +0.000 N 
ATOM      8  C   UNL     1       1.312   5.881  18.171  0.00  0.00    +0.000 C 
ATOM      9  C   UNL     1       3.035   7.626  17.831  0.00  0.00    +0.000 C 
ATOM     10  N   UNL     1       3.333   4.169  18.924  0.00  0.00    +0.000 NA
BRANCH   2  12
ATOM     11  C   UNL     1       3.414   1.487  18.298  0.00  0.00    +0.000 C 
ATOM     12  O   UNL     1       3.938   2.054  19.490  0.00  0.00    +0.000 OA
ENDBRANCH   2  12
ENDBRANCH   1   4
BRANCH   1  13
ATOM     13  C   UNL     1       7.733   6.379  17.798  0.00  0.00    +0.000 C 
BRANCH  13  14
ATOM     14  C   UNL     1       7.614   5.369  16.670  0.00  0.00    +0.000 C 
ATOM     15  O   UNL     1       8.046   4.225  16.811  0.00  0.00    +0.000 OA
ATOM     16  N   UNL     1       7.117   5.873  15.483  0.00  0.00    +0.000 N 
ATOM     17  H   UNL     1       7.219   6.870  15.321  0.00  0.00    +0.000 HD
BRANCH  16  18
ATOM     18  C   UNL     1       6.857   5.073  14.349  0.00  0.00    +0.000 A 
ATOM     19  C   UNL     1       7.678   5.144  13.217  0.00  0.00    +0.000 A 
ATOM     20  C   UNL     1       7.420   4.336  12.107  0.00  0.00    +0.000 A 
ATOM     21  C   UNL     1       6.328   3.470  12.112  0.00  0.00    +0.000 A 
ATOM     22  C   UNL     1       5.507   3.388  13.238  0.00  0.00    +0.000 A 
ATOM     23  C   UNL     1       5.786   4.169  14.362  0.00  0.00    +0.000 A 
ATOM     24 CL   UNL     1       4.732   4.058  15.729  0.00  0.00    +0.000 Cl
ENDBRANCH  16  18
ENDBRANCH  13  14
ENDBRANCH   1  13
TORSDOF 5
ENDMDL
MODEL 8
REMARK VINA RESULT:      -6.6      2.687      7.384
REMARK  Name = 
REMARK  8 active torsions:
REMARK  status: ('A' for Active; 'I' for Inactive)
REMARK    1  A    between atoms: C_1  and  O_2
REMARK    2  A    between atoms: O_2  and  C_3
REMARK    3  A    between atoms: C_5  and  S_6
REMARK    4  A    between atoms: S_6  and  C_7
REMARK    5  A    between atoms: C_7  and  C_8
REMARK    6  A    between atoms: N_10  and  C_11
REMARK    7  A    between atoms: N_20  and  C_21
REMARK    8  A    between atoms: N_20  and  C_22
REMARK                            x       y       z     vdW  Elec       q    Type
REMARK                         _______ _______ _______ _____ _____    ______ ____
ROOT
ATOM      1  S   UNL     1       3.356   4.450  17.685  0.00  0.00    +0.000 S 
ENDROOT
BRANCH   1   4
ATOM      2  C   UNL     1       6.647   6.382  16.942  0.00  0.00    +0.000 A 
ATOM      3  N   UNL     1       5.584   5.963  17.616  0.00  0.00    +0.000 NA
ATOM      4  C   UNL     1       4.854   5.084  16.954  0.00  0.00    +0.000 A 
ATOM      5  N   UNL     1       5.135   4.597  15.754  0.00  0.00    +0.000 NA
ATOM      6  C   UNL     1       6.245   5.042  15.175  0.00  0.00    +0.000 A 
ATOM      7  N   UNL     1       6.641   4.465  13.985  0.00  0.00    +0.000 N 
ATOM      8  C   UNL     1       7.798   4.995  13.283  0.00  0.00    +0.000 C 
ATOM      9  C   UNL     1       5.656   3.757  13.185  0.00  0.00    +0.000 C 
ATOM     10  N   UNL     1       7.013   5.966  15.737  0.00  0.00    +0.000 NA
BRANCH   2  12
ATOM     11  C   UNL     1       8.128   6.969  18.643  0.00  0.00    +0.000 C 
ATOM     12  O   UNL     1       7.446   7.375  17.465  0.00  0.00    +0.000 OA
ENDBRANCH   2  12
ENDBRANCH   1   4
BRANCH   1  13
ATOM     13  C   UNL     1       3.563   4.948  19.420  0.00  0.00    +0.000 C 
BRANCH  13  14
ATOM     14  C   UNL     1       2.421   5.805  19.936  0.00  0.00    +0.000 C 
ATOM     15  O   UNL     1       1.421   5.280  20.426  0.00  0.00    +0.000 OA
ATOM     16  N   UNL     1       2.550   7.160  19.696  0.00  0.00    +0.000 N 
ATOM     17  H   UNL     1       3.142   7.441  18.921  0.00  0.00    +0.000 HD
BRANCH  16  18
ATOM     18  C   UNL     1       1.634   8.123  20.171  0.00  0.00    +0.000 A 
ATOM     19  C   UNL     1       1.144   8.063  21.481  0.00  0.00    +0.000 A 
ATOM     20  C   UNL     1       0.249   9.030  21.944  0.00  0.00    +0.000 A 
ATOM     21  C   UNL     1      -0.179  10.050  21.096  0.00  0.00    +0.000 A 
ATOM     22  C   UNL     1       0.309  10.121  19.790  0.00  0.00    +0.000 A 
ATOM     23  C   UNL     1       1.232   9.175  19.337  0.00  0.00    +0.000 A 
ATOM     24 CL   UNL     1       1.794   9.282  17.706  0.00  0.00    +0.000 Cl
ENDBRANCH  16  18
ENDBRANCH  13  14
ENDBRANCH   1  13
TORSDOF 5
ENDMDL
MODEL 9
REMARK VINA RESULT:      -6.6      1.969      3.166
REMARK  Name = 
REMARK  8 active torsions:
REMARK  status: ('A' for Active; 'I' for Inactive)
REMARK    1  A    between atoms: C_1  and  O_2
REMARK    2  A    between atoms: O_2  and  C_3
REMARK    3  A    between atoms: C_5  and  S_6
REMARK    4  A    between atoms: S_6  and  C_7
REMARK    5  A    between atoms: C_7  and  C_8
REMARK    6  A    between atoms: N_10  and  C_11
REMARK    7  A    between atoms: N_20  and  C_21
REMARK    8  A    between atoms: N_20  and  C_22
REMARK                            x       y       z     vdW  Elec       q    Type
REMARK                         _______ _______ _______ _____ _____    ______ ____
ROOT
ATOM      1  S   UNL     1       7.247   5.869  18.731  0.00  0.00    +0.000 S 
ENDROOT
BRANCH   1   4
ATOM      2  C   UNL     1       4.541   3.147  19.356  0.00  0.00    +0.000 A 
ATOM      3  N   UNL     1       5.735   3.671  19.108  0.00  0.00    +0.000 NA
ATOM      4  C   UNL     1       5.738   4.992  19.101  0.00  0.00    +0.000 A 
ATOM      5  N   UNL     1       4.695   5.766  19.357  0.00  0.00    +0.000 NA
ATOM      6  C   UNL     1       3.551   5.151  19.639  0.00  0.00    +0.000 A 
ATOM      7  N   UNL     1       2.475   5.919  20.039  0.00  0.00    +0.000 N 
ATOM      8  C   UNL     1       1.187   5.283  20.263  0.00  0.00    +0.000 C 
ATOM      9  C   UNL     1       2.458   7.333  19.707  0.00  0.00    +0.000 C 
ATOM     10  N   UNL     1       3.435   3.830  19.617  0.00  0.00    +0.000 NA
BRANCH   2  12
ATOM     11  C   UNL     1       3.156   1.412  18.647  0.00  0.00    +0.000 C 
ATOM     12  O   UNL     1       4.364   1.782  19.297  0.00  0.00    +0.000 OA
ENDBRANCH   2  12
ENDBRANCH   1   4
BRANCH   1  13
ATOM     13  C   UNL     1       6.699   6.991  17.413  0.00  0.00    +0.000 C 
BRANCH  13  14
ATOM     14  C   UNL     1       6.149   6.265  16.199  0.00  0.00    +0.000 C 
ATOM     15  O   UNL     1       4.944   6.299  15.946  0.00  0.00    +0.000 OA
ATOM     16  N   UNL     1       7.066   5.492  15.513  0.00  0.00    +0.000 N 
ATOM     17  H   UNL     1       7.878   5.167  16.028  0.00  0.00    +0.000 HD
BRANCH  16  18
ATOM     18  C   UNL     1       6.764   4.809  14.315  0.00  0.00    +0.000 A 
ATOM     19  C   UNL     1       5.641   3.979  14.225  0.00  0.00    +0.000 A 
ATOM     20  C   UNL     1       5.343   3.320  13.030  0.00  0.00    +0.000 A 
ATOM     21  C   UNL     1       6.178   3.470  11.923  0.00  0.00    +0.000 A 
ATOM     22  C   UNL     1       7.297   4.300  12.001  0.00  0.00    +0.000 A 
ATOM     23  C   UNL     1       7.575   4.987  13.185  0.00  0.00    +0.000 A 
ATOM     24 CL   UNL     1       8.984   5.987  13.251  0.00  0.00    +0.000 Cl
ENDBRANCH  16  18
ENDBRANCH  13  14
ENDBRANCH   1  13
TORSDOF 5
ENDMDL
