MODEL 1
REMARK VINA RESULT:      -8.4      0.000      0.000
REMARK  Name = 
REMARK  6 active torsions:
REMARK  status: ('A' for Active; 'I' for Inactive)
REMARK    1  A    between atoms: C_1  and  O_2
REMARK    2  A    between atoms: O_2  and  C_3
REMARK    3  A    between atoms: C_6  and  C_7
REMARK    4  A    between atoms: N_12  and  N_13
REMARK    5  A    between atoms: C_14  and  C_16
REMARK    6  A    between atoms: C_18  and  C_19
REMARK                            x       y       z     vdW  Elec       q    Type
REMARK                         _______ _______ _______ _____ _____    ______ ____
ROOT
ATOM      1  N   UNL     1       2.520   5.205  18.987  0.00  0.00    +0.000 N 
ATOM      2  C   UNL     1       2.231   5.681  20.261  0.00  0.00    +0.000 C 
ATOM      3  O   UNL     1       2.341   5.027  21.291  0.00  0.00    +0.000 OA
ATOM      4  H   UNL     1       2.302   5.772  18.178  0.00  0.00    +0.000 HD
ENDROOT
BRANCH   1  10
ATOM      5  C   UNL     1       4.033   3.321  18.651  0.00  0.00    +0.000 C 
ATOM      6  S   UNL     1       3.846   1.558  18.229  0.00  0.00    +0.000 S 
ATOM      7  C   UNL     1       2.112   1.507  18.738  0.00  0.00    +0.000 C 
ATOM      8  C   UNL     1       1.625   2.939  18.806  0.00  0.00    +0.000 C 
ATOM      9  O   UNL     1       0.440   3.237  18.908  0.00  0.00    +0.000 OA
ATOM     10  N   UNL     1       2.684   3.834  18.729  0.00  0.00    +0.000 N 
BRANCH   5  14
ATOM     11  C   UNL     1       6.862   5.043  15.833  0.00  0.00    +0.000 A 
ATOM     12  C   UNL     1       5.649   4.527  15.379  0.00  0.00    +0.000 A 
ATOM     13  C   UNL     1       4.695   4.032  16.277  0.00  0.00    +0.000 A 
ATOM     14  C   UNL     1       4.951   4.020  17.658  0.00  0.00    +0.000 A 
ATOM     15  C   UNL     1       6.162   4.577  18.106  0.00  0.00    +0.000 A 
ATOM     16  C   UNL     1       7.110   5.084  17.203  0.00  0.00    +0.000 A 
BRANCH  11  18
ATOM     17  C   UNL     1       7.446   4.971  13.528  0.00  0.00    +0.000 C 
ATOM     18  O   UNL     1       7.734   5.416  14.848  0.00  0.00    +0.000 OA
ENDBRANCH  11  18
ENDBRANCH   5  14
ENDBRANCH   1  10
BRANCH   2  19
ATOM     19  C   UNL     1       1.783   7.056  20.262  0.00  0.00    +0.000 A 
ATOM     20  C   UNL     1       1.116   7.813  21.204  0.00  0.00    +0.000 A 
ATOM     21  C   UNL     1       0.976   9.108  20.654  0.00  0.00    +0.000 A 
ATOM     22  N   UNL     1       1.521   9.155  19.432  0.00  0.00    +0.000 NA
ATOM     23  N   UNL     1       1.964   7.904  19.204  0.00  0.00    +0.000 N 
ATOM     24  H   UNL     1       2.426   7.699  18.319  0.00  0.00    +0.000 HD
BRANCH  21  25
ATOM     25  C   UNL     1       0.347  10.265  21.286  0.00  0.00    +0.000 A 
ATOM     26  C   UNL     1       0.592  11.560  20.811  0.00  0.00    +0.000 A 
ATOM     27  C   UNL     1       0.011  12.668  21.437  0.00  0.00    +0.000 A 
ATOM     28  C   UNL     1      -0.825  12.486  22.537  0.00  0.00    +0.000 A 
ATOM     29 CL   UNL     1      -1.549  13.845  23.301  0.00  0.00    +0.000 Cl
ATOM     30  C   UNL     1      -1.077  11.204  23.022  0.00  0.00    +0.000 A 
ATOM     31  C   UNL     1      -0.495  10.098  22.398  0.00  0.00    +0.000 A 
ENDBRANCH  21  25
ENDBRANCH   2  19
TORSDOF 5
ENDMDL
MODEL 2
REMARK VINA RESULT:      -8.3      5.583      8.005
REMARK  Name = 
REMARK  6 active torsions:
REMARK  status: ('A' for Active; 'I' for Inactive)
REMARK    1  A    between atoms: C_1  and  O_2
REMARK    2  A    between atoms: O_2  and  C_3
REMARK    3  A    between atoms: C_6  and  C_7
REMARK    4  A    between atoms: N_12  and  N_13
REMARK    5  A    between atoms: C_14  and  C_16
REMARK    6  A    between atoms: C_18  and  C_19
REMARK                            x       y       z     vdW  Elec       q    Type
REMARK                         _______ _______ _______ _____ _____    ______ ____
ROOT
ATOM      1  N   UNL     1       5.936   6.961  18.184  0.00  0.00    +0.000 N 
ATOM      2  C   UNL     1       7.056   7.167  17.387  0.00  0.00    +0.000 C 
ATOM      3  O   UNL     1       7.335   6.507  16.394  0.00  0.00    +0.000 OA
ATOM      4  H   UNL     1       5.832   7.479  19.047  0.00  0.00    +0.000 HD
ENDROOT
BRANCH   1  10
ATOM      5  C   UNL     1       3.850   5.882  17.523  0.00  0.00    +0.000 C 
ATOM      6  S   UNL     1       3.152   4.204  17.656  0.00  0.00    +0.000 S 
ATOM      7  C   UNL     1       4.768   3.432  17.901  0.00  0.00    +0.000 C 
ATOM      8  C   UNL     1       5.731   4.529  18.299  0.00  0.00    +0.000 C 
ATOM      9  O   UNL     1       6.850   4.305  18.746  0.00  0.00    +0.000 OA
ATOM     10  N   UNL     1       5.173   5.785  18.098  0.00  0.00    +0.000 N 
BRANCH   5  14
ATOM     11  C   UNL     1       1.475   8.922  19.529  0.00  0.00    +0.000 A 
ATOM     12  C   UNL     1       1.839   9.088  18.193  0.00  0.00    +0.000 A 
ATOM     13  C   UNL     1       2.543   8.089  17.509  0.00  0.00    +0.000 A 
ATOM     14  C   UNL     1       2.923   6.906  18.164  0.00  0.00    +0.000 A 
ATOM     15  C   UNL     1       2.518   6.735  19.500  0.00  0.00    +0.000 A 
ATOM     16  C   UNL     1       1.801   7.734  20.178  0.00  0.00    +0.000 A 
BRANCH  11  18
ATOM     17  C   UNL     1      -0.438  10.332  19.628  0.00  0.00    +0.000 C 
ATOM     18  O   UNL     1       0.864  10.005  20.099  0.00  0.00    +0.000 OA
ENDBRANCH  11  18
ENDBRANCH   5  14
ENDBRANCH   1  10
BRANCH   2  19
ATOM     19  C   UNL     1       7.879   8.265  17.842  0.00  0.00    +0.000 A 
ATOM     20  C   UNL     1       8.122   9.520  17.321  0.00  0.00    +0.000 A 
ATOM     21  C   UNL     1       8.995  10.170  18.225  0.00  0.00    +0.000 A 
ATOM     22  N   UNL     1       9.285   9.361  19.251  0.00  0.00    +0.000 NA
ATOM     23  N   UNL     1       8.636   8.214  18.981  0.00  0.00    +0.000 N 
ATOM     24  H   UNL     1       8.709   7.438  19.639  0.00  0.00    +0.000 HD
BRANCH  21  25
ATOM     25  C   UNL     1       9.525  11.525  18.109  0.00  0.00    +0.000 A 
ATOM     26  C   UNL     1      10.907  11.755  18.110  0.00  0.00    +0.000 A 
ATOM     27  C   UNL     1      11.411  13.057  18.030  0.00  0.00    +0.000 A 
ATOM     28  C   UNL     1      10.535  14.137  17.940  0.00  0.00    +0.000 A 
ATOM     29 CL   UNL     1      11.152  15.738  17.830  0.00  0.00    +0.000 Cl
ATOM     30  C   UNL     1       9.159  13.925  17.940  0.00  0.00    +0.000 A 
ATOM     31  C   UNL     1       8.655  12.625  18.023  0.00  0.00    +0.000 A 
ENDBRANCH  21  25
ENDBRANCH   2  19
TORSDOF 5
ENDMDL
MODEL 3
REMARK VINA RESULT:      -8.3      5.383      9.481
REMARK  Name = 
REMARK  6 active torsions:
REMARK  status: ('A' for Active; 'I' for Inactive)
REMARK    1  A    between atoms: C_1  and  O_2
REMARK    2  A    between atoms: O_2  and  C_3
REMARK    3  A    between atoms: C_6  and  C_7
REMARK    4  A    between atoms: N_12  and  N_13
REMARK    5  A    between atoms: C_14  and  C_16
REMARK    6  A    between atoms: C_18  and  C_19
REMARK                            x       y       z     vdW  Elec       q    Type
REMARK                         _______ _______ _______ _____ _____    ______ ____
ROOT
ATOM      1  N   UNL     1       0.735  10.190  19.231  0.00  0.00    +0.000 N 
ATOM      2  C   UNL     1       0.957   9.206  20.187  0.00  0.00    +0.000 C 
ATOM      3  O   UNL     1       0.509   9.230  21.327  0.00  0.00    +0.000 OA
ATOM      4  H   UNL     1       1.226  10.150  18.347  0.00  0.00    +0.000 HD
ENDROOT
BRANCH   1  10
ATOM      5  C   UNL     1      -1.210  11.572  19.738  0.00  0.00    +0.000 C 
ATOM      6  S   UNL     1      -1.499  13.337  20.088  0.00  0.00    +0.000 S 
ATOM      7  C   UNL     1       0.224  13.642  20.542  0.00  0.00    +0.000 C 
ATOM      8  C   UNL     1       1.039  12.489  19.998  0.00  0.00    +0.000 C 
ATOM      9  O   UNL     1       2.264  12.504  19.947  0.00  0.00    +0.000 OA
ATOM     10  N   UNL     1       0.221  11.452  19.572  0.00  0.00    +0.000 N 
BRANCH   5  14
ATOM     11  C   UNL     1      -3.535  10.542  16.210  0.00  0.00    +0.000 A 
ATOM     12  C   UNL     1      -2.318   9.907  16.456  0.00  0.00    +0.000 A 
ATOM     13  C   UNL     1      -1.589  10.173  17.621  0.00  0.00    +0.000 A 
ATOM     14  C   UNL     1      -2.055  11.110  18.559  0.00  0.00    +0.000 A 
ATOM     15  C   UNL     1      -3.301  11.716  18.317  0.00  0.00    +0.000 A 
ATOM     16  C   UNL     1      -4.035  11.436  17.153  0.00  0.00    +0.000 A 
BRANCH  11  18
ATOM     17  C   UNL     1      -3.216  10.047  13.905  0.00  0.00    +0.000 C 
ATOM     18  O   UNL     1      -4.102  10.254  15.000  0.00  0.00    +0.000 OA
ENDBRANCH  11  18
ENDBRANCH   5  14
ENDBRANCH   1  10
BRANCH   2  19
ATOM     19  C   UNL     1       1.779   8.120  19.701  0.00  0.00    +0.000 A 
ATOM     20  C   UNL     1       2.348   7.868  18.469  0.00  0.00    +0.000 A 
ATOM     21  C   UNL     1       3.072   6.661  18.599  0.00  0.00    +0.000 A 
ATOM     22  N   UNL     1       2.956   6.183  19.844  0.00  0.00    +0.000 NA
ATOM     23  N   UNL     1       2.146   7.054  20.474  0.00  0.00    +0.000 N 
ATOM     24  H   UNL     1       1.915   6.891  21.454  0.00  0.00    +0.000 HD
BRANCH  21  25
ATOM     25  C   UNL     1       3.856   5.993  17.563  0.00  0.00    +0.000 A 
ATOM     26  C   UNL     1       3.835   4.598  17.438  0.00  0.00    +0.000 A 
ATOM     27  C   UNL     1       4.611   3.960  16.465  0.00  0.00    +0.000 A 
ATOM     28  C   UNL     1       5.406   4.715  15.606  0.00  0.00    +0.000 A 
ATOM     29 CL   UNL     1       6.352   3.935  14.401  0.00  0.00    +0.000 Cl
ATOM     30  C   UNL     1       5.440   6.103  15.718  0.00  0.00    +0.000 A 
ATOM     31  C   UNL     1       4.667   6.740  16.692  0.00  0.00    +0.000 A 
ENDBRANCH  21  25
ENDBRANCH   2  19
TORSDOF 5
ENDMDL
MODEL 4
REMARK VINA RESULT:      -8.2      5.260      9.340
REMARK  Name = 
REMARK  6 active torsions:
REMARK  status: ('A' for Active; 'I' for Inactive)
REMARK    1  A    between atoms: C_1  and  O_2
REMARK    2  A    between atoms: O_2  and  C_3
REMARK    3  A    between atoms: C_6  and  C_7
REMARK    4  A    between atoms: N_12  and  N_13
REMARK    5  A    between atoms: C_14  and  C_16
REMARK    6  A    between atoms: C_18  and  C_19
REMARK                            x       y       z     vdW  Elec       q    Type
REMARK                         _______ _______ _______ _____ _____    ______ ____
ROOT
ATOM      1  N   UNL     1       0.592  10.077  19.792  0.00  0.00    +0.000 N 
ATOM      2  C   UNL     1       0.776   9.009  20.662  0.00  0.00    +0.000 C 
ATOM      3  O   UNL     1       0.295   8.936  21.786  0.00  0.00    +0.000 OA
ATOM      4  H   UNL     1       1.108  10.111  18.922  0.00  0.00    +0.000 HD
ENDROOT
BRANCH   1  10
ATOM      5  C   UNL     1      -1.354  11.500  20.170  0.00  0.00    +0.000 C 
ATOM      6  S   UNL     1      -1.626  13.213  20.731  0.00  0.00    +0.000 S 
ATOM      7  C   UNL     1       0.002  13.333  21.508  0.00  0.00    +0.000 C 
ATOM      8  C   UNL     1       0.851  12.218  20.939  0.00  0.00    +0.000 C 
ATOM      9  O   UNL     1       2.066  12.157  21.096  0.00  0.00    +0.000 OA
ATOM     10  N   UNL     1       0.078  11.309  20.230  0.00  0.00    +0.000 N 
BRANCH   5  14
ATOM     11  C   UNL     1      -3.297  10.532  16.402  0.00  0.00    +0.000 A 
ATOM     12  C   UNL     1      -3.879  11.453  17.273  0.00  0.00    +0.000 A 
ATOM     13  C   UNL     1      -3.234  11.831  18.457  0.00  0.00    +0.000 A 
ATOM     14  C   UNL     1      -1.997  11.268  18.810  0.00  0.00    +0.000 A 
ATOM     15  C   UNL     1      -1.404  10.368  17.906  0.00  0.00    +0.000 A 
ATOM     16  C   UNL     1      -2.047  10.001  16.714  0.00  0.00    +0.000 A 
BRANCH  11  18
ATOM     17  C   UNL     1      -3.399  10.035  14.079  0.00  0.00    +0.000 C 
ATOM     18  O   UNL     1      -4.067  10.190  15.326  0.00  0.00    +0.000 OA
ENDBRANCH  11  18
ENDBRANCH   5  14
ENDBRANCH   1  10
BRANCH   2  19
ATOM     19  C   UNL     1       1.602   7.962  20.104  0.00  0.00    +0.000 A 
ATOM     20  C   UNL     1       2.221   7.823  18.878  0.00  0.00    +0.000 A 
ATOM     21  C   UNL     1       2.922   6.596  18.917  0.00  0.00    +0.000 A 
ATOM     22  N   UNL     1       2.746   5.999  20.102  0.00  0.00    +0.000 NA
ATOM     23  N   UNL     1       1.922   6.818  20.781  0.00  0.00    +0.000 N 
ATOM     24  H   UNL     1       1.646   6.563  21.730  0.00  0.00    +0.000 HD
BRANCH  21  25
ATOM     25  C   UNL     1       3.741   6.020  17.853  0.00  0.00    +0.000 A 
ATOM     26  C   UNL     1       4.505   6.841  17.016  0.00  0.00    +0.000 A 
ATOM     27  C   UNL     1       5.265   6.289  15.979  0.00  0.00    +0.000 A 
ATOM     28  C   UNL     1       5.269   4.910  15.780  0.00  0.00    +0.000 A 
ATOM     29 CL   UNL     1       6.211   4.227  14.514  0.00  0.00    +0.000 Cl
ATOM     30  C   UNL     1       4.513   4.080  16.604  0.00  0.00    +0.000 A 
ATOM     31  C   UNL     1       3.752   4.632  17.637  0.00  0.00    +0.000 A 
ENDBRANCH  21  25
ENDBRANCH   2  19
TORSDOF 5
ENDMDL
MODEL 5
REMARK VINA RESULT:      -8.2      1.627      1.981
REMARK  Name = 
REMARK  6 active torsions:
REMARK  status: ('A' for Active; 'I' for Inactive)
REMARK    1  A    between atoms: C_1  and  O_2
REMARK    2  A    between atoms: O_2  and  C_3
REMARK    3  A    between atoms: C_6  and  C_7
REMARK    4  A    between atoms: N_12  and  N_13
REMARK    5  A    between atoms: C_14  and  C_16
REMARK    6  A    between atoms: C_18  and  C_19
REMARK                            x       y       z     vdW  Elec       q    Type
REMARK                         _______ _______ _______ _____ _____    ______ ____
ROOT
ATOM      1  N   UNL     1       2.751   5.571  17.908  0.00  0.00    +0.000 N 
ATOM      2  C   UNL     1       2.599   6.362  19.041  0.00  0.00    +0.000 C 
ATOM      3  O   UNL     1       2.774   5.975  20.190  0.00  0.00    +0.000 OA
ATOM      4  H   UNL     1       2.486   5.935  17.003  0.00  0.00    +0.000 HD
ENDROOT
BRANCH   1  10
ATOM      5  C   UNL     1       4.134   3.585  18.221  0.00  0.00    +0.000 C 
ATOM      6  S   UNL     1       3.856   1.785  18.180  0.00  0.00    +0.000 S 
ATOM      7  C   UNL     1       2.073   1.943  18.435  0.00  0.00    +0.000 C 
ATOM      8  C   UNL     1       1.703   3.374  18.112  0.00  0.00    +0.000 C 
ATOM      9  O   UNL     1       0.543   3.749  17.975  0.00  0.00    +0.000 OA
ATOM     10  N   UNL     1       2.833   4.171  17.989  0.00  0.00    +0.000 N 
BRANCH   5  14
ATOM     11  C   UNL     1       7.032   4.964  15.286  0.00  0.00    +0.000 A 
ATOM     12  C   UNL     1       7.171   5.319  16.627  0.00  0.00    +0.000 A 
ATOM     13  C   UNL     1       6.290   4.828  17.598  0.00  0.00    +0.000 A 
ATOM     14  C   UNL     1       5.225   3.986  17.238  0.00  0.00    +0.000 A 
ATOM     15  C   UNL     1       5.118   3.605  15.888  0.00  0.00    +0.000 A 
ATOM     16  C   UNL     1       6.011   4.090  14.920  0.00  0.00    +0.000 A 
BRANCH  11  18
ATOM     17  C   UNL     1       7.828   5.215  13.059  0.00  0.00    +0.000 C 
ATOM     18  O   UNL     1       7.907   5.576  14.433  0.00  0.00    +0.000 OA
ENDBRANCH  11  18
ENDBRANCH   5  14
ENDBRANCH   1  10
BRANCH   2  19
ATOM     19  C   UNL     1       2.213   7.721  18.733  0.00  0.00    +0.000 A 
ATOM     20  C   UNL     1       1.483   8.659  19.436  0.00  0.00    +0.000 A 
ATOM     21  C   UNL     1       1.457   9.828  18.639  0.00  0.00    +0.000 A 
ATOM     22  N   UNL     1       2.130   9.628  17.500  0.00  0.00    +0.000 NA
ATOM     23  N   UNL     1       2.541   8.347  17.562  0.00  0.00    +0.000 N 
ATOM     24  H   UNL     1       3.086   7.967  16.789  0.00  0.00    +0.000 HD
BRANCH  21  25
ATOM     25  C   UNL     1       0.813  11.097  18.967  0.00  0.00    +0.000 A 
ATOM     26  C   UNL     1       1.444  12.314  18.679  0.00  0.00    +0.000 A 
ATOM     27  C   UNL     1       0.839  13.527  19.021  0.00  0.00    +0.000 A 
ATOM     28  C   UNL     1      -0.406  13.530  19.648  0.00  0.00    +0.000 A 
ATOM     29 CL   UNL     1      -1.158  15.020  20.060  0.00  0.00    +0.000 Cl
ATOM     30  C   UNL     1      -1.046  12.329  19.943  0.00  0.00    +0.000 A 
ATOM     31  C   UNL     1      -0.439  11.117  19.603  0.00  0.00    +0.000 A 
ENDBRANCH  21  25
ENDBRANCH   2  19
TORSDOF 5
ENDMDL
MODEL 6
REMARK VINA RESULT:      -8.1      1.216      1.942
REMARK  Name = 
REMARK  6 active torsions:
REMARK  status: ('A' for Active; 'I' for Inactive)
REMARK    1  A    between atoms: C_1  and  O_2
REMARK    2  A    between atoms: O_2  and  C_3
REMARK    3  A    between atoms: C_6  and  C_7
REMARK    4  A    between atoms: N_12  and  N_13
REMARK    5  A    between atoms: C_14  and  C_16
REMARK    6  A    between atoms: C_18  and  C_19
REMARK                            x       y       z     vdW  Elec       q    Type
REMARK                         _______ _______ _______ _____ _____    ______ ____
ROOT
ATOM      1  N   UNL     1       2.519   5.797  18.842  0.00  0.00    +0.000 N 
ATOM      2  C   UNL     1       2.123   6.117  20.135  0.00  0.00    +0.000 C 
ATOM      3  O   UNL     1       2.208   5.363  21.097  0.00  0.00    +0.000 OA
ATOM      4  H   UNL     1       2.317   6.435  18.083  0.00  0.00    +0.000 HD
ENDROOT
BRANCH   1  10
ATOM      5  C   UNL     1       4.089   3.931  18.755  0.00  0.00    +0.000 C 
ATOM      6  S   UNL     1       4.082   2.255  18.042  0.00  0.00    +0.000 S 
ATOM      7  C   UNL     1       2.279   2.189  17.933  0.00  0.00    +0.000 C 
ATOM      8  C   UNL     1       1.774   3.611  18.045  0.00  0.00    +0.000 C 
ATOM      9  O   UNL     1       0.617   3.931  17.791  0.00  0.00    +0.000 OA
ATOM     10  N   UNL     1       2.782   4.472  18.456  0.00  0.00    +0.000 N 
BRANCH   5  14
ATOM     11  C   UNL     1       7.260   6.496  17.248  0.00  0.00    +0.000 A 
ATOM     12  C   UNL     1       7.218   6.157  18.600  0.00  0.00    +0.000 A 
ATOM     13  C   UNL     1       6.247   5.277  19.092  0.00  0.00    +0.000 A 
ATOM     14  C   UNL     1       5.273   4.735  18.236  0.00  0.00    +0.000 A 
ATOM     15  C   UNL     1       5.349   5.055  16.869  0.00  0.00    +0.000 A 
ATOM     16  C   UNL     1       6.332   5.929  16.378  0.00  0.00    +0.000 A 
BRANCH  11  18
ATOM     17  C   UNL     1       8.183   8.654  17.636  0.00  0.00    +0.000 C 
ATOM     18  O   UNL     1       8.205   7.427  16.915  0.00  0.00    +0.000 OA
ENDBRANCH  11  18
ENDBRANCH   5  14
ENDBRANCH   1  10
BRANCH   2  19
ATOM     19  C   UNL     1       1.593   7.458  20.248  0.00  0.00    +0.000 A 
ATOM     20  C   UNL     1       0.939   8.113  21.273  0.00  0.00    +0.000 A 
ATOM     21  C   UNL     1       0.687   9.427  20.814  0.00  0.00    +0.000 A 
ATOM     22  N   UNL     1       1.152   9.581  19.569  0.00  0.00    +0.000 NA
ATOM     23  N   UNL     1       1.656   8.377  19.238  0.00  0.00    +0.000 N 
ATOM     24  H   UNL     1       2.077   8.255  18.317  0.00  0.00    +0.000 HD
BRANCH  21  25
ATOM     25  C   UNL     1       0.027  10.501  21.552  0.00  0.00    +0.000 A 
ATOM     26  C   UNL     1      -0.812  10.213  22.635  0.00  0.00    +0.000 A 
ATOM     27  C   UNL     1      -1.466  11.243  23.320  0.00  0.00    +0.000 A 
ATOM     28  C   UNL     1      -1.277  12.567  22.930  0.00  0.00    +0.000 A 
ATOM     29 CL   UNL     1      -2.071  13.835  23.777  0.00  0.00    +0.000 Cl
ATOM     30  C   UNL     1      -0.447  12.869  21.853  0.00  0.00    +0.000 A 
ATOM     31  C   UNL     1       0.204  11.841  21.167  0.00  0.00    +0.000 A 
ENDBRANCH  21  25
ENDBRANCH   2  19
TORSDOF 5
ENDMDL
MODEL 7
REMARK VINA RESULT:      -8.1      1.820      4.268
REMARK  Name = 
REMARK  6 active torsions:
REMARK  status: ('A' for Active; 'I' for Inactive)
REMARK    1  A    between atoms: C_1  and  O_2
REMARK    2  A    between atoms: O_2  and  C_3
REMARK    3  A    between atoms: C_6  and  C_7
REMARK    4  A    between atoms: N_12  and  N_13
REMARK    5  A    between atoms: C_14  and  C_16
REMARK    6  A    between atoms: C_18  and  C_19
REMARK                            x       y       z     vdW  Elec       q    Type
REMARK                         _______ _______ _______ _____ _____    ______ ____
ROOT
ATOM      1  N   UNL     1       4.185   6.726  17.272  0.00  0.00    +0.000 N 
ATOM      2  C   UNL     1       3.770   6.689  18.598  0.00  0.00    +0.000 C 
ATOM      3  O   UNL     1       4.251   5.962  19.458  0.00  0.00    +0.000 OA
ATOM      4  H   UNL     1       3.667   7.276  16.599  0.00  0.00    +0.000 HD
ENDROOT
BRANCH   1  10
ATOM      5  C   UNL     1       4.353   4.523  16.237  0.00  0.00    +0.000 C 
ATOM      6  S   UNL     1       5.713   3.442  15.687  0.00  0.00    +0.000 S 
ATOM      7  C   UNL     1       6.903   4.800  15.599  0.00  0.00    +0.000 C 
ATOM      8  C   UNL     1       6.331   5.947  16.402  0.00  0.00    +0.000 C 
ATOM      9  O   UNL     1       6.988   6.932  16.720  0.00  0.00    +0.000 OA
ATOM     10  N   UNL     1       4.999   5.721  16.723  0.00  0.00    +0.000 N 
BRANCH   5  14
ATOM     11  C   UNL     1       1.921   2.675  19.332  0.00  0.00    +0.000 A 
ATOM     12  C   UNL     1       1.334   3.524  18.396  0.00  0.00    +0.000 A 
ATOM     13  C   UNL     1       2.086   4.073  17.350  0.00  0.00    +0.000 A 
ATOM     14  C   UNL     1       3.459   3.801  17.236  0.00  0.00    +0.000 A 
ATOM     15  C   UNL     1       4.031   2.914  18.165  0.00  0.00    +0.000 A 
ATOM     16  C   UNL     1       3.271   2.356  19.205  0.00  0.00    +0.000 A 
BRANCH  11  18
ATOM     17  C   UNL     1       1.425   2.716  21.658  0.00  0.00    +0.000 C 
ATOM     18  O   UNL     1       1.095   2.275  20.346  0.00  0.00    +0.000 OA
ENDBRANCH  11  18
ENDBRANCH   5  14
ENDBRANCH   1  10
BRANCH   2  19
ATOM     19  C   UNL     1       2.695   7.614  18.879  0.00  0.00    +0.000 A 
ATOM     20  C   UNL     1       2.121   8.036  20.062  0.00  0.00    +0.000 A 
ATOM     21  C   UNL     1       1.125   8.977  19.713  0.00  0.00    +0.000 A 
ATOM     22  N   UNL     1       1.076   9.130  18.384  0.00  0.00    +0.000 NA
ATOM     23  N   UNL     1       1.999   8.275  17.905  0.00  0.00    +0.000 N 
ATOM     24  H   UNL     1       2.144   8.220  16.897  0.00  0.00    +0.000 HD
BRANCH  21  25
ATOM     25  C   UNL     1       0.254   9.712  20.627  0.00  0.00    +0.000 A 
ATOM     26  C   UNL     1      -0.423  10.861  20.200  0.00  0.00    +0.000 A 
ATOM     27  C   UNL     1      -1.233  11.579  21.086  0.00  0.00    +0.000 A 
ATOM     28  C   UNL     1      -1.374  11.147  22.403  0.00  0.00    +0.000 A 
ATOM     29 CL   UNL     1      -2.377  12.022  23.492  0.00  0.00    +0.000 Cl
ATOM     30  C   UNL     1      -0.706  10.007  22.844  0.00  0.00    +0.000 A 
ATOM     31  C   UNL     1       0.104   9.292  21.959  0.00  0.00    +0.000 A 
ENDBRANCH  21  25
ENDBRANCH   2  19
TORSDOF 5
ENDMDL
MODEL 8
REMARK VINA RESULT:      -8.1      5.635      8.202
REMARK  Name = 
REMARK  6 active torsions:
REMARK  status: ('A' for Active; 'I' for Inactive)
REMARK    1  A    between atoms: C_1  and  O_2
REMARK    2  A    between atoms: O_2  and  C_3
REMARK    3  A    between atoms: C_6  and  C_7
REMARK    4  A    between atoms: N_12  and  N_13
REMARK    5  A    between atoms: C_14  and  C_16
REMARK    6  A    between atoms: C_18  and  C_19
REMARK                            x       y       z     vdW  Elec       q    Type
REMARK                         _______ _______ _______ _____ _____    ______ ____
ROOT
ATOM      1  N   UNL     1       5.888   7.109  18.238  0.00  0.00    +0.000 N 
ATOM      2  C   UNL     1       6.970   7.301  17.387  0.00  0.00    +0.000 C 
ATOM      3  O   UNL     1       7.172   6.662  16.361  0.00  0.00    +0.000 OA
ATOM      4  H   UNL     1       5.849   7.604  19.119  0.00  0.00    +0.000 HD
ENDROOT
BRANCH   1  10
ATOM      5  C   UNL     1       3.728   6.124  17.673  0.00  0.00    +0.000 C 
ATOM      6  S   UNL     1       2.981   4.467  17.792  0.00  0.00    +0.000 S 
ATOM      7  C   UNL     1       4.580   3.633  17.908  0.00  0.00    +0.000 C 
ATOM      8  C   UNL     1       5.604   4.683  18.283  0.00  0.00    +0.000 C 
ATOM      9  O   UNL     1       6.740   4.405  18.651  0.00  0.00    +0.000 OA
ATOM     10  N   UNL     1       5.080   5.962  18.160  0.00  0.00    +0.000 N 
BRANCH   5  14
ATOM     11  C   UNL     1       1.032   8.946  19.591  0.00  0.00    +0.000 A 
ATOM     12  C   UNL     1       1.505   7.840  20.296  0.00  0.00    +0.000 A 
ATOM     13  C   UNL     1       2.428   6.959  19.721  0.00  0.00    +0.000 A 
ATOM     14  C   UNL     1       2.879   7.154  18.405  0.00  0.00    +0.000 A 
ATOM     15  C   UNL     1       2.423   8.293  17.717  0.00  0.00    +0.000 A 
ATOM     16  C   UNL     1       1.507   9.181  18.303  0.00  0.00    +0.000 A 
BRANCH  11  18
ATOM     17  C   UNL     1      -0.579  10.693  19.485  0.00  0.00    +0.000 C 
ATOM     18  O   UNL     1       0.075   9.677  20.237  0.00  0.00    +0.000 OA
ENDBRANCH  11  18
ENDBRANCH   5  14
ENDBRANCH   1  10
BRANCH   2  19
ATOM     19  C   UNL     1       7.855   8.356  17.828  0.00  0.00    +0.000 A 
ATOM     20  C   UNL     1       8.136   9.606  17.314  0.00  0.00    +0.000 A 
ATOM     21  C   UNL     1       9.065  10.205  18.196  0.00  0.00    +0.000 A 
ATOM     22  N   UNL     1       9.353   9.371  19.202  0.00  0.00    +0.000 NA
ATOM     23  N   UNL     1       8.645   8.256  18.940  0.00  0.00    +0.000 N 
ATOM     24  H   UNL     1       8.707   7.470  19.586  0.00  0.00    +0.000 HD
BRANCH  21  25
ATOM     25  C   UNL     1       9.651  11.538  18.079  0.00  0.00    +0.000 A 
ATOM     26  C   UNL     1       8.847  12.681  18.170  0.00  0.00    +0.000 A 
ATOM     27  C   UNL     1       9.407  13.956  18.027  0.00  0.00    +0.000 A 
ATOM     28  C   UNL     1      10.775  14.093  17.802  0.00  0.00    +0.000 A 
ATOM     29 CL   UNL     1      11.467  15.658  17.638  0.00  0.00    +0.000 Cl
ATOM     30  C   UNL     1      11.587  12.965  17.708  0.00  0.00    +0.000 A 
ATOM     31  C   UNL     1      11.028  11.692  17.847  0.00  0.00    +0.000 A 
ENDBRANCH  21  25
ENDBRANCH   2  19
TORSDOF 5
ENDMDL
MODEL 9
REMARK VINA RESULT:      -8.0      1.935      2.423
REMARK  Name = 
REMARK  6 active torsions:
REMARK  status: ('A' for Active; 'I' for Inactive)
REMARK    1  A    between atoms: C_1  and  O_2
REMARK    2  A    between atoms: O_2  and  C_3
REMARK    3  A    between atoms: C_6  and  C_7
REMARK    4  A    between atoms: N_12  and  N_13
REMARK    5  A    between atoms: C_14  and  C_16
REMARK    6  A    between atoms: C_18  and  C_19
REMARK                            x       y       z     vdW  Elec       q    Type
REMARK                         _______ _______ _______ _____ _____    ______ ____
ROOT
ATOM      1  N   UNL     1       2.879   5.774  18.750  0.00  0.00    +0.000 N 
ATOM      2  C   UNL     1       2.320   6.653  19.669  0.00  0.00    +0.000 C 
ATOM      3  O   UNL     1       2.096   6.384  20.843  0.00  0.00    +0.000 OA
ATOM      4  H   UNL     1       2.934   6.035  17.774  0.00  0.00    +0.000 HD
ENDROOT
BRANCH   1  10
ATOM      5  C   UNL     1       4.289   3.826  19.164  0.00  0.00    +0.000 C 
ATOM      6  S   UNL     1       4.009   2.040  19.392  0.00  0.00    +0.000 S 
ATOM      7  C   UNL     1       2.267   2.256  19.822  0.00  0.00    +0.000 C 
ATOM      8  C   UNL     1       1.861   3.638  19.357  0.00  0.00    +0.000 C 
ATOM      9  O   UNL     1       0.693   4.008  19.303  0.00  0.00    +0.000 OA
ATOM     10  N   UNL     1       2.970   4.395  19.004  0.00  0.00    +0.000 N 
BRANCH   5  14
ATOM     11  C   UNL     1       6.873   4.817  15.810  0.00  0.00    +0.000 A 
ATOM     12  C   UNL     1       7.277   5.105  17.113  0.00  0.00    +0.000 A 
ATOM     13  C   UNL     1       6.492   4.731  18.210  0.00  0.00    +0.000 A 
ATOM     14  C   UNL     1       5.262   4.078  18.021  0.00  0.00    +0.000 A 
ATOM     15  C   UNL     1       4.884   3.761  16.704  0.00  0.00    +0.000 A 
ATOM     16  C   UNL     1       5.681   4.127  15.607  0.00  0.00    +0.000 A 
BRANCH  11  18
ATOM     17  C   UNL     1       7.395   4.927  13.492  0.00  0.00    +0.000 C 
ATOM     18  O   UNL     1       7.691   5.309  14.830  0.00  0.00    +0.000 OA
ENDBRANCH  11  18
ENDBRANCH   5  14
ENDBRANCH   1  10
BRANCH   2  19
ATOM     19  C   UNL     1       2.023   7.950  19.102  0.00  0.00    +0.000 A 
ATOM     20  C   UNL     1       1.463   9.091  19.641  0.00  0.00    +0.000 A 
ATOM     21  C   UNL     1       1.452  10.059  18.610  0.00  0.00    +0.000 A 
ATOM     22  N   UNL     1       1.972   9.548  17.488  0.00  0.00    +0.000 NA
ATOM     23  N   UNL     1       2.272   8.272  17.796  0.00  0.00    +0.000 N 
ATOM     24  H   UNL     1       2.691   7.678  17.082  0.00  0.00    +0.000 HD
BRANCH  21  25
ATOM     25  C   UNL     1       0.965  11.433  18.703  0.00  0.00    +0.000 A 
ATOM     26  C   UNL     1      -0.403  11.698  18.841  0.00  0.00    +0.000 A 
ATOM     27  C   UNL     1      -0.869  13.016  18.900  0.00  0.00    +0.000 A 
ATOM     28  C   UNL     1       0.033  14.076  18.829  0.00  0.00    +0.000 A 
ATOM     29 CL   UNL     1      -0.535  15.696  18.913  0.00  0.00    +0.000 Cl
ATOM     30  C   UNL     1       1.397  13.828  18.691  0.00  0.00    +0.000 A 
ATOM     31  C   UNL     1       1.861  12.512  18.629  0.00  0.00    +0.000 A 
ENDBRANCH  21  25
ENDBRANCH   2  19
TORSDOF 5
ENDMDL
