MODEL 1
REMARK VINA RESULT:      -7.3      0.000      0.000
REMARK  Name = 
REMARK  10 active torsions:
REMARK  status: ('A' for Active; 'I' for Inactive)
REMARK    1  A    between atoms: C_1  and  O_2
REMARK    2  A    between atoms: O_2  and  C_3
REMARK    3  A    between atoms: C_3  and  C_4
REMARK    4  A    between atoms: C_4  and  N_5
REMARK    5  A    between atoms: N_8  and  C_9
REMARK    6  A    between atoms: C_9  and  C_10
REMARK    7  A    between atoms: C_10  and  C_11
REMARK    8  A    between atoms: C_20  and  C_21
REMARK    9  A    between atoms: C_22  and  C_23
REMARK   10  A    between atoms: C_23  and  O_24
REMARK                            x       y       z     vdW  Elec       q    Type
REMARK                         _______ _______ _______ _____ _____    ______ ____
ROOT
ATOM      1  N   UNL     1       2.985   3.979  18.812  0.00  0.00    +0.000 N 
ATOM      2  C   UNL     1       3.792   3.712  17.693  0.00  0.00    +0.000 A 
ATOM      3  O   UNL     1       4.251   2.584  17.514  0.00  0.00    +0.000 OA
ATOM      4  N   UNL     1       4.090   4.770  16.823  0.00  0.00    +0.000 N 
ATOM      5  C   UNL     1       3.841   6.117  17.118  0.00  0.00    +0.000 A 
ATOM      6  O   UNL     1       4.326   7.044  16.465  0.00  0.00    +0.000 OA
ATOM      7  C   UNL     1       3.014   6.365  18.278  0.00  0.00    +0.000 A 
ATOM      8  C   UNL     1       2.485   7.614  18.782  0.00  0.00    +0.000 A 
ATOM      9  C   UNL     1       2.678   8.956  18.143  0.00  0.00    +0.000 C 
ATOM     10  C   UNL     1       1.763   7.410  19.955  0.00  0.00    +0.000 A 
ATOM     11  S   UNL     1       1.778   5.767  20.427  0.00  0.00    +0.000 S 
ATOM     12  C   UNL     1       2.649   5.302  19.057  0.00  0.00    +0.000 A 
ENDROOT
BRANCH   1  13
ATOM     13  C   UNL     1       2.607   2.839  19.670  0.00  0.00    +0.000 C 
BRANCH  13  14
ATOM     14  C   UNL     1       3.538   2.599  20.868  0.00  0.00    +0.000 C 
BRANCH  14  16
ATOM     15  C   UNL     1       1.399   2.467  21.833  0.00  0.00    +0.000 C 
ATOM     16  O   UNL     1       2.797   2.543  22.087  0.00  0.00    +0.000 OA
ENDBRANCH  14  16
ENDBRANCH  13  14
ENDBRANCH   1  13
BRANCH   4  17
ATOM     17  C   UNL     1       5.004   4.569  15.685  0.00  0.00    +0.000 C 
BRANCH  17  18
ATOM     18  C   UNL     1       6.474   4.245  15.980  0.00  0.00    +0.000 C 
BRANCH  18  19
ATOM     19  C   UNL     1       7.081   5.209  16.976  0.00  0.00    +0.000 A 
ATOM     20  C   UNL     1       7.287   6.545  16.604  0.00  0.00    +0.000 A 
ATOM     21  C   UNL     1       7.813   7.465  17.513  0.00  0.00    +0.000 A 
ATOM     22  C   UNL     1       8.144   7.053  18.801  0.00  0.00    +0.000 A 
ATOM     23  C   UNL     1       7.955   5.725  19.180  0.00  0.00    +0.000 A 
ATOM     24  C   UNL     1       7.428   4.803  18.272  0.00  0.00    +0.000 A 
ENDBRANCH  18  19
ENDBRANCH  17  18
ENDBRANCH   4  17
BRANCH  10  25
ATOM     25  C   UNL     1       1.017   8.398  20.795  0.00  0.00    +0.000 C 
BRANCH  25  26
ATOM     26  O   UNL     1       1.683   8.505  22.043  0.00  0.00    +0.000 OA
ATOM     27  H   UNL     1       1.529   7.670  22.514  0.00  0.00    +0.000 HD
ENDBRANCH  25  26
ENDBRANCH  10  25
TORSDOF 8
ENDMDL
MODEL 2
REMARK VINA RESULT:      -7.1      1.923      2.899
REMARK  Name = 
REMARK  10 active torsions:
REMARK  status: ('A' for Active; 'I' for Inactive)
REMARK    1  A    between atoms: C_1  and  O_2
REMARK    2  A    between atoms: O_2  and  C_3
REMARK    3  A    between atoms: C_3  and  C_4
REMARK    4  A    between atoms: C_4  and  N_5
REMARK    5  A    between atoms: N_8  and  C_9
REMARK    6  A    between atoms: C_9  and  C_10
REMARK    7  A    between atoms: C_10  and  C_11
REMARK    8  A    between atoms: C_20  and  C_21
REMARK    9  A    between atoms: C_22  and  C_23
REMARK   10  A    between atoms: C_23  and  O_24
REMARK                            x       y       z     vdW  Elec       q    Type
REMARK                         _______ _______ _______ _____ _____    ______ ____
ROOT
ATOM      1  N   UNL     1       3.097   4.810  19.984  0.00  0.00    +0.000 N 
ATOM      2  C   UNL     1       4.048   4.318  19.073  0.00  0.00    +0.000 A 
ATOM      3  O   UNL     1       4.637   3.261  19.300  0.00  0.00    +0.000 OA
ATOM      4  N   UNL     1       4.334   5.085  17.935  0.00  0.00    +0.000 N 
ATOM      5  C   UNL     1       3.918   6.412  17.763  0.00  0.00    +0.000 A 
ATOM      6  O   UNL     1       4.378   7.147  16.886  0.00  0.00    +0.000 OA
ATOM      7  C   UNL     1       2.944   6.895  18.717  0.00  0.00    +0.000 A 
ATOM      8  C   UNL     1       2.238   8.158  18.752  0.00  0.00    +0.000 A 
ATOM      9  C   UNL     1       2.366   9.250  17.733  0.00  0.00    +0.000 C 
ATOM     10  C   UNL     1       1.413   8.234  19.871  0.00  0.00    +0.000 A 
ATOM     11  S   UNL     1       1.541   6.835  20.844  0.00  0.00    +0.000 S 
ATOM     12  C   UNL     1       2.604   6.087  19.766  0.00  0.00    +0.000 A 
ENDROOT
BRANCH   1  13
ATOM     13  C   UNL     1       2.742   3.952  21.131  0.00  0.00    +0.000 C 
BRANCH  13  14
ATOM     14  C   UNL     1       1.590   2.970  20.868  0.00  0.00    +0.000 C 
BRANCH  14  16
ATOM     15  C   UNL     1       0.876   2.425  18.697  0.00  0.00    +0.000 C 
ATOM     16  O   UNL     1       0.812   3.385  19.745  0.00  0.00    +0.000 OA
ENDBRANCH  14  16
ENDBRANCH  13  14
ENDBRANCH   1  13
BRANCH   4  17
ATOM     17  C   UNL     1       5.386   4.664  16.993  0.00  0.00    +0.000 C 
BRANCH  17  18
ATOM     18  C   UNL     1       4.987   3.790  15.798  0.00  0.00    +0.000 C 
BRANCH  18  19
ATOM     19  C   UNL     1       5.822   4.086  14.572  0.00  0.00    +0.000 A 
ATOM     20  C   UNL     1       6.900   4.978  14.671  0.00  0.00    +0.000 A 
ATOM     21  C   UNL     1       7.709   5.243  13.564  0.00  0.00    +0.000 A 
ATOM     22  C   UNL     1       7.441   4.624  12.347  0.00  0.00    +0.000 A 
ATOM     23  C   UNL     1       6.366   3.745  12.232  0.00  0.00    +0.000 A 
ATOM     24  C   UNL     1       5.555   3.477  13.338  0.00  0.00    +0.000 A 
ENDBRANCH  18  19
ENDBRANCH  17  18
ENDBRANCH   4  17
BRANCH  10  25
ATOM     25  C   UNL     1       0.481   9.326  20.291  0.00  0.00    +0.000 C 
BRANCH  25  26
ATOM     26  O   UNL     1       0.918   9.818  21.549  0.00  0.00    +0.000 OA
ATOM     27  H   UNL     1       1.805  10.190  21.408  0.00  0.00    +0.000 HD
ENDBRANCH  25  26
ENDBRANCH  10  25
TORSDOF 8
ENDMDL
MODEL 3
REMARK VINA RESULT:      -7.1      2.311      6.317
REMARK  Name = 
REMARK  10 active torsions:
REMARK  status: ('A' for Active; 'I' for Inactive)
REMARK    1  A    between atoms: C_1  and  O_2
REMARK    2  A    between atoms: O_2  and  C_3
REMARK    3  A    between atoms: C_3  and  C_4
REMARK    4  A    between atoms: C_4  and  N_5
REMARK    5  A    between atoms: N_8  and  C_9
REMARK    6  A    between atoms: C_9  and  C_10
REMARK    7  A    between atoms: C_10  and  C_11
REMARK    8  A    between atoms: C_20  and  C_21
REMARK    9  A    between atoms: C_22  and  C_23
REMARK   10  A    between atoms: C_23  and  O_24
REMARK                            x       y       z     vdW  Elec       q    Type
REMARK                         _______ _______ _______ _____ _____    ______ ____
ROOT
ATOM      1  N   UNL     1       2.774   4.464  19.212  0.00  0.00    +0.000 N 
ATOM      2  C   UNL     1       2.097   5.565  19.764  0.00  0.00    +0.000 A 
ATOM      3  O   UNL     1       1.236   5.396  20.627  0.00  0.00    +0.000 OA
ATOM      4  N   UNL     1       2.397   6.842  19.270  0.00  0.00    +0.000 N 
ATOM      5  C   UNL     1       3.144   7.074  18.107  0.00  0.00    +0.000 A 
ATOM      6  O   UNL     1       3.191   8.175  17.553  0.00  0.00    +0.000 OA
ATOM      7  C   UNL     1       3.826   5.923  17.558  0.00  0.00    +0.000 A 
ATOM      8  C   UNL     1       4.754   5.845  16.450  0.00  0.00    +0.000 A 
ATOM      9  C   UNL     1       5.235   7.012  15.640  0.00  0.00    +0.000 C 
ATOM     10  C   UNL     1       5.150   4.530  16.226  0.00  0.00    +0.000 A 
ATOM     11  S   UNL     1       4.379   3.448  17.301  0.00  0.00    +0.000 S 
ATOM     12  C   UNL     1       3.596   4.699  18.122  0.00  0.00    +0.000 A 
ENDROOT
BRANCH   1  13
ATOM     13  C   UNL     1       2.512   3.136  19.802  0.00  0.00    +0.000 C 
BRANCH  13  14
ATOM     14  C   UNL     1       3.492   2.720  20.909  0.00  0.00    +0.000 C 
BRANCH  14  16
ATOM     15  C   UNL     1       1.387   2.441  21.913  0.00  0.00    +0.000 C 
ATOM     16  O   UNL     1       2.794   2.327  22.090  0.00  0.00    +0.000 OA
ENDBRANCH  14  16
ENDBRANCH  13  14
ENDBRANCH   1  13
BRANCH   4  17
ATOM     17  C   UNL     1       1.654   8.022  19.745  0.00  0.00    +0.000 C 
BRANCH  17  18
ATOM     18  C   UNL     1       1.513   8.234  21.258  0.00  0.00    +0.000 C 
BRANCH  18  19
ATOM     19  C   UNL     1       0.550   9.353  21.589  0.00  0.00    +0.000 A 
ATOM     20  C   UNL     1      -0.062   9.386  22.850  0.00  0.00    +0.000 A 
ATOM     21  C   UNL     1      -0.927  10.425  23.195  0.00  0.00    +0.000 A 
ATOM     22  C   UNL     1      -1.194  11.438  22.279  0.00  0.00    +0.000 A 
ATOM     23  C   UNL     1      -0.602  11.411  21.017  0.00  0.00    +0.000 A 
ATOM     24  C   UNL     1       0.266  10.373  20.670  0.00  0.00    +0.000 A 
ENDBRANCH  18  19
ENDBRANCH  17  18
ENDBRANCH   4  17
BRANCH  10  25
ATOM     25  C   UNL     1       6.115   3.987  15.220  0.00  0.00    +0.000 C 
BRANCH  25  26
ATOM     26  O   UNL     1       7.413   4.445  15.564  0.00  0.00    +0.000 OA
ATOM     27  H   UNL     1       7.474   5.365  15.258  0.00  0.00    +0.000 HD
ENDBRANCH  25  26
ENDBRANCH  10  25
TORSDOF 8
ENDMDL
MODEL 4
REMARK VINA RESULT:      -7.1      2.042      3.001
REMARK  Name = 
REMARK  10 active torsions:
REMARK  status: ('A' for Active; 'I' for Inactive)
REMARK    1  A    between atoms: C_1  and  O_2
REMARK    2  A    between atoms: O_2  and  C_3
REMARK    3  A    between atoms: C_3  and  C_4
REMARK    4  A    between atoms: C_4  and  N_5
REMARK    5  A    between atoms: N_8  and  C_9
REMARK    6  A    between atoms: C_9  and  C_10
REMARK    7  A    between atoms: C_10  and  C_11
REMARK    8  A    between atoms: C_20  and  C_21
REMARK    9  A    between atoms: C_22  and  C_23
REMARK   10  A    between atoms: C_23  and  O_24
REMARK                            x       y       z     vdW  Elec       q    Type
REMARK                         _______ _______ _______ _____ _____    ______ ____
ROOT
ATOM      1  N   UNL     1       3.012   4.968  19.875  0.00  0.00    +0.000 N 
ATOM      2  C   UNL     1       3.965   4.464  18.973  0.00  0.00    +0.000 A 
ATOM      3  O   UNL     1       4.537   3.398  19.205  0.00  0.00    +0.000 OA
ATOM      4  N   UNL     1       4.273   5.228  17.839  0.00  0.00    +0.000 N 
ATOM      5  C   UNL     1       3.878   6.561  17.665  0.00  0.00    +0.000 A 
ATOM      6  O   UNL     1       4.356   7.290  16.793  0.00  0.00    +0.000 OA
ATOM      7  C   UNL     1       2.901   7.056  18.609  0.00  0.00    +0.000 A 
ATOM      8  C   UNL     1       2.212   8.328  18.640  0.00  0.00    +0.000 A 
ATOM      9  C   UNL     1       2.365   9.420  17.623  0.00  0.00    +0.000 C 
ATOM     10  C   UNL     1       1.377   8.414  19.750  0.00  0.00    +0.000 A 
ATOM     11  S   UNL     1       1.475   7.012  20.723  0.00  0.00    +0.000 S 
ATOM     12  C   UNL     1       2.538   6.251  19.654  0.00  0.00    +0.000 A 
ENDROOT
BRANCH   1  13
ATOM     13  C   UNL     1       2.634   4.113  21.018  0.00  0.00    +0.000 C 
BRANCH  13  14
ATOM     14  C   UNL     1       1.314   3.347  20.839  0.00  0.00    +0.000 C 
BRANCH  14  16
ATOM     15  C   UNL     1       0.865   2.395  18.738  0.00  0.00    +0.000 C 
ATOM     16  O   UNL     1       1.495   2.206  20.000  0.00  0.00    +0.000 OA
ENDBRANCH  14  16
ENDBRANCH  13  14
ENDBRANCH   1  13
BRANCH   4  17
ATOM     17  C   UNL     1       5.329   4.794  16.908  0.00  0.00    +0.000 C 
BRANCH  17  18
ATOM     18  C   UNL     1       4.928   3.933  15.703  0.00  0.00    +0.000 C 
BRANCH  18  19
ATOM     19  C   UNL     1       5.839   4.157  14.515  0.00  0.00    +0.000 A 
ATOM     20  C   UNL     1       5.557   3.516  13.300  0.00  0.00    +0.000 A 
ATOM     21  C   UNL     1       6.360   3.732  12.179  0.00  0.00    +0.000 A 
ATOM     22  C   UNL     1       7.455   4.586  12.265  0.00  0.00    +0.000 A 
ATOM     23  C   UNL     1       7.754   5.219  13.470  0.00  0.00    +0.000 A 
ATOM     24  C   UNL     1       6.951   5.006  14.594  0.00  0.00    +0.000 A 
ENDBRANCH  18  19
ENDBRANCH  17  18
ENDBRANCH   4  17
BRANCH  10  25
ATOM     25  C   UNL     1       0.455   9.519  20.162  0.00  0.00    +0.000 C 
BRANCH  25  26
ATOM     26  O   UNL     1      -0.387   9.823  19.061  0.00  0.00    +0.000 OA
ATOM     27  H   UNL     1      -1.280   9.950  19.421  0.00  0.00    +0.000 HD
ENDBRANCH  25  26
ENDBRANCH  10  25
TORSDOF 8
ENDMDL
MODEL 5
REMARK VINA RESULT:      -7.0      2.662      7.055
REMARK  Name = 
REMARK  10 active torsions:
REMARK  status: ('A' for Active; 'I' for Inactive)
REMARK    1  A    between atoms: C_1  and  O_2
REMARK    2  A    between atoms: O_2  and  C_3
REMARK    3  A    between atoms: C_3  and  C_4
REMARK    4  A    between atoms: C_4  and  N_5
REMARK    5  A    between atoms: N_8  and  C_9
REMARK    6  A    between atoms: C_9  and  C_10
REMARK    7  A    between atoms: C_10  and  C_11
REMARK    8  A    between atoms: C_20  and  C_21
REMARK    9  A    between atoms: C_22  and  C_23
REMARK   10  A    between atoms: C_23  and  O_24
REMARK                            x       y       z     vdW  Elec       q    Type
REMARK                         _______ _______ _______ _____ _____    ______ ____
ROOT
ATOM      1  N   UNL     1       4.106   6.293  17.569  0.00  0.00    +0.000 N 
ATOM      2  C   UNL     1       3.383   7.483  17.760  0.00  0.00    +0.000 A 
ATOM      3  O   UNL     1       3.644   8.483  17.092  0.00  0.00    +0.000 OA
ATOM      4  N   UNL     1       2.397   7.506  18.757  0.00  0.00    +0.000 N 
ATOM      5  C   UNL     1       2.248   6.509  19.731  0.00  0.00    +0.000 A 
ATOM      6  O   UNL     1       1.551   6.659  20.737  0.00  0.00    +0.000 OA
ATOM      7  C   UNL     1       3.008   5.298  19.513  0.00  0.00    +0.000 A 
ATOM      8  C   UNL     1       2.993   4.056  20.256  0.00  0.00    +0.000 A 
ATOM      9  C   UNL     1       2.116   3.763  21.436  0.00  0.00    +0.000 C 
ATOM     10  C   UNL     1       3.912   3.152  19.730  0.00  0.00    +0.000 A 
ATOM     11  S   UNL     1       4.775   3.823  18.416  0.00  0.00    +0.000 S 
ATOM     12  C   UNL     1       3.891   5.262  18.470  0.00  0.00    +0.000 A 
ENDROOT
BRANCH   1  13
ATOM     13  C   UNL     1       5.078   6.256  16.458  0.00  0.00    +0.000 C 
BRANCH  13  14
ATOM     14  C   UNL     1       6.533   6.526  16.868  0.00  0.00    +0.000 C 
BRANCH  14  16
ATOM     15  C   UNL     1       6.982   4.727  15.425  0.00  0.00    +0.000 C 
ATOM     16  O   UNL     1       7.443   5.981  15.913  0.00  0.00    +0.000 OA
ENDBRANCH  14  16
ENDBRANCH  13  14
ENDBRANCH   1  13
BRANCH   4  17
ATOM     17  C   UNL     1       1.671   8.750  19.064  0.00  0.00    +0.000 C 
BRANCH  17  18
ATOM     18  C   UNL     1       0.714   9.315  18.007  0.00  0.00    +0.000 C 
BRANCH  18  19
ATOM     19  C   UNL     1      -0.311  10.251  18.609  0.00  0.00    +0.000 A 
ATOM     20  C   UNL     1      -0.083  10.798  19.880  0.00  0.00    +0.000 A 
ATOM     21  C   UNL     1      -0.994  11.692  20.445  0.00  0.00    +0.000 A 
ATOM     22  C   UNL     1      -2.146  12.040  19.746  0.00  0.00    +0.000 A 
ATOM     23  C   UNL     1      -2.391  11.494  18.487  0.00  0.00    +0.000 A 
ATOM     24  C   UNL     1      -1.480  10.601  17.918  0.00  0.00    +0.000 A 
ENDBRANCH  18  19
ENDBRANCH  17  18
ENDBRANCH   4  17
BRANCH  10  25
ATOM     25  C   UNL     1       4.210   1.747  20.150  0.00  0.00    +0.000 C 
BRANCH  25  26
ATOM     26  O   UNL     1       5.240   1.790  21.126  0.00  0.00    +0.000 OA
ATOM     27  H   UNL     1       5.848   2.498  20.857  0.00  0.00    +0.000 HD
ENDBRANCH  25  26
ENDBRANCH  10  25
TORSDOF 8
ENDMDL
MODEL 6
REMARK VINA RESULT:      -7.0      1.138      1.587
REMARK  Name = 
REMARK  10 active torsions:
REMARK  status: ('A' for Active; 'I' for Inactive)
REMARK    1  A    between atoms: C_1  and  O_2
REMARK    2  A    between atoms: O_2  and  C_3
REMARK    3  A    between atoms: C_3  and  C_4
REMARK    4  A    between atoms: C_4  and  N_5
REMARK    5  A    between atoms: N_8  and  C_9
REMARK    6  A    between atoms: C_9  and  C_10
REMARK    7  A    between atoms: C_10  and  C_11
REMARK    8  A    between atoms: C_20  and  C_21
REMARK    9  A    between atoms: C_22  and  C_23
REMARK   10  A    between atoms: C_23  and  O_24
REMARK                            x       y       z     vdW  Elec       q    Type
REMARK                         _______ _______ _______ _____ _____    ______ ____
ROOT
ATOM      1  N   UNL     1       2.963   4.794  19.713  0.00  0.00    +0.000 N 
ATOM      2  C   UNL     1       3.738   4.308  18.646  0.00  0.00    +0.000 A 
ATOM      3  O   UNL     1       4.295   3.213  18.732  0.00  0.00    +0.000 OA
ATOM      4  N   UNL     1       3.892   5.121  17.515  0.00  0.00    +0.000 N 
ATOM      5  C   UNL     1       3.528   6.474  17.471  0.00  0.00    +0.000 A 
ATOM      6  O   UNL     1       3.891   7.232  16.568  0.00  0.00    +0.000 OA
ATOM      7  C   UNL     1       2.736   6.950  18.583  0.00  0.00    +0.000 A 
ATOM      8  C   UNL     1       2.114   8.240  18.785  0.00  0.00    +0.000 A 
ATOM      9  C   UNL     1       2.147   9.379  17.810  0.00  0.00    +0.000 C 
ATOM     10  C   UNL     1       1.471   8.294  20.019  0.00  0.00    +0.000 A 
ATOM     11  S   UNL     1       1.667   6.840  20.895  0.00  0.00    +0.000 S 
ATOM     12  C   UNL     1       2.513   6.103  19.633  0.00  0.00    +0.000 A 
ENDROOT
BRANCH   1  13
ATOM     13  C   UNL     1       2.738   3.892  20.860  0.00  0.00    +0.000 C 
BRANCH  13  14
ATOM     14  C   UNL     1       1.401   3.136  20.831  0.00  0.00    +0.000 C 
BRANCH  14  16
ATOM     15  C   UNL     1       0.717   2.270  18.756  0.00  0.00    +0.000 C 
ATOM     16  O   UNL     1       1.463   2.021  19.941  0.00  0.00    +0.000 OA
ENDBRANCH  14  16
ENDBRANCH  13  14
ENDBRANCH   1  13
BRANCH   4  17
ATOM     17  C   UNL     1       4.766   4.703  16.405  0.00  0.00    +0.000 C 
BRANCH  17  18
ATOM     18  C   UNL     1       6.230   4.370  16.717  0.00  0.00    +0.000 C 
BRANCH  18  19
ATOM     19  C   UNL     1       6.943   5.520  17.397  0.00  0.00    +0.000 A 
ATOM     20  C   UNL     1       7.504   5.328  18.667  0.00  0.00    +0.000 A 
ATOM     21  C   UNL     1       8.197   6.359  19.303  0.00  0.00    +0.000 A 
ATOM     22  C   UNL     1       8.328   7.594  18.676  0.00  0.00    +0.000 A 
ATOM     23  C   UNL     1       7.764   7.803  17.419  0.00  0.00    +0.000 A 
ATOM     24  C   UNL     1       7.071   6.771  16.780  0.00  0.00    +0.000 A 
ENDBRANCH  18  19
ENDBRANCH  17  18
ENDBRANCH   4  17
BRANCH  10  25
ATOM     25  C   UNL     1       0.674   9.405  20.627  0.00  0.00    +0.000 C 
BRANCH  25  26
ATOM     26  O   UNL     1      -0.164   8.847  21.628  0.00  0.00    +0.000 OA
ATOM     27  H   UNL     1      -0.431   9.581  22.206  0.00  0.00    +0.000 HD
ENDBRANCH  25  26
ENDBRANCH  10  25
TORSDOF 8
ENDMDL
MODEL 7
REMARK VINA RESULT:      -6.9      2.401      6.427
REMARK  Name = 
REMARK  10 active torsions:
REMARK  status: ('A' for Active; 'I' for Inactive)
REMARK    1  A    between atoms: C_1  and  O_2
REMARK    2  A    between atoms: O_2  and  C_3
REMARK    3  A    between atoms: C_3  and  C_4
REMARK    4  A    between atoms: C_4  and  N_5
REMARK    5  A    between atoms: N_8  and  C_9
REMARK    6  A    between atoms: C_9  and  C_10
REMARK    7  A    between atoms: C_10  and  C_11
REMARK    8  A    between atoms: C_20  and  C_21
REMARK    9  A    between atoms: C_22  and  C_23
REMARK   10  A    between atoms: C_23  and  O_24
REMARK                            x       y       z     vdW  Elec       q    Type
REMARK                         _______ _______ _______ _____ _____    ______ ____
ROOT
ATOM      1  N   UNL     1       3.222   4.537  19.846  0.00  0.00    +0.000 N 
ATOM      2  C   UNL     1       2.393   5.574  20.306  0.00  0.00    +0.000 A 
ATOM      3  O   UNL     1       1.627   5.383  21.251  0.00  0.00    +0.000 OA
ATOM      4  N   UNL     1       2.432   6.802  19.632  0.00  0.00    +0.000 N 
ATOM      5  C   UNL     1       3.058   6.993  18.393  0.00  0.00    +0.000 A 
ATOM      6  O   UNL     1       2.876   7.998  17.701  0.00  0.00    +0.000 OA
ATOM      7  C   UNL     1       3.901   5.909  17.940  0.00  0.00    +0.000 A 
ATOM      8  C   UNL     1       4.763   5.835  16.780  0.00  0.00    +0.000 A 
ATOM      9  C   UNL     1       4.981   6.942  15.792  0.00  0.00    +0.000 C 
ATOM     10  C   UNL     1       5.372   4.587  16.692  0.00  0.00    +0.000 A 
ATOM     11  S   UNL     1       4.870   3.550  17.955  0.00  0.00    +0.000 S 
ATOM     12  C   UNL     1       3.925   4.754  18.671  0.00  0.00    +0.000 A 
ENDROOT
BRANCH   1  13
ATOM     13  C   UNL     1       3.236   3.279  20.618  0.00  0.00    +0.000 C 
BRANCH  13  14
ATOM     14  C   UNL     1       1.948   2.448  20.516  0.00  0.00    +0.000 C 
BRANCH  14  16
ATOM     15  C   UNL     1       0.663   2.376  18.550  0.00  0.00    +0.000 C 
ATOM     16  O   UNL     1       1.813   1.870  19.218  0.00  0.00    +0.000 OA
ENDBRANCH  14  16
ENDBRANCH  13  14
ENDBRANCH   1  13
BRANCH   4  17
ATOM     17  C   UNL     1       1.520   7.895  20.012  0.00  0.00    +0.000 C 
BRANCH  17  18
ATOM     18  C   UNL     1       1.545   8.392  21.463  0.00  0.00    +0.000 C 
BRANCH  18  19
ATOM     19  C   UNL     1       0.553   9.511  21.698  0.00  0.00    +0.000 A 
ATOM     20  C   UNL     1      -0.174   9.547  22.896  0.00  0.00    +0.000 A 
ATOM     21  C   UNL     1      -1.070  10.585  23.155  0.00  0.00    +0.000 A 
ATOM     22  C   UNL     1      -1.252  11.593  22.213  0.00  0.00    +0.000 A 
ATOM     23  C   UNL     1      -0.546  11.563  21.012  0.00  0.00    +0.000 A 
ATOM     24  C   UNL     1       0.353  10.525  20.751  0.00  0.00    +0.000 A 
ENDBRANCH  18  19
ENDBRANCH  17  18
ENDBRANCH   4  17
BRANCH  10  25
ATOM     25  C   UNL     1       6.360   4.080  15.688  0.00  0.00    +0.000 C 
BRANCH  25  26
ATOM     26  O   UNL     1       7.662   4.400  16.152  0.00  0.00    +0.000 OA
ATOM     27  H   UNL     1       8.184   4.641  15.369  0.00  0.00    +0.000 HD
ENDBRANCH  25  26
ENDBRANCH  10  25
TORSDOF 8
ENDMDL
MODEL 8
REMARK VINA RESULT:      -6.9      2.848      6.662
REMARK  Name = 
REMARK  10 active torsions:
REMARK  status: ('A' for Active; 'I' for Inactive)
REMARK    1  A    between atoms: C_1  and  O_2
REMARK    2  A    between atoms: O_2  and  C_3
REMARK    3  A    between atoms: C_3  and  C_4
REMARK    4  A    between atoms: C_4  and  N_5
REMARK    5  A    between atoms: N_8  and  C_9
REMARK    6  A    between atoms: C_9  and  C_10
REMARK    7  A    between atoms: C_10  and  C_11
REMARK    8  A    between atoms: C_20  and  C_21
REMARK    9  A    between atoms: C_22  and  C_23
REMARK   10  A    between atoms: C_23  and  O_24
REMARK                            x       y       z     vdW  Elec       q    Type
REMARK                         _______ _______ _______ _____ _____    ______ ____
ROOT
ATOM      1  N   UNL     1       2.609   5.701  19.924  0.00  0.00    +0.000 N 
ATOM      2  C   UNL     1       1.926   6.923  20.051  0.00  0.00    +0.000 A 
ATOM      3  O   UNL     1       1.070   7.068  20.924  0.00  0.00    +0.000 OA
ATOM      4  N   UNL     1       2.214   7.941  19.131  0.00  0.00    +0.000 N 
ATOM      5  C   UNL     1       2.954   7.746  17.957  0.00  0.00    +0.000 A 
ATOM      6  O   UNL     1       2.990   8.577  17.046  0.00  0.00    +0.000 OA
ATOM      7  C   UNL     1       3.642   6.479  17.850  0.00  0.00    +0.000 A 
ATOM      8  C   UNL     1       4.566   6.015  16.837  0.00  0.00    +0.000 A 
ATOM      9  C   UNL     1       5.034   6.818  15.660  0.00  0.00    +0.000 C 
ATOM     10  C   UNL     1       4.970   4.708  17.094  0.00  0.00    +0.000 A 
ATOM     11  S   UNL     1       4.212   4.078  18.490  0.00  0.00    +0.000 S 
ATOM     12  C   UNL     1       3.424   5.535  18.815  0.00  0.00    +0.000 A 
ENDROOT
BRANCH   1  13
ATOM     13  C   UNL     1       2.360   4.670  20.951  0.00  0.00    +0.000 C 
BRANCH  13  14
ATOM     14  C   UNL     1       1.111   3.809  20.709  0.00  0.00    +0.000 C 
BRANCH  14  16
ATOM     15  C   UNL     1       0.895   2.413  18.831  0.00  0.00    +0.000 C 
ATOM     16  O   UNL     1       1.460   2.552  20.130  0.00  0.00    +0.000 OA
ENDBRANCH  14  16
ENDBRANCH  13  14
ENDBRANCH   1  13
BRANCH   4  17
ATOM     17  C   UNL     1       1.465   9.209  19.159  0.00  0.00    +0.000 C 
BRANCH  17  18
ATOM     18  C   UNL     1       0.384   9.440  18.095  0.00  0.00    +0.000 C 
BRANCH  18  19
ATOM     19  C   UNL     1      -0.706  10.369  18.584  0.00  0.00    +0.000 A 
ATOM     20  C   UNL     1      -0.542  11.043  19.802  0.00  0.00    +0.000 A 
ATOM     21  C   UNL     1      -1.515  11.933  20.260  0.00  0.00    +0.000 A 
ATOM     22  C   UNL     1      -2.665  12.150  19.506  0.00  0.00    +0.000 A 
ATOM     23  C   UNL     1      -2.846  11.477  18.299  0.00  0.00    +0.000 A 
ATOM     24  C   UNL     1      -1.872  10.587  17.838  0.00  0.00    +0.000 A 
ENDBRANCH  18  19
ENDBRANCH  17  18
ENDBRANCH   4  17
BRANCH  10  25
ATOM     25  C   UNL     1       5.935   3.847  16.341  0.00  0.00    +0.000 C 
BRANCH  25  26
ATOM     26  O   UNL     1       7.242   4.135  16.813  0.00  0.00    +0.000 OA
ATOM     27  H   UNL     1       7.818   4.166  16.032  0.00  0.00    +0.000 HD
ENDBRANCH  25  26
ENDBRANCH  10  25
TORSDOF 8
ENDMDL
MODEL 9
REMARK VINA RESULT:      -6.9      1.318      1.464
REMARK  Name = 
REMARK  10 active torsions:
REMARK  status: ('A' for Active; 'I' for Inactive)
REMARK    1  A    between atoms: C_1  and  O_2
REMARK    2  A    between atoms: O_2  and  C_3
REMARK    3  A    between atoms: C_3  and  C_4
REMARK    4  A    between atoms: C_4  and  N_5
REMARK    5  A    between atoms: N_8  and  C_9
REMARK    6  A    between atoms: C_9  and  C_10
REMARK    7  A    between atoms: C_10  and  C_11
REMARK    8  A    between atoms: C_20  and  C_21
REMARK    9  A    between atoms: C_22  and  C_23
REMARK   10  A    between atoms: C_23  and  O_24
REMARK                            x       y       z     vdW  Elec       q    Type
REMARK                         _______ _______ _______ _____ _____    ______ ____
ROOT
ATOM      1  N   UNL     1       2.799   4.969  19.920  0.00  0.00    +0.000 N 
ATOM      2  C   UNL     1       3.586   4.428  18.890  0.00  0.00    +0.000 A 
ATOM      3  O   UNL     1       4.130   3.333  19.034  0.00  0.00    +0.000 OA
ATOM      4  N   UNL     1       3.768   5.188  17.726  0.00  0.00    +0.000 N 
ATOM      5  C   UNL     1       3.420   6.541  17.615  0.00  0.00    +0.000 A 
ATOM      6  O   UNL     1       3.806   7.255  16.687  0.00  0.00    +0.000 OA
ATOM      7  C   UNL     1       2.614   7.074  18.692  0.00  0.00    +0.000 A 
ATOM      8  C   UNL     1       2.002   8.378  18.825  0.00  0.00    +0.000 A 
ATOM      9  C   UNL     1       2.064   9.472  17.800  0.00  0.00    +0.000 C 
ATOM     10  C   UNL     1       1.340   8.494  20.043  0.00  0.00    +0.000 A 
ATOM     11  S   UNL     1       1.504   7.078  20.987  0.00  0.00    +0.000 S 
ATOM     12  C   UNL     1       2.364   6.277  19.774  0.00  0.00    +0.000 A 
ENDROOT
BRANCH   1  13
ATOM     13  C   UNL     1       2.544   4.121  21.102  0.00  0.00    +0.000 C 
BRANCH  13  14
ATOM     14  C   UNL     1       1.382   3.129  20.943  0.00  0.00    +0.000 C 
BRANCH  14  16
ATOM     15  C   UNL     1       0.667   2.300  18.865  0.00  0.00    +0.000 C 
ATOM     16  O   UNL     1       0.632   3.405  19.761  0.00  0.00    +0.000 OA
ENDBRANCH  14  16
ENDBRANCH  13  14
ENDBRANCH   1  13
BRANCH   4  17
ATOM     17  C   UNL     1       4.657   4.712  16.652  0.00  0.00    +0.000 C 
BRANCH  17  18
ATOM     18  C   UNL     1       6.088   4.302  17.019  0.00  0.00    +0.000 C 
BRANCH  18  19
ATOM     19  C   UNL     1       6.890   5.462  17.568  0.00  0.00    +0.000 A 
ATOM     20  C   UNL     1       6.989   6.645  16.823  0.00  0.00    +0.000 A 
ATOM     21  C   UNL     1       7.693   7.744  17.320  0.00  0.00    +0.000 A 
ATOM     22  C   UNL     1       8.310   7.664  18.565  0.00  0.00    +0.000 A 
ATOM     23  C   UNL     1       8.230   6.490  19.311  0.00  0.00    +0.000 A 
ATOM     24  C   UNL     1       7.524   5.390  18.816  0.00  0.00    +0.000 A 
ENDBRANCH  18  19
ENDBRANCH  17  18
ENDBRANCH   4  17
BRANCH  10  25
ATOM     25  C   UNL     1       0.544   9.639  20.587  0.00  0.00    +0.000 C 
BRANCH  25  26
ATOM     26  O   UNL     1      -0.061   9.216  21.800  0.00  0.00    +0.000 OA
ATOM     27  H   UNL     1      -0.358  10.020  22.257  0.00  0.00    +0.000 HD
ENDBRANCH  25  26
ENDBRANCH  10  25
TORSDOF 8
ENDMDL
