MODEL 1
REMARK VINA RESULT:      -7.4      0.000      0.000
REMARK  Name = 
REMARK  4 active torsions:
REMARK  status: ('A' for Active; 'I' for Inactive)
REMARK    1  A    between atoms: C_2  and  C_15
REMARK    2  A    between atoms: N_3  and  N_4
REMARK    3  A    between atoms: C_5  and  C_6
REMARK    4  A    between atoms: C_9  and  N_10
REMARK                            x       y       z     vdW  Elec       q    Type
REMARK                         _______ _______ _______ _____ _____    ______ ____
ROOT
ATOM      1  O   UNL     1       0.950   9.725  19.826  0.00  0.00    +0.000 OA
ATOM      2  C   UNL     1       0.463   9.766  18.701  0.00  0.00    +0.000 C 
ATOM      3  N   UNL     1       1.087   9.358  17.531  0.00  0.00    +0.000 N 
ATOM      4  H   UNL     1       0.673   9.541  16.628  0.00  0.00    +0.000 HD
ENDROOT
BRANCH   2   5
ATOM      5  C   UNL     1      -0.907  10.327  18.523  0.00  0.00    +0.000 A 
ATOM      6  C   UNL     1      -1.307  11.392  19.342  0.00  0.00    +0.000 A 
ATOM      7  C   UNL     1      -2.581  11.948  19.200  0.00  0.00    +0.000 A 
ATOM      8  C   UNL     1      -3.457  11.433  18.245  0.00  0.00    +0.000 A 
ATOM      9 CL   UNL     1      -5.027  12.114  18.068  0.00  0.00    +0.000 Cl
ATOM     10  C   UNL     1      -3.076  10.363  17.438  0.00  0.00    +0.000 A 
ATOM     11  C   UNL     1      -1.803   9.803  17.580  0.00  0.00    +0.000 A 
ENDBRANCH   2   5
BRANCH   3  12
ATOM     12  N   UNL     1       2.340   8.832  17.587  0.00  0.00    +0.000 NA
ATOM     13  C   UNL     1       2.412   7.557  17.794  0.00  0.00    +0.000 C 
BRANCH  13  14
ATOM     14  C   UNL     1       3.718   6.873  17.866  0.00  0.00    +0.000 A 
ATOM     15  C   UNL     1       4.686   7.099  16.879  0.00  0.00    +0.000 A 
ATOM     16  C   UNL     1       5.923   6.457  16.950  0.00  0.00    +0.000 A 
ATOM     17  C   UNL     1       6.186   5.586  18.015  0.00  0.00    +0.000 A 
ATOM     18  C   UNL     1       5.217   5.353  19.005  0.00  0.00    +0.000 A 
ATOM     19  C   UNL     1       3.979   5.999  18.928  0.00  0.00    +0.000 A 
BRANCH  17  20
ATOM     20  N   UNL     1       7.489   4.915  18.099  0.00  0.00    +0.000 N 
ATOM     21  O   UNL     1       7.924   4.370  17.074  0.00  0.00    +0.000 OA
ATOM     22  O   UNL     1       8.078   4.936  19.190  0.00  0.00    +0.000 OA
ENDBRANCH  17  20
ENDBRANCH  13  14
ENDBRANCH   3  12
TORSDOF 4
ENDMDL
MODEL 2
REMARK VINA RESULT:      -7.4      0.288      1.291
REMARK  Name = 
REMARK  4 active torsions:
REMARK  status: ('A' for Active; 'I' for Inactive)
REMARK    1  A    between atoms: C_2  and  C_15
REMARK    2  A    between atoms: N_3  and  N_4
REMARK    3  A    between atoms: C_5  and  C_6
REMARK    4  A    between atoms: C_9  and  N_10
REMARK                            x       y       z     vdW  Elec       q    Type
REMARK                         _______ _______ _______ _____ _____    ______ ____
ROOT
ATOM      1  O   UNL     1       0.736   9.631  19.767  0.00  0.00    +0.000 OA
ATOM      2  C   UNL     1       0.385   9.727  18.596  0.00  0.00    +0.000 C 
ATOM      3  N   UNL     1       1.149   9.386  17.490  0.00  0.00    +0.000 N 
ATOM      4  H   UNL     1       0.842   9.613  16.554  0.00  0.00    +0.000 HD
ENDROOT
BRANCH   2   5
ATOM      5  C   UNL     1      -0.962  10.287  18.285  0.00  0.00    +0.000 A 
ATOM      6  C   UNL     1      -1.508  11.242  19.153  0.00  0.00    +0.000 A 
ATOM      7  C   UNL     1      -2.765  11.793  18.890  0.00  0.00    +0.000 A 
ATOM      8  C   UNL     1      -3.479  11.382  17.766  0.00  0.00    +0.000 A 
ATOM      9 CL   UNL     1      -5.027  12.057  17.440  0.00  0.00    +0.000 Cl
ATOM     10  C   UNL     1      -2.952  10.419  16.906  0.00  0.00    +0.000 A 
ATOM     11  C   UNL     1      -1.697   9.864  17.168  0.00  0.00    +0.000 A 
ENDBRANCH   2   5
BRANCH   3  12
ATOM     12  N   UNL     1       2.393   8.867  17.668  0.00  0.00    +0.000 NA
ATOM     13  C   UNL     1       2.494   7.582  17.561  0.00  0.00    +0.000 C 
BRANCH  13  14
ATOM     14  C   UNL     1       3.797   6.907  17.726  0.00  0.00    +0.000 A 
ATOM     15  C   UNL     1       3.999   6.019  18.789  0.00  0.00    +0.000 A 
ATOM     16  C   UNL     1       5.229   5.377  18.942  0.00  0.00    +0.000 A 
ATOM     17  C   UNL     1       6.255   5.629  18.023  0.00  0.00    +0.000 A 
ATOM     18  C   UNL     1       6.058   6.522  16.958  0.00  0.00    +0.000 A 
ATOM     19  C   UNL     1       4.824   7.163  16.810  0.00  0.00    +0.000 A 
BRANCH  17  20
ATOM     20  N   UNL     1       7.548   4.949  18.175  0.00  0.00    +0.000 N 
ATOM     21  O   UNL     1       8.117   5.030  19.273  0.00  0.00    +0.000 OA
ATOM     22  O   UNL     1       7.991   4.331  17.196  0.00  0.00    +0.000 OA
ENDBRANCH  17  20
ENDBRANCH  13  14
ENDBRANCH   3  12
TORSDOF 4
ENDMDL
MODEL 3
REMARK VINA RESULT:      -7.3      0.174      1.266
REMARK  Name = 
REMARK  4 active torsions:
REMARK  status: ('A' for Active; 'I' for Inactive)
REMARK    1  A    between atoms: C_2  and  C_15
REMARK    2  A    between atoms: N_3  and  N_4
REMARK    3  A    between atoms: C_5  and  C_6
REMARK    4  A    between atoms: C_9  and  N_10
REMARK                            x       y       z     vdW  Elec       q    Type
REMARK                         _______ _______ _______ _____ _____    ______ ____
ROOT
ATOM      1  O   UNL     1       0.770   9.702  19.929  0.00  0.00    +0.000 OA
ATOM      2  C   UNL     1       0.371   9.846  18.778  0.00  0.00    +0.000 C 
ATOM      3  N   UNL     1       1.082   9.536  17.628  0.00  0.00    +0.000 N 
ATOM      4  H   UNL     1       0.739   9.802  16.715  0.00  0.00    +0.000 HD
ENDROOT
BRANCH   2   5
ATOM      5  C   UNL     1      -0.979  10.436  18.547  0.00  0.00    +0.000 A 
ATOM      6  C   UNL     1      -1.772   9.910  17.518  0.00  0.00    +0.000 A 
ATOM      7  C   UNL     1      -3.045  10.433  17.275  0.00  0.00    +0.000 A 
ATOM      8  C   UNL     1      -3.521  11.485  18.056  0.00  0.00    +0.000 A 
ATOM      9 CL   UNL     1      -5.087  12.132  17.759  0.00  0.00    +0.000 Cl
ATOM     10  C   UNL     1      -2.733  12.026  19.070  0.00  0.00    +0.000 A 
ATOM     11  C   UNL     1      -1.458  11.508  19.313  0.00  0.00    +0.000 A 
ENDBRANCH   2   5
BRANCH   3  12
ATOM     12  N   UNL     1       2.324   8.994  17.733  0.00  0.00    +0.000 NA
ATOM     13  C   UNL     1       2.387   7.703  17.683  0.00  0.00    +0.000 C 
BRANCH  13  14
ATOM     14  C   UNL     1       3.683   7.002  17.777  0.00  0.00    +0.000 A 
ATOM     15  C   UNL     1       4.666   7.207  16.801  0.00  0.00    +0.000 A 
ATOM     16  C   UNL     1       5.893   6.548  16.894  0.00  0.00    +0.000 A 
ATOM     17  C   UNL     1       6.131   5.683  17.970  0.00  0.00    +0.000 A 
ATOM     18  C   UNL     1       5.147   5.472  18.948  0.00  0.00    +0.000 A 
ATOM     19  C   UNL     1       3.918   6.134  18.850  0.00  0.00    +0.000 A 
BRANCH  17  20
ATOM     20  N   UNL     1       7.424   4.996  18.076  0.00  0.00    +0.000 N 
ATOM     21  O   UNL     1       8.015   5.041  19.164  0.00  0.00    +0.000 OA
ATOM     22  O   UNL     1       7.847   4.408  17.069  0.00  0.00    +0.000 OA
ENDBRANCH  17  20
ENDBRANCH  13  14
ENDBRANCH   3  12
TORSDOF 4
ENDMDL
MODEL 4
REMARK VINA RESULT:      -7.3      0.329      1.523
REMARK  Name = 
REMARK  4 active torsions:
REMARK  status: ('A' for Active; 'I' for Inactive)
REMARK    1  A    between atoms: C_2  and  C_15
REMARK    2  A    between atoms: N_3  and  N_4
REMARK    3  A    between atoms: C_5  and  C_6
REMARK    4  A    between atoms: C_9  and  N_10
REMARK                            x       y       z     vdW  Elec       q    Type
REMARK                         _______ _______ _______ _____ _____    ______ ____
ROOT
ATOM      1  O   UNL     1       0.622   9.646  20.001  0.00  0.00    +0.000 OA
ATOM      2  C   UNL     1       0.314   9.754  18.819  0.00  0.00    +0.000 C 
ATOM      3  N   UNL     1       1.111   9.406  17.738  0.00  0.00    +0.000 N 
ATOM      4  H   UNL     1       0.841   9.642  16.794  0.00  0.00    +0.000 HD
ENDROOT
BRANCH   2   5
ATOM      5  C   UNL     1      -1.013  10.336  18.465  0.00  0.00    +0.000 A 
ATOM      6  C   UNL     1      -1.632   9.920  17.278  0.00  0.00    +0.000 A 
ATOM      7  C   UNL     1      -2.878  10.439  16.917  0.00  0.00    +0.000 A 
ATOM      8  C   UNL     1      -3.499  11.380  17.736  0.00  0.00    +0.000 A 
ATOM      9 CL   UNL     1      -5.032  12.022  17.293  0.00  0.00    +0.000 Cl
ATOM     10  C   UNL     1      -2.884  11.813  18.909  0.00  0.00    +0.000 A 
ATOM     11  C   UNL     1      -1.636  11.298  19.272  0.00  0.00    +0.000 A 
ENDBRANCH   2   5
BRANCH   3  12
ATOM     12  N   UNL     1       2.339   8.867  17.957  0.00  0.00    +0.000 NA
ATOM     13  C   UNL     1       2.496   7.639  17.580  0.00  0.00    +0.000 C 
BRANCH  13  14
ATOM     14  C   UNL     1       3.790   6.950  17.759  0.00  0.00    +0.000 A 
ATOM     15  C   UNL     1       3.988   6.098  18.852  0.00  0.00    +0.000 A 
ATOM     16  C   UNL     1       5.209   5.443  19.018  0.00  0.00    +0.000 A 
ATOM     17  C   UNL     1       6.232   5.646  18.082  0.00  0.00    +0.000 A 
ATOM     18  C   UNL     1       6.039   6.503  16.987  0.00  0.00    +0.000 A 
ATOM     19  C   UNL     1       4.813   7.158  16.827  0.00  0.00    +0.000 A 
BRANCH  17  20
ATOM     20  N   UNL     1       7.515   4.952  18.248  0.00  0.00    +0.000 N 
ATOM     21  O   UNL     1       7.976   4.348  17.269  0.00  0.00    +0.000 OA
ATOM     22  O   UNL     1       8.062   5.013  19.359  0.00  0.00    +0.000 OA
ENDBRANCH  17  20
ENDBRANCH  13  14
ENDBRANCH   3  12
TORSDOF 4
ENDMDL
MODEL 5
REMARK VINA RESULT:      -7.2      7.120      9.128
REMARK  Name = 
REMARK  4 active torsions:
REMARK  status: ('A' for Active; 'I' for Inactive)
REMARK    1  A    between atoms: C_2  and  C_15
REMARK    2  A    between atoms: N_3  and  N_4
REMARK    3  A    between atoms: C_5  and  C_6
REMARK    4  A    between atoms: C_9  and  N_10
REMARK                            x       y       z     vdW  Elec       q    Type
REMARK                         _______ _______ _______ _____ _____    ______ ____
ROOT
ATOM      1  O   UNL     1       9.299  10.765  20.240  0.00  0.00    +0.000 OA
ATOM      2  C   UNL     1       9.474  10.905  19.034  0.00  0.00    +0.000 C 
ATOM      3  N   UNL     1       9.094  10.005  18.049  0.00  0.00    +0.000 N 
ATOM      4  H   UNL     1       9.386  10.128  17.089  0.00  0.00    +0.000 HD
ENDROOT
BRANCH   2   5
ATOM      5  C   UNL     1      10.185  12.120  18.540  0.00  0.00    +0.000 A 
ATOM      6  C   UNL     1       9.544  13.362  18.648  0.00  0.00    +0.000 A 
ATOM      7  C   UNL     1      10.182  14.522  18.201  0.00  0.00    +0.000 A 
ATOM      8  C   UNL     1      11.455  14.439  17.639  0.00  0.00    +0.000 A 
ATOM      9 CL   UNL     1      12.242  15.866  17.087  0.00  0.00    +0.000 Cl
ATOM     10  C   UNL     1      12.093  13.207  17.511  0.00  0.00    +0.000 A 
ATOM     11  C   UNL     1      11.457  12.044  17.954  0.00  0.00    +0.000 A 
ENDBRANCH   2   5
BRANCH   3  12
ATOM     12  N   UNL     1       8.440   8.866  18.398  0.00  0.00    +0.000 NA
ATOM     13  C   UNL     1       7.718   8.320  17.473  0.00  0.00    +0.000 C 
BRANCH  13  14
ATOM     14  C   UNL     1       6.969   7.074  17.733  0.00  0.00    +0.000 A 
ATOM     15  C   UNL     1       7.398   6.190  18.730  0.00  0.00    +0.000 A 
ATOM     16  C   UNL     1       6.687   5.015  18.979  0.00  0.00    +0.000 A 
ATOM     17  C   UNL     1       5.542   4.731  18.224  0.00  0.00    +0.000 A 
ATOM     18  C   UNL     1       5.111   5.612  17.220  0.00  0.00    +0.000 A 
ATOM     19  C   UNL     1       5.828   6.788  16.974  0.00  0.00    +0.000 A 
BRANCH  17  20
ATOM     20  N   UNL     1       4.786   3.500  18.488  0.00  0.00    +0.000 N 
ATOM     21  O   UNL     1       4.058   3.064  17.585  0.00  0.00    +0.000 OA
ATOM     22  O   UNL     1       4.922   2.970  19.600  0.00  0.00    +0.000 OA
ENDBRANCH  17  20
ENDBRANCH  13  14
ENDBRANCH   3  12
TORSDOF 4
ENDMDL
MODEL 6
REMARK VINA RESULT:      -7.1      7.074      9.176
REMARK  Name = 
REMARK  4 active torsions:
REMARK  status: ('A' for Active; 'I' for Inactive)
REMARK    1  A    between atoms: C_2  and  C_15
REMARK    2  A    between atoms: N_3  and  N_4
REMARK    3  A    between atoms: C_5  and  C_6
REMARK    4  A    between atoms: C_9  and  N_10
REMARK                            x       y       z     vdW  Elec       q    Type
REMARK                         _______ _______ _______ _____ _____    ______ ____
ROOT
ATOM      1  O   UNL     1       9.482  10.631  20.234  0.00  0.00    +0.000 OA
ATOM      2  C   UNL     1       9.561  10.841  19.029  0.00  0.00    +0.000 C 
ATOM      3  N   UNL     1       9.116   9.992  18.026  0.00  0.00    +0.000 N 
ATOM      4  H   UNL     1       9.331  10.173  17.055  0.00  0.00    +0.000 HD
ENDROOT
BRANCH   2   5
ATOM      5  C   UNL     1      10.217  12.092  18.551  0.00  0.00    +0.000 A 
ATOM      6  C   UNL     1      11.592  12.067  18.280  0.00  0.00    +0.000 A 
ATOM      7  C   UNL     1      12.239  13.219  17.825  0.00  0.00    +0.000 A 
ATOM      8  C   UNL     1      11.514  14.397  17.650  0.00  0.00    +0.000 A 
ATOM      9 CL   UNL     1      12.308  15.816  17.092  0.00  0.00    +0.000 Cl
ATOM     10  C   UNL     1      10.150  14.437  17.935  0.00  0.00    +0.000 A 
ATOM     11  C   UNL     1       9.500  13.287  18.393  0.00  0.00    +0.000 A 
ENDBRANCH   2   5
BRANCH   3  12
ATOM     12  N   UNL     1       8.504   8.824  18.358  0.00  0.00    +0.000 NA
ATOM     13  C   UNL     1       7.632   8.379  17.513  0.00  0.00    +0.000 C 
BRANCH  13  14
ATOM     14  C   UNL     1       6.910   7.115  17.762  0.00  0.00    +0.000 A 
ATOM     15  C   UNL     1       7.412   6.189  18.684  0.00  0.00    +0.000 A 
ATOM     16  C   UNL     1       6.726   4.997  18.924  0.00  0.00    +0.000 A 
ATOM     17  C   UNL     1       5.534   4.738  18.235  0.00  0.00    +0.000 A 
ATOM     18  C   UNL     1       5.030   5.663  17.307  0.00  0.00    +0.000 A 
ATOM     19  C   UNL     1       5.721   6.855  17.070  0.00  0.00    +0.000 A 
BRANCH  17  20
ATOM     20  N   UNL     1       4.806   3.490  18.491  0.00  0.00    +0.000 N 
ATOM     21  O   UNL     1       4.122   3.020  17.570  0.00  0.00    +0.000 OA
ATOM     22  O   UNL     1       4.919   2.977  19.615  0.00  0.00    +0.000 OA
ENDBRANCH  17  20
ENDBRANCH  13  14
ENDBRANCH   3  12
TORSDOF 4
ENDMDL
MODEL 7
REMARK VINA RESULT:      -6.9      4.441      8.926
REMARK  Name = 
REMARK  4 active torsions:
REMARK  status: ('A' for Active; 'I' for Inactive)
REMARK    1  A    between atoms: C_2  and  C_15
REMARK    2  A    between atoms: N_3  and  N_4
REMARK    3  A    between atoms: C_5  and  C_6
REMARK    4  A    between atoms: C_9  and  N_10
REMARK                            x       y       z     vdW  Elec       q    Type
REMARK                         _______ _______ _______ _____ _____    ______ ____
ROOT
ATOM      1  O   UNL     1       3.952   5.649  19.680  0.00  0.00    +0.000 OA
ATOM      2  C   UNL     1       3.709   6.101  18.567  0.00  0.00    +0.000 C 
ATOM      3  N   UNL     1       2.828   7.136  18.287  0.00  0.00    +0.000 N 
ATOM      4  H   UNL     1       2.583   7.368  17.334  0.00  0.00    +0.000 HD
ENDROOT
BRANCH   2   5
ATOM      5  C   UNL     1       4.370   5.494  17.376  0.00  0.00    +0.000 A 
ATOM      6  C   UNL     1       4.882   6.345  16.387  0.00  0.00    +0.000 A 
ATOM      7  C   UNL     1       5.514   5.813  15.260  0.00  0.00    +0.000 A 
ATOM      8  C   UNL     1       5.625   4.431  15.119  0.00  0.00    +0.000 A 
ATOM      9 CL   UNL     1       6.401   3.772  13.732  0.00  0.00    +0.000 Cl
ATOM     10  C   UNL     1       5.104   3.575  16.088  0.00  0.00    +0.000 A 
ATOM     11  C   UNL     1       4.469   4.105  17.215  0.00  0.00    +0.000 A 
ENDBRANCH   2   5
BRANCH   3  12
ATOM     12  N   UNL     1       2.174   7.755  19.305  0.00  0.00    +0.000 NA
ATOM     13  C   UNL     1       1.693   8.927  19.042  0.00  0.00    +0.000 C 
BRANCH  13  14
ATOM     14  C   UNL     1       0.956   9.692  20.068  0.00  0.00    +0.000 A 
ATOM     15  C   UNL     1       0.764  11.070  19.914  0.00  0.00    +0.000 A 
ATOM     16  C   UNL     1       0.063  11.792  20.881  0.00  0.00    +0.000 A 
ATOM     17  C   UNL     1      -0.445  11.126  22.003  0.00  0.00    +0.000 A 
ATOM     18  C   UNL     1      -0.251   9.745  22.163  0.00  0.00    +0.000 A 
ATOM     19  C   UNL     1       0.453   9.026  21.191  0.00  0.00    +0.000 A 
BRANCH  17  20
ATOM     20  N   UNL     1      -1.191  11.880  23.018  0.00  0.00    +0.000 N 
ATOM     21  O   UNL     1      -2.286  11.430  23.384  0.00  0.00    +0.000 OA
ATOM     22  O   UNL     1      -0.679  12.923  23.451  0.00  0.00    +0.000 OA
ENDBRANCH  17  20
ENDBRANCH  13  14
ENDBRANCH   3  12
TORSDOF 4
ENDMDL
MODEL 8
REMARK VINA RESULT:      -6.9      4.639      9.267
REMARK  Name = 
REMARK  4 active torsions:
REMARK  status: ('A' for Active; 'I' for Inactive)
REMARK    1  A    between atoms: C_2  and  C_15
REMARK    2  A    between atoms: N_3  and  N_4
REMARK    3  A    between atoms: C_5  and  C_6
REMARK    4  A    between atoms: C_9  and  N_10
REMARK                            x       y       z     vdW  Elec       q    Type
REMARK                         _______ _______ _______ _____ _____    ______ ____
ROOT
ATOM      1  O   UNL     1       1.861   5.419  20.725  0.00  0.00    +0.000 OA
ATOM      2  C   UNL     1       2.375   6.107  19.850  0.00  0.00    +0.000 C 
ATOM      3  N   UNL     1       2.213   7.476  19.694  0.00  0.00    +0.000 N 
ATOM      4  H   UNL     1       2.565   7.953  18.875  0.00  0.00    +0.000 HD
ENDROOT
BRANCH   2   5
ATOM      5  C   UNL     1       3.233   5.451  18.821  0.00  0.00    +0.000 A 
ATOM      6  C   UNL     1       4.599   5.764  18.788  0.00  0.00    +0.000 A 
ATOM      7  C   UNL     1       5.435   5.164  17.842  0.00  0.00    +0.000 A 
ATOM      8  C   UNL     1       4.903   4.260  16.925  0.00  0.00    +0.000 A 
ATOM      9 CL   UNL     1       5.929   3.521  15.758  0.00  0.00    +0.000 Cl
ATOM     10  C   UNL     1       3.543   3.955  16.938  0.00  0.00    +0.000 A 
ATOM     11  C   UNL     1       2.704   4.556  17.881  0.00  0.00    +0.000 A 
ENDBRANCH   2   5
BRANCH   3  12
ATOM     12  N   UNL     1       1.449   8.167  20.581  0.00  0.00    +0.000 NA
ATOM     13  C   UNL     1       0.866   9.227  20.123  0.00  0.00    +0.000 C 
BRANCH  13  14
ATOM     14  C   UNL     1       0.004  10.053  20.992  0.00  0.00    +0.000 A 
ATOM     15  C   UNL     1      -0.613  11.202  20.483  0.00  0.00    +0.000 A 
ATOM     16  C   UNL     1      -1.432  11.980  21.303  0.00  0.00    +0.000 A 
ATOM     17  C   UNL     1      -1.630  11.600  22.636  0.00  0.00    +0.000 A 
ATOM     18  C   UNL     1      -1.010  10.451  23.152  0.00  0.00    +0.000 A 
ATOM     19  C   UNL     1      -0.190   9.676  22.326  0.00  0.00    +0.000 A 
BRANCH  17  20
ATOM     20  N   UNL     1      -2.498  12.411  23.500  0.00  0.00    +0.000 N 
ATOM     21  O   UNL     1      -2.168  13.587  23.709  0.00  0.00    +0.000 OA
ATOM     22  O   UNL     1      -3.512  11.870  23.966  0.00  0.00    +0.000 OA
ENDBRANCH  17  20
ENDBRANCH  13  14
ENDBRANCH   3  12
TORSDOF 4
ENDMDL
MODEL 9
REMARK VINA RESULT:      -6.8      6.921      8.739
REMARK  Name = 
REMARK  4 active torsions:
REMARK  status: ('A' for Active; 'I' for Inactive)
REMARK    1  A    between atoms: C_2  and  C_15
REMARK    2  A    between atoms: N_3  and  N_4
REMARK    3  A    between atoms: C_5  and  C_6
REMARK    4  A    between atoms: C_9  and  N_10
REMARK                            x       y       z     vdW  Elec       q    Type
REMARK                         _______ _______ _______ _____ _____    ______ ____
ROOT
ATOM      1  O   UNL     1       9.270  10.146  19.904  0.00  0.00    +0.000 OA
ATOM      2  C   UNL     1       9.231  10.427  18.711  0.00  0.00    +0.000 C 
ATOM      3  N   UNL     1       8.719   9.621  17.704  0.00  0.00    +0.000 N 
ATOM      4  H   UNL     1       8.838   9.864  16.730  0.00  0.00    +0.000 HD
ENDROOT
BRANCH   2   5
ATOM      5  C   UNL     1       9.803  11.726  18.252  0.00  0.00    +0.000 A 
ATOM      6  C   UNL     1       9.148  12.911  18.612  0.00  0.00    +0.000 A 
ATOM      7  C   UNL     1       9.658  14.147  18.205  0.00  0.00    +0.000 A 
ATOM      8  C   UNL     1      10.816  14.196  17.431  0.00  0.00    +0.000 A 
ATOM      9 CL   UNL     1      11.446  15.715  16.928  0.00  0.00    +0.000 Cl
ATOM     10  C   UNL     1      11.465  13.021  17.053  0.00  0.00    +0.000 A 
ATOM     11  C   UNL     1      10.955  11.784  17.455  0.00  0.00    +0.000 A 
ENDBRANCH   2   5
BRANCH   3  12
ATOM     12  N   UNL     1       8.175   8.416  18.020  0.00  0.00    +0.000 NA
ATOM     13  C   UNL     1       7.059   8.125  17.434  0.00  0.00    +0.000 C 
BRANCH  13  14
ATOM     14  C   UNL     1       6.379   6.840  17.693  0.00  0.00    +0.000 A 
ATOM     15  C   UNL     1       5.203   6.517  17.006  0.00  0.00    +0.000 A 
ATOM     16  C   UNL     1       4.563   5.300  17.247  0.00  0.00    +0.000 A 
ATOM     17  C   UNL     1       5.108   4.408  18.180  0.00  0.00    +0.000 A 
ATOM     18  C   UNL     1       6.285   4.731  18.874  0.00  0.00    +0.000 A 
ATOM     19  C   UNL     1       6.922   5.952  18.629  0.00  0.00    +0.000 A 
BRANCH  17  20
ATOM     20  N   UNL     1       4.443   3.124  18.430  0.00  0.00    +0.000 N 
ATOM     21  O   UNL     1       3.765   2.636  17.513  0.00  0.00    +0.000 OA
ATOM     22  O   UNL     1       4.600   2.601  19.543  0.00  0.00    +0.000 OA
ENDBRANCH  17  20
ENDBRANCH  13  14
ENDBRANCH   3  12
TORSDOF 4
ENDMDL
