MODEL 1
REMARK VINA RESULT:      -7.1      0.000      0.000
REMARK  Name = 
REMARK  11 active torsions:
REMARK  status: ('A' for Active; 'I' for Inactive)
REMARK    1  A    between atoms: C_1  and  C_2
REMARK    2  A    between atoms: C_2  and  C_3
REMARK    3  A    between atoms: C_7  and  C_8
REMARK    4  A    between atoms: C_9  and  N_10
REMARK    5  A    between atoms: C_11  and  S_12
REMARK    6  A    between atoms: N_13  and  C_14
REMARK    7  A    between atoms: N_13  and  C_23
REMARK    8  A    between atoms: C_14  and  C_15
REMARK    9  A    between atoms: C_15  and  C_16
REMARK   10  A    between atoms: C_16  and  N_17
REMARK   11  A    between atoms: C_23  and  C_24
REMARK                            x       y       z     vdW  Elec       q    Type
REMARK                         _______ _______ _______ _____ _____    ______ ____
ROOT
ATOM      1  N   UNL     1       0.922   9.725  19.056  0.00  0.00    +0.000 NA
ATOM      2  C   UNL     1       1.356   8.822  19.883  0.00  0.00    +0.000 C 
ATOM      3  N   UNL     1       2.090   7.727  19.397  0.00  0.00    +0.000 N 
ENDROOT
BRANCH   1  10
ATOM      4  C   UNL     1      -1.210  10.804  18.651  0.00  0.00    +0.000 A 
ATOM      5  C   UNL     1      -2.073  11.902  18.778  0.00  0.00    +0.000 A 
ATOM      6  C   UNL     1      -1.700  13.022  19.510  0.00  0.00    +0.000 A 
ATOM      7  C   UNL     1      -0.436  13.083  20.074  0.00  0.00    +0.000 A 
ATOM      8  C   UNL     1       0.479  12.018  19.919  0.00  0.00    +0.000 A 
ATOM      9  C   UNL     1       1.885  12.269  20.398  0.00  0.00    +0.000 C 
ATOM     10  C   UNL     1       0.077  10.819  19.283  0.00  0.00    +0.000 A 
BRANCH   4  12
ATOM     11  C   UNL     1      -2.925   9.911  16.942  0.00  0.00    +0.000 C 
ATOM     12  C   UNL     1      -1.603   9.703  17.674  0.00  0.00    +0.000 C 
ENDBRANCH   4  12
ENDBRANCH   1  10
BRANCH   2  13
ATOM     13  S   UNL     1       1.074   8.810  21.628  0.00  0.00    +0.000 S 
ATOM     14  H   UNL     1       1.496   7.572  21.877  0.00  0.00    +0.000 HD
ENDBRANCH   2  13
BRANCH   3  15
ATOM     15  C   UNL     1       2.497   7.697  17.975  0.00  0.00    +0.000 C 
BRANCH  15  16
ATOM     16  C   UNL     1       4.017   7.785  17.742  0.00  0.00    +0.000 C 
BRANCH  16  17
ATOM     17  C   UNL     1       4.434   6.989  16.506  0.00  0.00    +0.000 C 
BRANCH  17  18
ATOM     18  N   UNL     1       5.505   6.012  16.643  0.00  0.00    +0.000 NA
ATOM     19  C   UNL     1       5.959   5.352  15.414  0.00  0.00    +0.000 C 
ATOM     20  C   UNL     1       6.743   4.092  15.818  0.00  0.00    +0.000 C 
ATOM     21  O   UNL     1       7.878   4.426  16.634  0.00  0.00    +0.000 OA
ATOM     22  C   UNL     1       7.469   5.163  17.799  0.00  0.00    +0.000 C 
ATOM     23  C   UNL     1       6.678   6.431  17.421  0.00  0.00    +0.000 C 
ENDBRANCH  17  18
ENDBRANCH  16  17
ENDBRANCH  15  16
ENDBRANCH   3  15
BRANCH   3  24
ATOM     24  C   UNL     1       1.952   6.380  20.008  0.00  0.00    +0.000 C 
BRANCH  24  25
ATOM     25  C   UNL     1       2.510   5.229  19.195  0.00  0.00    +0.000 A 
ATOM     26  C   UNL     1       1.886   4.647  18.086  0.00  0.00    +0.000 A 
ATOM     27  C   UNL     1       2.484   3.585  17.412  0.00  0.00    +0.000 A 
ATOM     28  C   UNL     1       3.710   3.131  17.860  0.00  0.00    +0.000 A 
ATOM     29  N   UNL     1       4.359   3.663  18.916  0.00  0.00    +0.000 NA
ATOM     30  C   UNL     1       3.745   4.688  19.555  0.00  0.00    +0.000 A 
ENDBRANCH  24  25
ENDBRANCH   3  24
TORSDOF 9
ENDMDL
MODEL 2
REMARK VINA RESULT:      -6.5      3.019      7.285
REMARK  Name = 
REMARK  11 active torsions:
REMARK  status: ('A' for Active; 'I' for Inactive)
REMARK    1  A    between atoms: C_1  and  C_2
REMARK    2  A    between atoms: C_2  and  C_3
REMARK    3  A    between atoms: C_7  and  C_8
REMARK    4  A    between atoms: C_9  and  N_10
REMARK    5  A    between atoms: C_11  and  S_12
REMARK    6  A    between atoms: N_13  and  C_14
REMARK    7  A    between atoms: N_13  and  C_23
REMARK    8  A    between atoms: C_14  and  C_15
REMARK    9  A    between atoms: C_15  and  C_16
REMARK   10  A    between atoms: C_16  and  N_17
REMARK   11  A    between atoms: C_23  and  C_24
REMARK                            x       y       z     vdW  Elec       q    Type
REMARK                         _______ _______ _______ _____ _____    ______ ____
ROOT
ATOM      1  N   UNL     1       2.591   5.672  18.405  0.00  0.00    +0.000 NA
ATOM      2  C   UNL     1       3.827   6.066  18.464  0.00  0.00    +0.000 C 
ATOM      3  N   UNL     1       4.218   7.239  17.796  0.00  0.00    +0.000 N 
ENDROOT
BRANCH   1  10
ATOM      4  C   UNL     1       1.557   4.468  20.237  0.00  0.00    +0.000 A 
ATOM      5  C   UNL     1       1.027   3.293  20.789  0.00  0.00    +0.000 A 
ATOM      6  C   UNL     1       0.926   2.131  20.033  0.00  0.00    +0.000 A 
ATOM      7  C   UNL     1       1.410   2.114  18.734  0.00  0.00    +0.000 A 
ATOM      8  C   UNL     1       2.001   3.265  18.166  0.00  0.00    +0.000 A 
ATOM      9  C   UNL     1       2.670   3.081  16.829  0.00  0.00    +0.000 C 
ATOM     10  C   UNL     1       2.002   4.490  18.874  0.00  0.00    +0.000 A 
BRANCH   4  12
ATOM     11  C   UNL     1       1.034   6.910  20.885  0.00  0.00    +0.000 C 
ATOM     12  C   UNL     1       1.820   5.637  21.178  0.00  0.00    +0.000 C 
ENDBRANCH   4  12
ENDBRANCH   1  10
BRANCH   2  13
ATOM     13  S   UNL     1       5.134   5.222  19.306  0.00  0.00    +0.000 S 
ATOM     14  H   UNL     1       5.550   6.233  20.066  0.00  0.00    +0.000 HD
ENDBRANCH   2  13
BRANCH   3  15
ATOM     15  C   UNL     1       3.188   8.095  17.168  0.00  0.00    +0.000 C 
BRANCH  15  16
ATOM     16  C   UNL     1       2.476   9.057  18.138  0.00  0.00    +0.000 C 
BRANCH  16  17
ATOM     17  C   UNL     1       0.982   9.146  17.832  0.00  0.00    +0.000 C 
BRANCH  17  18
ATOM     18  N   UNL     1       0.223  10.246  18.409  0.00  0.00    +0.000 NA
ATOM     19  C   UNL     1      -1.189  10.350  18.024  0.00  0.00    +0.000 C 
ATOM     20  C   UNL     1      -1.667  11.770  18.369  0.00  0.00    +0.000 C 
ATOM     21  O   UNL     1      -1.531  12.038  19.775  0.00  0.00    +0.000 OA
ATOM     22  C   UNL     1      -0.170  11.845  20.199  0.00  0.00    +0.000 C 
ATOM     23  C   UNL     1       0.336  10.428  19.862  0.00  0.00    +0.000 C 
ENDBRANCH  17  18
ENDBRANCH  16  17
ENDBRANCH  15  16
ENDBRANCH   3  15
BRANCH   3  24
ATOM     24  C   UNL     1       5.557   7.351  17.162  0.00  0.00    +0.000 C 
BRANCH  24  25
ATOM     25  C   UNL     1       5.949   6.206  16.249  0.00  0.00    +0.000 A 
ATOM     26  C   UNL     1       5.157   5.689  15.218  0.00  0.00    +0.000 A 
ATOM     27  C   UNL     1       5.611   4.627  14.440  0.00  0.00    +0.000 A 
ATOM     28  C   UNL     1       6.864   4.108  14.706  0.00  0.00    +0.000 A 
ATOM     29  N   UNL     1       7.671   4.576  15.680  0.00  0.00    +0.000 NA
ATOM     30  C   UNL     1       7.194   5.602  16.424  0.00  0.00    +0.000 A 
ENDBRANCH  24  25
ENDBRANCH   3  24
TORSDOF 9
ENDMDL
MODEL 3
REMARK VINA RESULT:      -6.4      2.012      3.974
REMARK  Name = 
REMARK  11 active torsions:
REMARK  status: ('A' for Active; 'I' for Inactive)
REMARK    1  A    between atoms: C_1  and  C_2
REMARK    2  A    between atoms: C_2  and  C_3
REMARK    3  A    between atoms: C_7  and  C_8
REMARK    4  A    between atoms: C_9  and  N_10
REMARK    5  A    between atoms: C_11  and  S_12
REMARK    6  A    between atoms: N_13  and  C_14
REMARK    7  A    between atoms: N_13  and  C_23
REMARK    8  A    between atoms: C_14  and  C_15
REMARK    9  A    between atoms: C_15  and  C_16
REMARK   10  A    between atoms: C_16  and  N_17
REMARK   11  A    between atoms: C_23  and  C_24
REMARK                            x       y       z     vdW  Elec       q    Type
REMARK                         _______ _______ _______ _____ _____    ______ ____
ROOT
ATOM      1  N   UNL     1       0.635   8.978  19.020  0.00  0.00    +0.000 NA
ATOM      2  C   UNL     1       1.761   8.990  18.372  0.00  0.00    +0.000 C 
ATOM      3  N   UNL     1       2.472   7.791  18.188  0.00  0.00    +0.000 N 
ENDROOT
BRANCH   1  10
ATOM      4  C   UNL     1      -0.055  10.479  20.793  0.00  0.00    +0.000 A 
ATOM      5  C   UNL     1      -0.890  11.491  21.288  0.00  0.00    +0.000 A 
ATOM      6  C   UNL     1      -1.847  12.088  20.476  0.00  0.00    +0.000 A 
ATOM      7  C   UNL     1      -2.021  11.638  19.177  0.00  0.00    +0.000 A 
ATOM      8  C   UNL     1      -1.235  10.582  18.664  0.00  0.00    +0.000 A 
ATOM      9  C   UNL     1      -1.640  10.041  17.319  0.00  0.00    +0.000 C 
ATOM     10  C   UNL     1      -0.175  10.045  19.432  0.00  0.00    +0.000 A 
BRANCH   4  12
ATOM     11  C   UNL     1       0.166   9.379  23.117  0.00  0.00    +0.000 C 
ATOM     12  C   UNL     1       0.827   9.738  21.790  0.00  0.00    +0.000 C 
ENDBRANCH   4  12
ENDBRANCH   1  10
BRANCH   2  13
ATOM     13  S   UNL     1       2.544  10.426  17.702  0.00  0.00    +0.000 S 
ATOM     14  H   UNL     1       3.794   9.967  17.685  0.00  0.00    +0.000 HD
ENDBRANCH   2  13
BRANCH   3  15
ATOM     15  C   UNL     1       1.854   6.510  18.593  0.00  0.00    +0.000 C 
BRANCH  15  16
ATOM     16  C   UNL     1       2.057   6.141  20.074  0.00  0.00    +0.000 C 
BRANCH  16  17
ATOM     17  C   UNL     1       1.665   4.689  20.342  0.00  0.00    +0.000 C 
BRANCH  17  18
ATOM     18  N   UNL     1       2.416   3.636  19.674  0.00  0.00    +0.000 NA
ATOM     19  C   UNL     1       3.209   2.744  20.528  0.00  0.00    +0.000 C 
ATOM     20  C   UNL     1       4.231   2.022  19.634  0.00  0.00    +0.000 C 
ATOM     21  O   UNL     1       3.576   1.253  18.612  0.00  0.00    +0.000 OA
ATOM     22  C   UNL     1       2.713   2.089  17.821  0.00  0.00    +0.000 C 
ATOM     23  C   UNL     1       1.679   2.827  18.695  0.00  0.00    +0.000 C 
ENDBRANCH  17  18
ENDBRANCH  16  17
ENDBRANCH  15  16
ENDBRANCH   3  15
BRANCH   3  24
ATOM     24  C   UNL     1       3.957   7.770  18.205  0.00  0.00    +0.000 C 
BRANCH  24  25
ATOM     25  C   UNL     1       4.608   6.660  17.404  0.00  0.00    +0.000 A 
ATOM     26  C   UNL     1       4.824   6.681  16.022  0.00  0.00    +0.000 A 
ATOM     27  C   UNL     1       5.426   5.600  15.383  0.00  0.00    +0.000 A 
ATOM     28  C   UNL     1       5.812   4.516  16.148  0.00  0.00    +0.000 A 
ATOM     29  N   UNL     1       5.637   4.450  17.484  0.00  0.00    +0.000 NA
ATOM     30  C   UNL     1       5.040   5.514  18.073  0.00  0.00    +0.000 A 
ENDBRANCH  24  25
ENDBRANCH   3  24
TORSDOF 9
ENDMDL
MODEL 4
REMARK VINA RESULT:      -6.2      1.113      1.604
REMARK  Name = 
REMARK  11 active torsions:
REMARK  status: ('A' for Active; 'I' for Inactive)
REMARK    1  A    between atoms: C_1  and  C_2
REMARK    2  A    between atoms: C_2  and  C_3
REMARK    3  A    between atoms: C_7  and  C_8
REMARK    4  A    between atoms: C_9  and  N_10
REMARK    5  A    between atoms: C_11  and  S_12
REMARK    6  A    between atoms: N_13  and  C_14
REMARK    7  A    between atoms: N_13  and  C_23
REMARK    8  A    between atoms: C_14  and  C_15
REMARK    9  A    between atoms: C_15  and  C_16
REMARK   10  A    between atoms: C_16  and  N_17
REMARK   11  A    between atoms: C_23  and  C_24
REMARK                            x       y       z     vdW  Elec       q    Type
REMARK                         _______ _______ _______ _____ _____    ______ ____
ROOT
ATOM      1  N   UNL     1       0.901   9.588  19.091  0.00  0.00    +0.000 NA
ATOM      2  C   UNL     1       1.263   8.848  20.096  0.00  0.00    +0.000 C 
ATOM      3  N   UNL     1       1.804   7.572  19.862  0.00  0.00    +0.000 N 
ENDROOT
BRANCH   1  10
ATOM      4  C   UNL     1      -1.084  10.851  18.507  0.00  0.00    +0.000 A 
ATOM      5  C   UNL     1      -1.776  12.066  18.396  0.00  0.00    +0.000 A 
ATOM      6  C   UNL     1      -1.204  13.256  18.829  0.00  0.00    +0.000 A 
ATOM      7  C   UNL     1       0.090  13.255  19.322  0.00  0.00    +0.000 A 
ATOM      8  C   UNL     1       0.837  12.058  19.397  0.00  0.00    +0.000 A 
ATOM      9  C   UNL     1       2.292  12.199  19.758  0.00  0.00    +0.000 C 
ATOM     10  C   UNL     1       0.231  10.819  19.078  0.00  0.00    +0.000 A 
BRANCH   4  12
ATOM     11  C   UNL     1      -3.190   9.691  17.572  0.00  0.00    +0.000 C 
ATOM     12  C   UNL     1      -1.689   9.626  17.834  0.00  0.00    +0.000 C 
ENDBRANCH   4  12
ENDBRANCH   1  10
BRANCH   2  13
ATOM     13  S   UNL     1       1.105   9.286  21.801  0.00  0.00    +0.000 S 
ATOM     14  H   UNL     1       1.824   8.291  22.316  0.00  0.00    +0.000 HD
ENDBRANCH   2  13
BRANCH   3  15
ATOM     15  C   UNL     1       2.102   7.151  18.476  0.00  0.00    +0.000 C 
BRANCH  15  16
ATOM     16  C   UNL     1       3.602   7.105  18.129  0.00  0.00    +0.000 C 
BRANCH  16  17
ATOM     17  C   UNL     1       3.955   5.829  17.367  0.00  0.00    +0.000 C 
BRANCH  17  18
ATOM     18  N   UNL     1       5.362   5.492  17.198  0.00  0.00    +0.000 NA
ATOM     19  C   UNL     1       6.089   5.069  18.399  0.00  0.00    +0.000 C 
ATOM     20  C   UNL     1       7.594   5.188  18.104  0.00  0.00    +0.000 C 
ATOM     21  O   UNL     1       7.974   4.358  16.994  0.00  0.00    +0.000 OA
ATOM     22  C   UNL     1       7.201   4.687  15.826  0.00  0.00    +0.000 C 
ATOM     23  C   UNL     1       5.687   4.578  16.096  0.00  0.00    +0.000 C 
ENDBRANCH  17  18
ENDBRANCH  16  17
ENDBRANCH  15  16
ENDBRANCH   3  15
BRANCH   3  24
ATOM     24  C   UNL     1       1.525   6.441  20.785  0.00  0.00    +0.000 C 
BRANCH  24  25
ATOM     25  C   UNL     1       1.914   5.067  20.276  0.00  0.00    +0.000 A 
ATOM     26  C   UNL     1       3.105   4.400  20.582  0.00  0.00    +0.000 A 
ATOM     27  C   UNL     1       3.367   3.139  20.054  0.00  0.00    +0.000 A 
ATOM     28  C   UNL     1       2.419   2.562  19.231  0.00  0.00    +0.000 A 
ATOM     29  N   UNL     1       1.251   3.157  18.913  0.00  0.00    +0.000 NA
ATOM     30  C   UNL     1       1.031   4.387  19.436  0.00  0.00    +0.000 A 
ENDBRANCH  24  25
ENDBRANCH   3  24
TORSDOF 9
ENDMDL
MODEL 5
REMARK VINA RESULT:      -6.2      1.236      1.444
REMARK  Name = 
REMARK  11 active torsions:
REMARK  status: ('A' for Active; 'I' for Inactive)
REMARK    1  A    between atoms: C_1  and  C_2
REMARK    2  A    between atoms: C_2  and  C_3
REMARK    3  A    between atoms: C_7  and  C_8
REMARK    4  A    between atoms: C_9  and  N_10
REMARK    5  A    between atoms: C_11  and  S_12
REMARK    6  A    between atoms: N_13  and  C_14
REMARK    7  A    between atoms: N_13  and  C_23
REMARK    8  A    between atoms: C_14  and  C_15
REMARK    9  A    between atoms: C_15  and  C_16
REMARK   10  A    between atoms: C_16  and  N_17
REMARK   11  A    between atoms: C_23  and  C_24
REMARK                            x       y       z     vdW  Elec       q    Type
REMARK                         _______ _______ _______ _____ _____    ______ ____
ROOT
ATOM      1  N   UNL     1       1.233   9.702  18.867  0.00  0.00    +0.000 NA
ATOM      2  C   UNL     1       1.457   8.975  19.919  0.00  0.00    +0.000 C 
ATOM      3  N   UNL     1       1.949   7.666  19.771  0.00  0.00    +0.000 N 
ENDROOT
BRANCH   1  10
ATOM      4  C   UNL     1      -0.794  11.014  18.649  0.00  0.00    +0.000 A 
ATOM      5  C   UNL     1      -1.447  12.241  18.463  0.00  0.00    +0.000 A 
ATOM      6  C   UNL     1      -0.727  13.427  18.377  0.00  0.00    +0.000 A 
ATOM      7  C   UNL     1       0.658  13.393  18.415  0.00  0.00    +0.000 A 
ATOM      8  C   UNL     1       1.349  12.168  18.546  0.00  0.00    +0.000 A 
ATOM      9  C   UNL     1       2.844  12.224  18.375  0.00  0.00    +0.000 C 
ATOM     10  C   UNL     1       0.635  10.965  18.759  0.00  0.00    +0.000 A 
BRANCH   4  12
ATOM     11  C   UNL     1      -2.763   9.789  17.519  0.00  0.00    +0.000 C 
ATOM     12  C   UNL     1      -1.627   9.744  18.535  0.00  0.00    +0.000 C 
ENDBRANCH   4  12
ENDBRANCH   1  10
BRANCH   2  13
ATOM     13  S   UNL     1       1.160   9.470  21.590  0.00  0.00    +0.000 S 
ATOM     14  H   UNL     1       1.191  10.788  21.402  0.00  0.00    +0.000 HD
ENDBRANCH   2  13
BRANCH   3  15
ATOM     15  C   UNL     1       2.354   7.190  18.430  0.00  0.00    +0.000 C 
BRANCH  15  16
ATOM     16  C   UNL     1       3.877   7.114  18.212  0.00  0.00    +0.000 C 
BRANCH  16  17
ATOM     17  C   UNL     1       4.212   6.525  16.843  0.00  0.00    +0.000 C 
BRANCH  17  18
ATOM     18  N   UNL     1       5.392   5.680  16.724  0.00  0.00    +0.000 NA
ATOM     19  C   UNL     1       6.001   5.579  15.393  0.00  0.00    +0.000 C 
ATOM     20  C   UNL     1       6.918   4.343  15.389  0.00  0.00    +0.000 C 
ATOM     21  O   UNL     1       7.949   4.458  16.384  0.00  0.00    +0.000 OA
ATOM     22  C   UNL     1       7.377   4.659  17.688  0.00  0.00    +0.000 C 
ATOM     23  C   UNL     1       6.451   5.891  17.719  0.00  0.00    +0.000 C 
ENDBRANCH  17  18
ENDBRANCH  16  17
ENDBRANCH  15  16
ENDBRANCH   3  15
BRANCH   3  24
ATOM     24  C   UNL     1       1.522   6.579  20.689  0.00  0.00    +0.000 C 
BRANCH  24  25
ATOM     25  C   UNL     1       1.909   5.175  20.268  0.00  0.00    +0.000 A 
ATOM     26  C   UNL     1       3.167   4.594  20.456  0.00  0.00    +0.000 A 
ATOM     27  C   UNL     1       3.420   3.295  20.024  0.00  0.00    +0.000 A 
ATOM     28  C   UNL     1       2.395   2.594  19.417  0.00  0.00    +0.000 A 
ATOM     29  N   UNL     1       1.161   3.103  19.222  0.00  0.00    +0.000 NA
ATOM     30  C   UNL     1       0.953   4.373  19.645  0.00  0.00    +0.000 A 
ENDBRANCH  24  25
ENDBRANCH   3  24
TORSDOF 9
ENDMDL
MODEL 6
REMARK VINA RESULT:      -6.2      3.195      8.432
REMARK  Name = 
REMARK  11 active torsions:
REMARK  status: ('A' for Active; 'I' for Inactive)
REMARK    1  A    between atoms: C_1  and  C_2
REMARK    2  A    between atoms: C_2  and  C_3
REMARK    3  A    between atoms: C_7  and  C_8
REMARK    4  A    between atoms: C_9  and  N_10
REMARK    5  A    between atoms: C_11  and  S_12
REMARK    6  A    between atoms: N_13  and  C_14
REMARK    7  A    between atoms: N_13  and  C_23
REMARK    8  A    between atoms: C_14  and  C_15
REMARK    9  A    between atoms: C_15  and  C_16
REMARK   10  A    between atoms: C_16  and  N_17
REMARK   11  A    between atoms: C_23  and  C_24
REMARK                            x       y       z     vdW  Elec       q    Type
REMARK                         _______ _______ _______ _____ _____    ______ ____
ROOT
ATOM      1  N   UNL     1       2.666   6.878  18.432  0.00  0.00    +0.000 NA
ATOM      2  C   UNL     1       2.117   7.040  19.598  0.00  0.00    +0.000 C 
ATOM      3  N   UNL     1       1.620   8.303  19.965  0.00  0.00    +0.000 N 
ENDROOT
BRANCH   1  10
ATOM      4  C   UNL     1       4.694   5.948  17.485  0.00  0.00    +0.000 A 
ATOM      5  C   UNL     1       5.394   4.896  16.877  0.00  0.00    +0.000 A 
ATOM      6  C   UNL     1       4.786   3.664  16.662  0.00  0.00    +0.000 A 
ATOM      7  C   UNL     1       3.453   3.490  16.997  0.00  0.00    +0.000 A 
ATOM      8  C   UNL     1       2.703   4.546  17.561  0.00  0.00    +0.000 A 
ATOM      9  C   UNL     1       1.221   4.313  17.700  0.00  0.00    +0.000 C 
ATOM     10  C   UNL     1       3.334   5.766  17.901  0.00  0.00    +0.000 A 
BRANCH   4  12
ATOM     11  C   UNL     1       6.870   7.325  17.323  0.00  0.00    +0.000 C 
ATOM     12  C   UNL     1       5.356   7.319  17.506  0.00  0.00    +0.000 C 
ENDBRANCH   4  12
ENDBRANCH   1  10
BRANCH   2  13
ATOM     13  S   UNL     1       1.954   5.791  20.838  0.00  0.00    +0.000 S 
ATOM     14  H   UNL     1       0.714   5.400  20.548  0.00  0.00    +0.000 HD
ENDBRANCH   2  13
BRANCH   3  15
ATOM     15  C   UNL     1       1.586   9.390  18.963  0.00  0.00    +0.000 C 
BRANCH  15  16
ATOM     16  C   UNL     1       0.392   9.327  17.991  0.00  0.00    +0.000 C 
BRANCH  16  17
ATOM     17  C   UNL     1      -0.779  10.166  18.498  0.00  0.00    +0.000 C 
BRANCH  17  18
ATOM     18  N   UNL     1      -1.835  10.518  17.558  0.00  0.00    +0.000 NA
ATOM     19  C   UNL     1      -2.027   9.623  16.412  0.00  0.00    +0.000 C 
ATOM     20  C   UNL     1      -2.846  10.382  15.355  0.00  0.00    +0.000 C 
ATOM     21  O   UNL     1      -4.125  10.780  15.875  0.00  0.00    +0.000 OA
ATOM     22  C   UNL     1      -3.966  11.578  17.061  0.00  0.00    +0.000 C 
ATOM     23  C   UNL     1      -3.145  10.840  18.138  0.00  0.00    +0.000 C 
ENDBRANCH  17  18
ENDBRANCH  16  17
ENDBRANCH  15  16
ENDBRANCH   3  15
BRANCH   3  24
ATOM     24  C   UNL     1       1.714   8.785  21.367  0.00  0.00    +0.000 C 
BRANCH  24  25
ATOM     25  C   UNL     1       0.731   9.872  21.755  0.00  0.00    +0.000 A 
ATOM     26  C   UNL     1       0.742  11.182  21.265  0.00  0.00    +0.000 A 
ATOM     27  C   UNL     1      -0.205  12.108  21.695  0.00  0.00    +0.000 A 
ATOM     28  C   UNL     1      -1.159  11.696  22.606  0.00  0.00    +0.000 A 
ATOM     29  N   UNL     1      -1.221  10.443  23.101  0.00  0.00    +0.000 NA
ATOM     30  C   UNL     1      -0.278   9.570  22.670  0.00  0.00    +0.000 A 
ENDBRANCH  24  25
ENDBRANCH   3  24
TORSDOF 9
ENDMDL
MODEL 7
REMARK VINA RESULT:      -6.1      0.372      2.121
REMARK  Name = 
REMARK  11 active torsions:
REMARK  status: ('A' for Active; 'I' for Inactive)
REMARK    1  A    between atoms: C_1  and  C_2
REMARK    2  A    between atoms: C_2  and  C_3
REMARK    3  A    between atoms: C_7  and  C_8
REMARK    4  A    between atoms: C_9  and  N_10
REMARK    5  A    between atoms: C_11  and  S_12
REMARK    6  A    between atoms: N_13  and  C_14
REMARK    7  A    between atoms: N_13  and  C_23
REMARK    8  A    between atoms: C_14  and  C_15
REMARK    9  A    between atoms: C_15  and  C_16
REMARK   10  A    between atoms: C_16  and  N_17
REMARK   11  A    between atoms: C_23  and  C_24
REMARK                            x       y       z     vdW  Elec       q    Type
REMARK                         _______ _______ _______ _____ _____    ______ ____
ROOT
ATOM      1  N   UNL     1       0.849   9.822  18.811  0.00  0.00    +0.000 NA
ATOM      2  C   UNL     1       1.236   8.951  19.694  0.00  0.00    +0.000 C 
ATOM      3  N   UNL     1       2.015   7.852  19.295  0.00  0.00    +0.000 N 
ENDROOT
BRANCH   1  10
ATOM      4  C   UNL     1       0.481  12.086  19.593  0.00  0.00    +0.000 A 
ATOM      5  C   UNL     1      -0.362  13.182  19.825  0.00  0.00    +0.000 A 
ATOM      6  C   UNL     1      -1.697  13.151  19.438  0.00  0.00    +0.000 A 
ATOM      7  C   UNL     1      -2.218  12.000  18.869  0.00  0.00    +0.000 A 
ATOM      8  C   UNL     1      -1.410  10.858  18.672  0.00  0.00    +0.000 A 
ATOM      9  C   UNL     1      -2.121   9.604  18.235  0.00  0.00    +0.000 C 
ATOM     10  C   UNL     1      -0.023  10.911  18.945  0.00  0.00    +0.000 A 
BRANCH   4  12
ATOM     11  C   UNL     1       2.447  13.503  20.481  0.00  0.00    +0.000 C 
ATOM     12  C   UNL     1       1.869  12.116  20.220  0.00  0.00    +0.000 C 
ENDBRANCH   4  12
ENDBRANCH   1  10
BRANCH   2  13
ATOM     13  S   UNL     1       0.834   8.989  21.416  0.00  0.00    +0.000 S 
ATOM     14  H   UNL     1       1.906   9.655  21.842  0.00  0.00    +0.000 HD
ENDBRANCH   2  13
BRANCH   3  15
ATOM     15  C   UNL     1       2.519   7.784  17.905  0.00  0.00    +0.000 C 
BRANCH  15  16
ATOM     16  C   UNL     1       4.054   7.786  17.780  0.00  0.00    +0.000 C 
BRANCH  16  17
ATOM     17  C   UNL     1       4.509   7.027  16.535  0.00  0.00    +0.000 C 
BRANCH  17  18
ATOM     18  N   UNL     1       5.557   6.027  16.679  0.00  0.00    +0.000 NA
ATOM     19  C   UNL     1       6.001   5.353  15.454  0.00  0.00    +0.000 C 
ATOM     20  C   UNL     1       6.755   4.077  15.867  0.00  0.00    +0.000 C 
ATOM     21  O   UNL     1       7.894   4.388  16.686  0.00  0.00    +0.000 OA
ATOM     22  C   UNL     1       7.497   5.139  17.846  0.00  0.00    +0.000 C 
ATOM     23  C   UNL     1       6.736   6.423  17.460  0.00  0.00    +0.000 C 
ENDBRANCH  17  18
ENDBRANCH  16  17
ENDBRANCH  15  16
ENDBRANCH   3  15
BRANCH   3  24
ATOM     24  C   UNL     1       1.851   6.522  19.937  0.00  0.00    +0.000 C 
BRANCH  24  25
ATOM     25  C   UNL     1       2.460   5.352  19.191  0.00  0.00    +0.000 A 
ATOM     26  C   UNL     1       1.896   4.725  18.074  0.00  0.00    +0.000 A 
ATOM     27  C   UNL     1       2.538   3.649  17.466  0.00  0.00    +0.000 A 
ATOM     28  C   UNL     1       3.747   3.227  17.986  0.00  0.00    +0.000 A 
ATOM     29  N   UNL     1       4.338   3.802  19.053  0.00  0.00    +0.000 NA
ATOM     30  C   UNL     1       3.683   4.840  19.627  0.00  0.00    +0.000 A 
ENDBRANCH  24  25
ENDBRANCH   3  24
TORSDOF 9
ENDMDL
MODEL 8
REMARK VINA RESULT:      -6.1      1.273      1.345
REMARK  Name = 
REMARK  11 active torsions:
REMARK  status: ('A' for Active; 'I' for Inactive)
REMARK    1  A    between atoms: C_1  and  C_2
REMARK    2  A    between atoms: C_2  and  C_3
REMARK    3  A    between atoms: C_7  and  C_8
REMARK    4  A    between atoms: C_9  and  N_10
REMARK    5  A    between atoms: C_11  and  S_12
REMARK    6  A    between atoms: N_13  and  C_14
REMARK    7  A    between atoms: N_13  and  C_23
REMARK    8  A    between atoms: C_14  and  C_15
REMARK    9  A    between atoms: C_15  and  C_16
REMARK   10  A    between atoms: C_16  and  N_17
REMARK   11  A    between atoms: C_23  and  C_24
REMARK                            x       y       z     vdW  Elec       q    Type
REMARK                         _______ _______ _______ _____ _____    ______ ____
ROOT
ATOM      1  N   UNL     1       1.111   9.674  18.785  0.00  0.00    +0.000 NA
ATOM      2  C   UNL     1       1.416   8.914  19.794  0.00  0.00    +0.000 C 
ATOM      3  N   UNL     1       1.937   7.628  19.566  0.00  0.00    +0.000 N 
ENDROOT
BRANCH   1  10
ATOM      4  C   UNL     1      -0.955  10.930  18.619  0.00  0.00    +0.000 A 
ATOM      5  C   UNL     1      -1.646  12.145  18.513  0.00  0.00    +0.000 A 
ATOM      6  C   UNL     1      -0.968  13.358  18.538  0.00  0.00    +0.000 A 
ATOM      7  C   UNL     1       0.416  13.367  18.609  0.00  0.00    +0.000 A 
ATOM      8  C   UNL     1       1.148  12.160  18.661  0.00  0.00    +0.000 A 
ATOM      9  C   UNL     1       2.644  12.279  18.534  0.00  0.00    +0.000 C 
ATOM     10  C   UNL     1       0.472  10.920  18.761  0.00  0.00    +0.000 A 
BRANCH   4  12
ATOM     11  C   UNL     1      -2.972   9.778  17.497  0.00  0.00    +0.000 C 
ATOM     12  C   UNL     1      -1.739   9.645  18.384  0.00  0.00    +0.000 C 
ENDBRANCH   4  12
ENDBRANCH   1  10
BRANCH   2  13
ATOM     13  S   UNL     1       1.200   9.335  21.497  0.00  0.00    +0.000 S 
ATOM     14  H   UNL     1       2.222   8.639  21.992  0.00  0.00    +0.000 HD
ENDBRANCH   2  13
BRANCH   3  15
ATOM     15  C   UNL     1       2.280   7.217  18.187  0.00  0.00    +0.000 C 
BRANCH  15  16
ATOM     16  C   UNL     1       3.481   7.964  17.577  0.00  0.00    +0.000 C 
BRANCH  16  17
ATOM     17  C   UNL     1       4.443   6.997  16.889  0.00  0.00    +0.000 C 
BRANCH  17  18
ATOM     18  N   UNL     1       5.454   6.334  17.701  0.00  0.00    +0.000 NA
ATOM     19  C   UNL     1       5.303   4.888  17.894  0.00  0.00    +0.000 C 
ATOM     20  C   UNL     1       6.175   4.480  19.094  0.00  0.00    +0.000 C 
ATOM     21  O   UNL     1       7.558   4.793  18.862  0.00  0.00    +0.000 OA
ATOM     22  C   UNL     1       7.721   6.192  18.570  0.00  0.00    +0.000 C 
ATOM     23  C   UNL     1       6.854   6.629  17.372  0.00  0.00    +0.000 C 
ENDBRANCH  17  18
ENDBRANCH  16  17
ENDBRANCH  15  16
ENDBRANCH   3  15
BRANCH   3  24
ATOM     24  C   UNL     1       1.595   6.493  20.462  0.00  0.00    +0.000 C 
BRANCH  24  25
ATOM     25  C   UNL     1       1.937   5.114  19.934  0.00  0.00    +0.000 A 
ATOM     26  C   UNL     1       1.502   4.586  18.714  0.00  0.00    +0.000 A 
ATOM     27  C   UNL     1       1.870   3.300  18.327  0.00  0.00    +0.000 A 
ATOM     28  C   UNL     1       2.682   2.567  19.172  0.00  0.00    +0.000 A 
ATOM     29  N   UNL     1       3.137   3.033  20.353  0.00  0.00    +0.000 NA
ATOM     30  C   UNL     1       2.752   4.283  20.704  0.00  0.00    +0.000 A 
ENDBRANCH  24  25
ENDBRANCH   3  24
TORSDOF 9
ENDMDL
MODEL 9
REMARK VINA RESULT:      -6.1      1.106      1.387
REMARK  Name = 
REMARK  11 active torsions:
REMARK  status: ('A' for Active; 'I' for Inactive)
REMARK    1  A    between atoms: C_1  and  C_2
REMARK    2  A    between atoms: C_2  and  C_3
REMARK    3  A    between atoms: C_7  and  C_8
REMARK    4  A    between atoms: C_9  and  N_10
REMARK    5  A    between atoms: C_11  and  S_12
REMARK    6  A    between atoms: N_13  and  C_14
REMARK    7  A    between atoms: N_13  and  C_23
REMARK    8  A    between atoms: C_14  and  C_15
REMARK    9  A    between atoms: C_15  and  C_16
REMARK   10  A    between atoms: C_16  and  N_17
REMARK   11  A    between atoms: C_23  and  C_24
REMARK                            x       y       z     vdW  Elec       q    Type
REMARK                         _______ _______ _______ _____ _____    ______ ____
ROOT
ATOM      1  N   UNL     1       1.180   9.605  18.632  0.00  0.00    +0.000 NA
ATOM      2  C   UNL     1       1.493   8.821  19.619  0.00  0.00    +0.000 C 
ATOM      3  N   UNL     1       2.030   7.549  19.356  0.00  0.00    +0.000 N 
ENDROOT
BRANCH   1  10
ATOM      4  C   UNL     1      -0.898  10.841  18.468  0.00  0.00    +0.000 A 
ATOM      5  C   UNL     1      -1.603  12.051  18.393  0.00  0.00    +0.000 A 
ATOM      6  C   UNL     1      -0.941  13.270  18.481  0.00  0.00    +0.000 A 
ATOM      7  C   UNL     1       0.440  13.294  18.583  0.00  0.00    +0.000 A 
ATOM      8  C   UNL     1       1.187  12.094  18.605  0.00  0.00    +0.000 A 
ATOM      9  C   UNL     1       2.683  12.237  18.516  0.00  0.00    +0.000 C 
ATOM     10  C   UNL     1       0.525  10.844  18.641  0.00  0.00    +0.000 A 
BRANCH   4  12
ATOM     11  C   UNL     1      -3.058   9.741  17.584  0.00  0.00    +0.000 C 
ATOM     12  C   UNL     1      -1.661   9.557  18.166  0.00  0.00    +0.000 C 
ENDBRANCH   4  12
ENDBRANCH   1  10
BRANCH   2  13
ATOM     13  S   UNL     1       1.269   9.192  21.333  0.00  0.00    +0.000 S 
ATOM     14  H   UNL     1      -0.062   9.240  21.341  0.00  0.00    +0.000 HD
ENDBRANCH   2  13
BRANCH   3  15
ATOM     15  C   UNL     1       2.380   7.180  17.967  0.00  0.00    +0.000 C 
BRANCH  15  16
ATOM     16  C   UNL     1       3.819   7.542  17.552  0.00  0.00    +0.000 C 
BRANCH  16  17
ATOM     17  C   UNL     1       4.792   6.413  17.887  0.00  0.00    +0.000 C 
BRANCH  17  18
ATOM     18  N   UNL     1       5.427   5.700  16.788  0.00  0.00    +0.000 NA
ATOM     19  C   UNL     1       6.828   5.306  16.977  0.00  0.00    +0.000 C 
ATOM     20  C   UNL     1       7.416   4.982  15.593  0.00  0.00    +0.000 C 
ATOM     21  O   UNL     1       6.695   3.911  14.960  0.00  0.00    +0.000 OA
ATOM     22  C   UNL     1       5.298   4.232  14.853  0.00  0.00    +0.000 C 
ATOM     23  C   UNL     1       4.683   4.564  16.228  0.00  0.00    +0.000 C 
ENDBRANCH  17  18
ENDBRANCH  16  17
ENDBRANCH  15  16
ENDBRANCH   3  15
BRANCH   3  24
ATOM     24  C   UNL     1       1.701   6.385  20.219  0.00  0.00    +0.000 C 
BRANCH  24  25
ATOM     25  C   UNL     1       2.055   5.025  19.651  0.00  0.00    +0.000 A 
ATOM     26  C   UNL     1       1.441   4.427  18.546  0.00  0.00    +0.000 A 
ATOM     27  C   UNL     1       1.839   3.166  18.110  0.00  0.00    +0.000 A 
ATOM     28  C   UNL     1       2.861   2.529  18.789  0.00  0.00    +0.000 A 
ATOM     29  N   UNL     1       3.493   3.066  19.852  0.00  0.00    +0.000 NA
ATOM     30  C   UNL     1       3.074   4.289  20.256  0.00  0.00    +0.000 A 
ENDBRANCH  24  25
ENDBRANCH   3  24
TORSDOF 9
ENDMDL
