MODEL 1
REMARK VINA RESULT:      -7.4      0.000      0.000
REMARK  Name = 
REMARK  5 active torsions:
REMARK  status: ('A' for Active; 'I' for Inactive)
REMARK    1  A    between atoms: C_1  and  C_2
REMARK    2  A    between atoms: C_2  and  C_15
REMARK    3  A    between atoms: N_3  and  N_4
REMARK    4  A    between atoms: N_7  and  C_8
REMARK    5  A    between atoms: C_18  and  C_19
REMARK                            x       y       z     vdW  Elec       q    Type
REMARK                         _______ _______ _______ _____ _____    ______ ____
ROOT
ATOM      1  N   UNL     1       1.541   7.913  20.777  0.00  0.00    +0.000 N 
ATOM      2  C   UNL     1       1.051   9.207  20.755  0.00  0.00    +0.000 C 
ATOM      3  O   UNL     1       0.608   9.727  21.772  0.00  0.00    +0.000 OA
ATOM      4  N   UNL     1       1.094   9.771  19.501  0.00  0.00    +0.000 N 
ATOM      5  H   UNL     1       1.509   7.461  21.681  0.00  0.00    +0.000 HD
ATOM      6  H   UNL     1       1.058   9.065  18.775  0.00  0.00    +0.000 HD
ENDROOT
BRANCH   4   7
ATOM      7  C   UNL     1       0.644  11.069  19.202  0.00  0.00    +0.000 A 
ATOM      8  C   UNL     1       1.452  12.181  19.461  0.00  0.00    +0.000 A 
ATOM      9  C   UNL     1       1.019  13.462  19.110  0.00  0.00    +0.000 A 
ATOM     10  C   UNL     1      -0.235  13.642  18.525  0.00  0.00    +0.000 A 
ATOM     11  C   UNL     1      -1.051  12.539  18.274  0.00  0.00    +0.000 A 
ATOM     12  C   UNL     1      -0.604  11.253  18.591  0.00  0.00    +0.000 A 
ATOM     13 CL   UNL     1      -1.655   9.915  18.282  0.00  0.00    +0.000 Cl
ENDBRANCH   4   7
BRANCH   1  16
ATOM     14  C   UNL     1       1.859   5.068  20.581  0.00  0.00    +0.000 C 
ATOM     15  C   UNL     1       2.408   6.101  19.622  0.00  0.00    +0.000 C 
ATOM     16  N   UNL     1       2.226   7.394  19.723  0.00  0.00    +0.000 NA
BRANCH  15  17
ATOM     17  C   UNL     1       3.239   5.600  18.473  0.00  0.00    +0.000 A 
ATOM     18  C   UNL     1       3.287   4.244  18.126  0.00  0.00    +0.000 A 
ATOM     19  C   UNL     1       4.073   3.808  17.054  0.00  0.00    +0.000 A 
ATOM     20  C   UNL     1       4.829   4.719  16.309  0.00  0.00    +0.000 A 
ATOM     21  C   UNL     1       5.662   4.264  15.149  0.00  0.00    +0.000 C 
ATOM     22  C   UNL     1       4.797   6.071  16.661  0.00  0.00    +0.000 A 
ATOM     23  C   UNL     1       4.011   6.508  17.732  0.00  0.00    +0.000 A 
ENDBRANCH  15  17
ENDBRANCH   1  16
TORSDOF 3
ENDMDL
MODEL 2
REMARK VINA RESULT:      -7.4      0.061      1.053
REMARK  Name = 
REMARK  5 active torsions:
REMARK  status: ('A' for Active; 'I' for Inactive)
REMARK    1  A    between atoms: C_1  and  C_2
REMARK    2  A    between atoms: C_2  and  C_15
REMARK    3  A    between atoms: N_3  and  N_4
REMARK    4  A    between atoms: N_7  and  C_8
REMARK    5  A    between atoms: C_18  and  C_19
REMARK                            x       y       z     vdW  Elec       q    Type
REMARK                         _______ _______ _______ _____ _____    ______ ____
ROOT
ATOM      1  N   UNL     1       1.545   7.903  20.740  0.00  0.00    +0.000 N 
ATOM      2  C   UNL     1       1.041   9.193  20.727  0.00  0.00    +0.000 C 
ATOM      3  O   UNL     1       0.577   9.694  21.744  0.00  0.00    +0.000 OA
ATOM      4  N   UNL     1       1.098   9.773  19.481  0.00  0.00    +0.000 N 
ATOM      5  H   UNL     1       1.504   7.440  21.638  0.00  0.00    +0.000 HD
ATOM      6  H   UNL     1       1.081   9.075  18.746  0.00  0.00    +0.000 HD
ENDROOT
BRANCH   4   7
ATOM      7  C   UNL     1       0.639  11.069  19.191  0.00  0.00    +0.000 A 
ATOM      8  C   UNL     1       1.454  12.182  19.420  0.00  0.00    +0.000 A 
ATOM      9  C   UNL     1       1.010  13.462  19.076  0.00  0.00    +0.000 A 
ATOM     10  C   UNL     1      -0.261  13.640  18.532  0.00  0.00    +0.000 A 
ATOM     11  C   UNL     1      -1.085  12.535  18.312  0.00  0.00    +0.000 A 
ATOM     12  C   UNL     1      -0.628  11.251  18.620  0.00  0.00    +0.000 A 
ATOM     13 CL   UNL     1      -1.689   9.911  18.350  0.00  0.00    +0.000 Cl
ENDBRANCH   4   7
BRANCH   1  16
ATOM     14  C   UNL     1       1.902   5.065  20.517  0.00  0.00    +0.000 C 
ATOM     15  C   UNL     1       2.452   6.116  19.578  0.00  0.00    +0.000 C 
ATOM     16  N   UNL     1       2.252   7.406  19.691  0.00  0.00    +0.000 NA
BRANCH  15  17
ATOM     17  C   UNL     1       3.306   5.638  18.436  0.00  0.00    +0.000 A 
ATOM     18  C   UNL     1       4.072   6.518  17.661  0.00  0.00    +0.000 A 
ATOM     19  C   UNL     1       4.853   6.043  16.603  0.00  0.00    +0.000 A 
ATOM     20  C   UNL     1       4.882   4.679  16.295  0.00  0.00    +0.000 A 
ATOM     21  C   UNL     1       5.728   4.158  15.172  0.00  0.00    +0.000 C 
ATOM     22  C   UNL     1       4.107   3.799  17.055  0.00  0.00    +0.000 A 
ATOM     23  C   UNL     1       3.326   4.272  18.114  0.00  0.00    +0.000 A 
ENDBRANCH  15  17
ENDBRANCH   1  16
TORSDOF 3
ENDMDL
MODEL 3
REMARK VINA RESULT:      -7.0      1.247      1.834
REMARK  Name = 
REMARK  5 active torsions:
REMARK  status: ('A' for Active; 'I' for Inactive)
REMARK    1  A    between atoms: C_1  and  C_2
REMARK    2  A    between atoms: C_2  and  C_15
REMARK    3  A    between atoms: N_3  and  N_4
REMARK    4  A    between atoms: N_7  and  C_8
REMARK    5  A    between atoms: C_18  and  C_19
REMARK                            x       y       z     vdW  Elec       q    Type
REMARK                         _______ _______ _______ _____ _____    ______ ____
ROOT
ATOM      1  N   UNL     1       1.828   7.548  20.822  0.00  0.00    +0.000 N 
ATOM      2  C   UNL     1       1.138   8.744  20.926  0.00  0.00    +0.000 C 
ATOM      3  O   UNL     1       0.714   9.129  22.009  0.00  0.00    +0.000 OA
ATOM      4  N   UNL     1       0.976   9.372  19.713  0.00  0.00    +0.000 N 
ATOM      5  H   UNL     1       1.951   7.051  21.693  0.00  0.00    +0.000 HD
ATOM      6  H   UNL     1       0.986   8.709  18.947  0.00  0.00    +0.000 HD
ENDROOT
BRANCH   4   7
ATOM      7  C   UNL     1       0.300  10.592  19.540  0.00  0.00    +0.000 A 
ATOM      8  C   UNL     1      -0.958  10.800  20.116  0.00  0.00    +0.000 A 
ATOM      9  C   UNL     1      -1.597  12.036  19.986  0.00  0.00    +0.000 A 
ATOM     10  C   UNL     1      -0.997  13.060  19.253  0.00  0.00    +0.000 A 
ATOM     11  C   UNL     1       0.252  12.857  18.665  0.00  0.00    +0.000 A 
ATOM     12  C   UNL     1       0.909  11.634  18.827  0.00  0.00    +0.000 A 
ATOM     13 CL   UNL     1       2.447  11.417  18.065  0.00  0.00    +0.000 Cl
ENDBRANCH   4   7
BRANCH   1  16
ATOM     14  C   UNL     1       2.571   4.807  20.408  0.00  0.00    +0.000 C 
ATOM     15  C   UNL     1       2.861   5.967  19.480  0.00  0.00    +0.000 C 
ATOM     16  N   UNL     1       2.486   7.206  19.682  0.00  0.00    +0.000 NA
BRANCH  15  17
ATOM     17  C   UNL     1       3.652   5.670  18.236  0.00  0.00    +0.000 A 
ATOM     18  C   UNL     1       4.237   6.683  17.467  0.00  0.00    +0.000 A 
ATOM     19  C   UNL     1       4.963   6.374  16.312  0.00  0.00    +0.000 A 
ATOM     20  C   UNL     1       5.117   5.047  15.901  0.00  0.00    +0.000 A 
ATOM     21  C   UNL     1       5.906   4.705  14.673  0.00  0.00    +0.000 C 
ATOM     22  C   UNL     1       4.521   4.033  16.656  0.00  0.00    +0.000 A 
ATOM     23  C   UNL     1       3.796   4.340  17.810  0.00  0.00    +0.000 A 
ENDBRANCH  15  17
ENDBRANCH   1  16
TORSDOF 3
ENDMDL
MODEL 4
REMARK VINA RESULT:      -7.0      2.803      7.881
REMARK  Name = 
REMARK  5 active torsions:
REMARK  status: ('A' for Active; 'I' for Inactive)
REMARK    1  A    between atoms: C_1  and  C_2
REMARK    2  A    between atoms: C_2  and  C_15
REMARK    3  A    between atoms: N_3  and  N_4
REMARK    4  A    between atoms: N_7  and  C_8
REMARK    5  A    between atoms: C_18  and  C_19
REMARK                            x       y       z     vdW  Elec       q    Type
REMARK                         _______ _______ _______ _____ _____    ______ ____
ROOT
ATOM      1  N   UNL     1       2.798   8.173  17.784  0.00  0.00    +0.000 N 
ATOM      2  C   UNL     1       3.126   6.860  18.073  0.00  0.00    +0.000 C 
ATOM      3  O   UNL     1       4.294   6.526  18.233  0.00  0.00    +0.000 OA
ATOM      4  N   UNL     1       2.027   6.033  18.112  0.00  0.00    +0.000 N 
ATOM      5  H   UNL     1       3.585   8.806  17.731  0.00  0.00    +0.000 HD
ATOM      6  H   UNL     1       1.274   6.389  17.533  0.00  0.00    +0.000 HD
ENDROOT
BRANCH   4   7
ATOM      7  C   UNL     1       2.085   4.653  18.369  0.00  0.00    +0.000 A 
ATOM      8  C   UNL     1       2.352   3.745  17.339  0.00  0.00    +0.000 A 
ATOM      9  C   UNL     1       2.464   2.380  17.615  0.00  0.00    +0.000 A 
ATOM     10  C   UNL     1       2.278   1.911  18.915  0.00  0.00    +0.000 A 
ATOM     11  C   UNL     1       2.000   2.809  19.947  0.00  0.00    +0.000 A 
ATOM     12  C   UNL     1       1.925   4.178  19.678  0.00  0.00    +0.000 A 
ATOM     13 CL   UNL     1       1.558   5.255  20.982  0.00  0.00    +0.000 Cl
ENDBRANCH   4   7
BRANCH   1  16
ATOM     14  C   UNL     1       2.273  10.972  18.141  0.00  0.00    +0.000 C 
ATOM     15  C   UNL     1       1.240   9.875  18.000  0.00  0.00    +0.000 C 
ATOM     16  N   UNL     1       1.509   8.606  17.813  0.00  0.00    +0.000 NA
BRANCH  15  17
ATOM     17  C   UNL     1      -0.206  10.276  18.098  0.00  0.00    +0.000 A 
ATOM     18  C   UNL     1      -1.198   9.681  17.307  0.00  0.00    +0.000 A 
ATOM     19  C   UNL     1      -2.534  10.079  17.418  0.00  0.00    +0.000 A 
ATOM     20  C   UNL     1      -2.906  11.082  18.319  0.00  0.00    +0.000 A 
ATOM     21  C   UNL     1      -4.337  11.504  18.457  0.00  0.00    +0.000 C 
ATOM     22  C   UNL     1      -1.918  11.690  19.098  0.00  0.00    +0.000 A 
ATOM     23  C   UNL     1      -0.582  11.293  18.989  0.00  0.00    +0.000 A 
ENDBRANCH  15  17
ENDBRANCH   1  16
TORSDOF 3
ENDMDL
MODEL 5
REMARK VINA RESULT:      -7.0      1.184      1.668
REMARK  Name = 
REMARK  5 active torsions:
REMARK  status: ('A' for Active; 'I' for Inactive)
REMARK    1  A    between atoms: C_1  and  C_2
REMARK    2  A    between atoms: C_2  and  C_15
REMARK    3  A    between atoms: N_3  and  N_4
REMARK    4  A    between atoms: N_7  and  C_8
REMARK    5  A    between atoms: C_18  and  C_19
REMARK                            x       y       z     vdW  Elec       q    Type
REMARK                         _______ _______ _______ _____ _____    ______ ____
ROOT
ATOM      1  N   UNL     1       1.892   7.837  20.668  0.00  0.00    +0.000 N 
ATOM      2  C   UNL     1       1.033   8.919  20.577  0.00  0.00    +0.000 C 
ATOM      3  O   UNL     1       0.579   9.446  21.585  0.00  0.00    +0.000 OA
ATOM      4  N   UNL     1       0.751   9.266  19.275  0.00  0.00    +0.000 N 
ATOM      5  H   UNL     1       2.107   7.544  21.611  0.00  0.00    +0.000 HD
ATOM      6  H   UNL     1       0.844   8.473  18.651  0.00  0.00    +0.000 HD
ENDROOT
BRANCH   4   7
ATOM      7  C   UNL     1      -0.104  10.318  18.906  0.00  0.00    +0.000 A 
ATOM      8  C   UNL     1      -1.470  10.092  18.711  0.00  0.00    +0.000 A 
ATOM      9  C   UNL     1      -2.322  11.155  18.398  0.00  0.00    +0.000 A 
ATOM     10  C   UNL     1      -1.809  12.443  18.249  0.00  0.00    +0.000 A 
ATOM     11  C   UNL     1      -0.445  12.675  18.431  0.00  0.00    +0.000 A 
ATOM     12  C   UNL     1       0.402  11.619  18.780  0.00  0.00    +0.000 A 
ATOM     13 CL   UNL     1       2.089  11.946  18.976  0.00  0.00    +0.000 Cl
ENDBRANCH   4   7
BRANCH   1  16
ATOM     14  C   UNL     1       2.111   5.005  20.262  0.00  0.00    +0.000 C 
ATOM     15  C   UNL     1       2.707   6.086  19.388  0.00  0.00    +0.000 C 
ATOM     16  N   UNL     1       2.569   7.375  19.584  0.00  0.00    +0.000 NA
BRANCH  15  17
ATOM     17  C   UNL     1       3.532   5.642  18.211  0.00  0.00    +0.000 A 
ATOM     18  C   UNL     1       3.660   4.293  17.860  0.00  0.00    +0.000 A 
ATOM     19  C   UNL     1       4.439   3.912  16.762  0.00  0.00    +0.000 A 
ATOM     20  C   UNL     1       5.107   4.871  15.996  0.00  0.00    +0.000 A 
ATOM     21  C   UNL     1       5.931   4.474  14.808  0.00  0.00    +0.000 C 
ATOM     22  C   UNL     1       4.996   6.218  16.352  0.00  0.00    +0.000 A 
ATOM     23  C   UNL     1       4.217   6.600  17.448  0.00  0.00    +0.000 A 
ENDBRANCH  15  17
ENDBRANCH   1  16
TORSDOF 3
ENDMDL
MODEL 6
REMARK VINA RESULT:      -7.0      2.815      7.898
REMARK  Name = 
REMARK  5 active torsions:
REMARK  status: ('A' for Active; 'I' for Inactive)
REMARK    1  A    between atoms: C_1  and  C_2
REMARK    2  A    between atoms: C_2  and  C_15
REMARK    3  A    between atoms: N_3  and  N_4
REMARK    4  A    between atoms: N_7  and  C_8
REMARK    5  A    between atoms: C_18  and  C_19
REMARK                            x       y       z     vdW  Elec       q    Type
REMARK                         _______ _______ _______ _____ _____    ______ ____
ROOT
ATOM      1  N   UNL     1       2.782   8.225  17.724  0.00  0.00    +0.000 N 
ATOM      2  C   UNL     1       3.119   6.918  18.034  0.00  0.00    +0.000 C 
ATOM      3  O   UNL     1       4.290   6.594  18.191  0.00  0.00    +0.000 OA
ATOM      4  N   UNL     1       2.025   6.086  18.093  0.00  0.00    +0.000 N 
ATOM      5  H   UNL     1       3.565   8.861  17.656  0.00  0.00    +0.000 HD
ATOM      6  H   UNL     1       1.267   6.428  17.514  0.00  0.00    +0.000 HD
ENDROOT
BRANCH   4   7
ATOM      7  C   UNL     1       2.093   4.711  18.374  0.00  0.00    +0.000 A 
ATOM      8  C   UNL     1       2.316   3.784  17.351  0.00  0.00    +0.000 A 
ATOM      9  C   UNL     1       2.437   2.423  17.647  0.00  0.00    +0.000 A 
ATOM     10  C   UNL     1       2.306   1.979  18.963  0.00  0.00    +0.000 A 
ATOM     11  C   UNL     1       2.072   2.897  19.988  0.00  0.00    +0.000 A 
ATOM     12  C   UNL     1       1.988   4.261  19.697  0.00  0.00    +0.000 A 
ATOM     13 CL   UNL     1       1.677   5.362  20.995  0.00  0.00    +0.000 Cl
ENDBRANCH   4   7
BRANCH   1  16
ATOM     14  C   UNL     1       2.239  10.999  18.219  0.00  0.00    +0.000 C 
ATOM     15  C   UNL     1       1.213   9.907  18.004  0.00  0.00    +0.000 C 
ATOM     16  N   UNL     1       1.491   8.651  17.754  0.00  0.00    +0.000 NA
BRANCH  15  17
ATOM     17  C   UNL     1      -0.236  10.297  18.098  0.00  0.00    +0.000 A 
ATOM     18  C   UNL     1      -0.685  11.280  18.988  0.00  0.00    +0.000 A 
ATOM     19  C   UNL     1      -2.041  11.617  19.054  0.00  0.00    +0.000 A 
ATOM     20  C   UNL     1      -2.976  10.976  18.235  0.00  0.00    +0.000 A 
ATOM     21  C   UNL     1      -4.429  11.341  18.288  0.00  0.00    +0.000 C 
ATOM     22  C   UNL     1      -2.535   9.982  17.357  0.00  0.00    +0.000 A 
ATOM     23  C   UNL     1      -1.180   9.645  17.289  0.00  0.00    +0.000 A 
ENDBRANCH  15  17
ENDBRANCH   1  16
TORSDOF 3
ENDMDL
MODEL 7
REMARK VINA RESULT:      -6.9      5.643      7.383
REMARK  Name = 
REMARK  5 active torsions:
REMARK  status: ('A' for Active; 'I' for Inactive)
REMARK    1  A    between atoms: C_1  and  C_2
REMARK    2  A    between atoms: C_2  and  C_15
REMARK    3  A    between atoms: N_3  and  N_4
REMARK    4  A    between atoms: N_7  and  C_8
REMARK    5  A    between atoms: C_18  and  C_19
REMARK                            x       y       z     vdW  Elec       q    Type
REMARK                         _______ _______ _______ _____ _____    ______ ____
ROOT
ATOM      1  N   UNL     1       5.648   3.679  16.959  0.00  0.00    +0.000 N 
ATOM      2  C   UNL     1       4.590   3.112  17.651  0.00  0.00    +0.000 C 
ATOM      3  O   UNL     1       4.088   2.060  17.275  0.00  0.00    +0.000 OA
ATOM      4  N   UNL     1       4.188   3.873  18.724  0.00  0.00    +0.000 N 
ATOM      5  H   UNL     1       5.959   3.153  16.154  0.00  0.00    +0.000 HD
ATOM      6  H   UNL     1       4.406   4.853  18.587  0.00  0.00    +0.000 HD
ENDROOT
BRANCH   4   7
ATOM      7  C   UNL     1       3.128   3.531  19.581  0.00  0.00    +0.000 A 
ATOM      8  C   UNL     1       3.371   2.860  20.784  0.00  0.00    +0.000 A 
ATOM      9  C   UNL     1       2.316   2.574  21.656  0.00  0.00    +0.000 A 
ATOM     10  C   UNL     1       1.011   2.931  21.317  0.00  0.00    +0.000 A 
ATOM     11  C   UNL     1       0.759   3.590  20.113  0.00  0.00    +0.000 A 
ATOM     12  C   UNL     1       1.818   3.910  19.258  0.00  0.00    +0.000 A 
ATOM     13 CL   UNL     1       1.459   4.710  17.767  0.00  0.00    +0.000 Cl
ENDBRANCH   4   7
BRANCH   1  16
ATOM     14  C   UNL     1       5.157   6.321  15.955  0.00  0.00    +0.000 C 
ATOM     15  C   UNL     1       6.168   5.936  17.013  0.00  0.00    +0.000 C 
ATOM     16  N   UNL     1       6.353   4.722  17.471  0.00  0.00    +0.000 NA
BRANCH  15  17
ATOM     17  C   UNL     1       7.034   7.033  17.569  0.00  0.00    +0.000 A 
ATOM     18  C   UNL     1       7.957   6.803  18.597  0.00  0.00    +0.000 A 
ATOM     19  C   UNL     1       8.745   7.846  19.095  0.00  0.00    +0.000 A 
ATOM     20  C   UNL     1       8.624   9.139  18.578  0.00  0.00    +0.000 A 
ATOM     21  C   UNL     1       9.475  10.260  19.095  0.00  0.00    +0.000 C 
ATOM     22  C   UNL     1       7.693   9.377  17.564  0.00  0.00    +0.000 A 
ATOM     23  C   UNL     1       6.905   8.336  17.064  0.00  0.00    +0.000 A 
ENDBRANCH  15  17
ENDBRANCH   1  16
TORSDOF 3
ENDMDL
MODEL 8
REMARK VINA RESULT:      -6.8      5.690      7.450
REMARK  Name = 
REMARK  5 active torsions:
REMARK  status: ('A' for Active; 'I' for Inactive)
REMARK    1  A    between atoms: C_1  and  C_2
REMARK    2  A    between atoms: C_2  and  C_15
REMARK    3  A    between atoms: N_3  and  N_4
REMARK    4  A    between atoms: N_7  and  C_8
REMARK    5  A    between atoms: C_18  and  C_19
REMARK                            x       y       z     vdW  Elec       q    Type
REMARK                         _______ _______ _______ _____ _____    ______ ____
ROOT
ATOM      1  N   UNL     1       5.645   3.643  16.960  0.00  0.00    +0.000 N 
ATOM      2  C   UNL     1       4.591   3.068  17.649  0.00  0.00    +0.000 C 
ATOM      3  O   UNL     1       4.103   2.008  17.276  0.00  0.00    +0.000 OA
ATOM      4  N   UNL     1       4.174   3.830  18.716  0.00  0.00    +0.000 N 
ATOM      5  H   UNL     1       5.966   3.117  16.158  0.00  0.00    +0.000 HD
ATOM      6  H   UNL     1       4.382   4.811  18.575  0.00  0.00    +0.000 HD
ENDROOT
BRANCH   4   7
ATOM      7  C   UNL     1       3.114   3.481  19.569  0.00  0.00    +0.000 A 
ATOM      8  C   UNL     1       3.361   2.851  20.794  0.00  0.00    +0.000 A 
ATOM      9  C   UNL     1       2.304   2.558  21.661  0.00  0.00    +0.000 A 
ATOM     10  C   UNL     1       0.994   2.865  21.296  0.00  0.00    +0.000 A 
ATOM     11  C   UNL     1       0.738   3.483  20.071  0.00  0.00    +0.000 A 
ATOM     12  C   UNL     1       1.797   3.811  19.220  0.00  0.00    +0.000 A 
ATOM     13 CL   UNL     1       1.435   4.558  17.702  0.00  0.00    +0.000 Cl
ENDBRANCH   4   7
BRANCH   1  16
ATOM     14  C   UNL     1       5.162   6.269  15.909  0.00  0.00    +0.000 C 
ATOM     15  C   UNL     1       6.154   5.903  16.991  0.00  0.00    +0.000 C 
ATOM     16  N   UNL     1       6.336   4.697  17.470  0.00  0.00    +0.000 NA
BRANCH  15  17
ATOM     17  C   UNL     1       7.005   7.012  17.547  0.00  0.00    +0.000 A 
ATOM     18  C   UNL     1       6.948   8.317  17.044  0.00  0.00    +0.000 A 
ATOM     19  C   UNL     1       7.755   9.325  17.580  0.00  0.00    +0.000 A 
ATOM     20  C   UNL     1       8.638   9.049  18.628  0.00  0.00    +0.000 A 
ATOM     21  C   UNL     1       9.496  10.126  19.220  0.00  0.00    +0.000 C 
ATOM     22  C   UNL     1       8.711   7.744  19.123  0.00  0.00    +0.000 A 
ATOM     23  C   UNL     1       7.904   6.735  18.589  0.00  0.00    +0.000 A 
ENDBRANCH  15  17
ENDBRANCH   1  16
TORSDOF 3
ENDMDL
MODEL 9
REMARK VINA RESULT:      -6.8      2.995      7.781
REMARK  Name = 
REMARK  5 active torsions:
REMARK  status: ('A' for Active; 'I' for Inactive)
REMARK    1  A    between atoms: C_1  and  C_2
REMARK    2  A    between atoms: C_2  and  C_15
REMARK    3  A    between atoms: N_3  and  N_4
REMARK    4  A    between atoms: N_7  and  C_8
REMARK    5  A    between atoms: C_18  and  C_19
REMARK                            x       y       z     vdW  Elec       q    Type
REMARK                         _______ _______ _______ _____ _____    ______ ____
ROOT
ATOM      1  N   UNL     1       2.714   7.995  17.786  0.00  0.00    +0.000 N 
ATOM      2  C   UNL     1       3.064   6.823  18.436  0.00  0.00    +0.000 C 
ATOM      3  O   UNL     1       4.238   6.487  18.531  0.00  0.00    +0.000 OA
ATOM      4  N   UNL     1       1.972   6.120  18.890  0.00  0.00    +0.000 N 
ATOM      5  H   UNL     1       3.492   8.529  17.424  0.00  0.00    +0.000 HD
ATOM      6  H   UNL     1       1.146   6.319  18.338  0.00  0.00    +0.000 HD
ENDROOT
BRANCH   4   7
ATOM      7  C   UNL     1       2.050   4.892  19.569  0.00  0.00    +0.000 A 
ATOM      8  C   UNL     1       2.038   4.848  20.967  0.00  0.00    +0.000 A 
ATOM      9  C   UNL     1       2.059   3.619  21.633  0.00  0.00    +0.000 A 
ATOM     10  C   UNL     1       2.125   2.430  20.906  0.00  0.00    +0.000 A 
ATOM     11  C   UNL     1       2.150   2.467  19.511  0.00  0.00    +0.000 A 
ATOM     12  C   UNL     1       2.090   3.694  18.844  0.00  0.00    +0.000 A 
ATOM     13 CL   UNL     1       2.143   3.695  17.115  0.00  0.00    +0.000 Cl
ENDBRANCH   4   7
BRANCH   1  16
ATOM     14  C   UNL     1       2.340  10.823  18.093  0.00  0.00    +0.000 C 
ATOM     15  C   UNL     1       1.250   9.776  18.018  0.00  0.00    +0.000 C 
ATOM     16  N   UNL     1       1.450   8.492  17.852  0.00  0.00    +0.000 NA
BRANCH  15  17
ATOM     17  C   UNL     1      -0.170  10.251  18.158  0.00  0.00    +0.000 A 
ATOM     18  C   UNL     1      -1.213   9.712  17.395  0.00  0.00    +0.000 A 
ATOM     19  C   UNL     1      -2.523  10.178  17.546  0.00  0.00    +0.000 A 
ATOM     20  C   UNL     1      -2.816  11.194  18.460  0.00  0.00    +0.000 A 
ATOM     21  C   UNL     1      -4.220  11.690  18.640  0.00  0.00    +0.000 C 
ATOM     22  C   UNL     1      -1.776  11.748  19.212  0.00  0.00    +0.000 A 
ATOM     23  C   UNL     1      -0.467  11.282  19.063  0.00  0.00    +0.000 A 
ENDBRANCH  15  17
ENDBRANCH   1  16
TORSDOF 3
ENDMDL
