MODEL 1
REMARK VINA RESULT:      -8.4      0.000      0.000
REMARK  Name = 
REMARK  12 active torsions:
REMARK  status: ('A' for Active; 'I' for Inactive)
REMARK    1  A    between atoms: C_1  and  C_2
REMARK    2  A    between atoms: C_2  and  O_3
REMARK    3  A    between atoms: O_3  and  C_4
REMARK    4  A    between atoms: C_8  and  C_9
REMARK    5  A    between atoms: C_9  and  C_10
REMARK    6  A    between atoms: N_12  and  C_13
REMARK    7  A    between atoms: C_13  and  C_14
REMARK    8  A    between atoms: C_23  and  C_25
REMARK    9  A    between atoms: C_29  and  C_30
REMARK   10  A    between atoms: C_32  and  O_33
REMARK   11  A    between atoms: O_33  and  C_34
REMARK   12  A    between atoms: C_34  and  C_35
REMARK                            x       y       z     vdW  Elec       q    Type
REMARK                         _______ _______ _______ _____ _____    ______ ____
ROOT
ATOM      1  C   UNL     1       0.758   9.982  18.155  0.00  0.00    +0.000 C 
ENDROOT
BRANCH   1   2
ATOM      2  C   UNL     1      -0.746  10.098  18.254  0.00  0.00    +0.000 A 
ATOM      3  C   UNL     1      -1.333  10.829  19.314  0.00  0.00    +0.000 A 
ATOM      4  C   UNL     1      -2.649  11.310  19.238  0.00  0.00    +0.000 A 
ATOM      5  C   UNL     1      -3.367  11.040  18.086  0.00  0.00    +0.000 A 
ATOM      6  C   UNL     1      -2.850  10.137  17.130  0.00  0.00    +0.000 A 
ATOM      7  C   UNL     1      -1.548   9.655  17.192  0.00  0.00    +0.000 A 
ATOM      8  C   UNL     1      -3.751  10.183  15.929  0.00  0.00    +0.000 C 
ATOM      9  C   UNL     1      -3.941  11.695  15.970  0.00  0.00    +0.000 C 
ATOM     10  N   UNL     1      -4.274  11.917  17.398  0.00  0.00    +0.000 N 
ATOM     11  C   UNL     1      -5.656  11.967  17.616  0.00  0.00    +0.000 C 
ATOM     12  O   UNL     1      -6.478  12.105  16.689  0.00  0.00    +0.000 OA
BRANCH  11  13
ATOM     13  C   UNL     1      -6.222  11.816  18.951  0.00  0.00    +0.000 A 
ATOM     14  C   UNL     1      -6.278  12.900  19.821  0.00  0.00    +0.000 A 
ATOM     15  C   UNL     1      -6.832  12.720  21.086  0.00  0.00    +0.000 A 
ATOM     16  C   UNL     1      -7.336  11.465  21.460  0.00  0.00    +0.000 A 
ATOM     17  C   UNL     1      -7.331  10.394  20.563  0.00  0.00    +0.000 A 
ATOM     18  C   UNL     1      -7.915   9.062  20.931  0.00  0.00    +0.000 C 
ATOM     19  C   UNL     1      -6.796  10.586  19.289  0.00  0.00    +0.000 A 
ENDBRANCH  11  13
ENDBRANCH   1   2
BRANCH   1  22
ATOM     20  C   UNL     1       2.313   8.132  18.474  0.00  0.00    +0.000 C 
ATOM     21  O   UNL     1       2.847   8.312  17.374  0.00  0.00    +0.000 OA
ATOM     22  N   UNL     1       1.309   8.949  18.969  0.00  0.00    +0.000 N 
ATOM     23  H   UNL     1       0.841   8.679  19.827  0.00  0.00    +0.000 HD
BRANCH  20  24
ATOM     24  C   UNL     1       2.696   6.981  19.378  0.00  0.00    +0.000 C 
BRANCH  24  29
ATOM     25  C   UNL     1       4.220   4.214  17.209  0.00  0.00    +0.000 A 
ATOM     26  C   UNL     1       3.074   3.428  17.001  0.00  0.00    +0.000 A 
ATOM     27  C   UNL     1       1.850   3.767  17.569  0.00  0.00    +0.000 A 
ATOM     28  C   UNL     1       1.747   4.916  18.340  0.00  0.00    +0.000 A 
ATOM     29  C   UNL     1       2.889   5.694  18.607  0.00  0.00    +0.000 A 
ATOM     30  C   UNL     1       4.152   5.303  18.097  0.00  0.00    +0.000 A 
BRANCH  25  31
ATOM     31  O   UNL     1       5.302   3.772  16.493  0.00  0.00    +0.000 OA
BRANCH  31  33
ATOM     32  C   UNL     1       6.882   4.600  14.850  0.00  0.00    +0.000 C 
ATOM     33  C   UNL     1       5.440   4.233  15.145  0.00  0.00    +0.000 C 
ENDBRANCH  31  33
ENDBRANCH  25  31
BRANCH  30  34
ATOM     34  O   UNL     1       5.203   6.083  18.510  0.00  0.00    +0.000 OA
BRANCH  34  35
ATOM     35  C   UNL     1       6.355   5.418  19.039  0.00  0.00    +0.000 C 
ATOM     36  C   UNL     1       7.663   5.999  18.542  0.00  0.00    +0.000 C 
ENDBRANCH  34  35
ENDBRANCH  30  34
ENDBRANCH  24  29
ENDBRANCH  20  24
ENDBRANCH   1  22
TORSDOF 9
ENDMDL
MODEL 2
REMARK VINA RESULT:      -7.9      7.106     11.533
REMARK  Name = 
REMARK  12 active torsions:
REMARK  status: ('A' for Active; 'I' for Inactive)
REMARK    1  A    between atoms: C_1  and  C_2
REMARK    2  A    between atoms: C_2  and  O_3
REMARK    3  A    between atoms: O_3  and  C_4
REMARK    4  A    between atoms: C_8  and  C_9
REMARK    5  A    between atoms: C_9  and  C_10
REMARK    6  A    between atoms: N_12  and  C_13
REMARK    7  A    between atoms: C_13  and  C_14
REMARK    8  A    between atoms: C_23  and  C_25
REMARK    9  A    between atoms: C_29  and  C_30
REMARK   10  A    between atoms: C_32  and  O_33
REMARK   11  A    between atoms: O_33  and  C_34
REMARK   12  A    between atoms: C_34  and  C_35
REMARK                            x       y       z     vdW  Elec       q    Type
REMARK                         _______ _______ _______ _____ _____    ______ ____
ROOT
ATOM      1  C   UNL     1       8.891   8.817  18.733  0.00  0.00    +0.000 C 
ENDROOT
BRANCH   1   2
ATOM      2  C   UNL     1       9.062  10.300  18.964  0.00  0.00    +0.000 A 
ATOM      3  C   UNL     1       9.127  10.810  20.283  0.00  0.00    +0.000 A 
ATOM      4  C   UNL     1       9.681  12.070  20.560  0.00  0.00    +0.000 A 
ATOM      5  C   UNL     1      10.160  12.811  19.494  0.00  0.00    +0.000 A 
ATOM      6  C   UNL     1       9.901  12.388  18.170  0.00  0.00    +0.000 A 
ATOM      7  C   UNL     1       9.356  11.142  17.882  0.00  0.00    +0.000 A 
ATOM      8  C   UNL     1      10.685  13.278  17.248  0.00  0.00    +0.000 C 
ATOM      9  C   UNL     1      11.928  13.311  18.131  0.00  0.00    +0.000 C 
ATOM     10  N   UNL     1      11.346  13.622  19.459  0.00  0.00    +0.000 N 
ATOM     11  C   UNL     1      11.385  14.991  19.745  0.00  0.00    +0.000 C 
ATOM     12  O   UNL     1      12.086  15.794  19.098  0.00  0.00    +0.000 OA
BRANCH  11  13
ATOM     13  C   UNL     1      10.567  15.572  20.803  0.00  0.00    +0.000 A 
ATOM     14  C   UNL     1      11.129  15.899  22.032  0.00  0.00    +0.000 A 
ATOM     15  C   UNL     1      10.318  16.457  23.016  0.00  0.00    +0.000 A 
ATOM     16  C   UNL     1       8.961  16.696  22.756  0.00  0.00    +0.000 A 
ATOM     17  C   UNL     1       8.411  16.421  21.501  0.00  0.00    +0.000 A 
ATOM     18  C   UNL     1       6.975  16.720  21.191  0.00  0.00    +0.000 C 
ATOM     19  C   UNL     1       9.234  15.882  20.511  0.00  0.00    +0.000 A 
ENDBRANCH  11  13
ENDBRANCH   1   2
BRANCH   1  22
ATOM     20  C   UNL     1       7.309   7.211  17.807  0.00  0.00    +0.000 C 
ATOM     21  O   UNL     1       7.640   6.331  18.608  0.00  0.00    +0.000 OA
ATOM     22  N   UNL     1       7.834   8.493  17.833  0.00  0.00    +0.000 N 
ATOM     23  H   UNL     1       7.601   9.131  17.080  0.00  0.00    +0.000 HD
BRANCH  20  24
ATOM     24  C   UNL     1       6.307   6.961  16.701  0.00  0.00    +0.000 C 
BRANCH  24  29
ATOM     25  C   UNL     1       3.435   4.543  17.468  0.00  0.00    +0.000 A 
ATOM     26  C   UNL     1       2.510   5.450  18.011  0.00  0.00    +0.000 A 
ATOM     27  C   UNL     1       2.816   6.800  18.151  0.00  0.00    +0.000 A 
ATOM     28  C   UNL     1       4.051   7.271  17.728  0.00  0.00    +0.000 A 
ATOM     29  C   UNL     1       5.015   6.376  17.228  0.00  0.00    +0.000 A 
ATOM     30  C   UNL     1       4.734   4.989  17.163  0.00  0.00    +0.000 A 
BRANCH  25  31
ATOM     31  O   UNL     1       2.917   3.282  17.324  0.00  0.00    +0.000 OA
BRANCH  31  33
ATOM     32  C   UNL     1       1.904   1.943  19.074  0.00  0.00    +0.000 C 
ATOM     33  C   UNL     1       3.184   2.330  18.359  0.00  0.00    +0.000 C 
ENDBRANCH  31  33
ENDBRANCH  25  31
BRANCH  30  34
ATOM     34  O   UNL     1       5.787   4.209  16.756  0.00  0.00    +0.000 OA
BRANCH  34  35
ATOM     35  C   UNL     1       5.703   3.601  15.464  0.00  0.00    +0.000 C 
ATOM     36  C   UNL     1       6.605   4.252  14.434  0.00  0.00    +0.000 C 
ENDBRANCH  34  35
ENDBRANCH  30  34
ENDBRANCH  24  29
ENDBRANCH  20  24
ENDBRANCH   1  22
TORSDOF 9
ENDMDL
MODEL 3
REMARK VINA RESULT:      -7.9      2.991      3.572
REMARK  Name = 
REMARK  12 active torsions:
REMARK  status: ('A' for Active; 'I' for Inactive)
REMARK    1  A    between atoms: C_1  and  C_2
REMARK    2  A    between atoms: C_2  and  O_3
REMARK    3  A    between atoms: O_3  and  C_4
REMARK    4  A    between atoms: C_8  and  C_9
REMARK    5  A    between atoms: C_9  and  C_10
REMARK    6  A    between atoms: N_12  and  C_13
REMARK    7  A    between atoms: C_13  and  C_14
REMARK    8  A    between atoms: C_23  and  C_25
REMARK    9  A    between atoms: C_29  and  C_30
REMARK   10  A    between atoms: C_32  and  O_33
REMARK   11  A    between atoms: O_33  and  C_34
REMARK   12  A    between atoms: C_34  and  C_35
REMARK                            x       y       z     vdW  Elec       q    Type
REMARK                         _______ _______ _______ _____ _____    ______ ____
ROOT
ATOM      1  C   UNL     1       1.347   8.722  21.273  0.00  0.00    +0.000 C 
ENDROOT
BRANCH   1   2
ATOM      2  C   UNL     1       0.146   9.633  21.393  0.00  0.00    +0.000 A 
ATOM      3  C   UNL     1      -0.546   9.735  22.623  0.00  0.00    +0.000 A 
ATOM      4  C   UNL     1      -1.377  10.829  22.913  0.00  0.00    +0.000 A 
ATOM      5  C   UNL     1      -1.507  11.811  21.946  0.00  0.00    +0.000 A 
ATOM      6  C   UNL     1      -0.985  11.597  20.650  0.00  0.00    +0.000 A 
ATOM      7  C   UNL     1      -0.159  10.520  20.352  0.00  0.00    +0.000 A 
ATOM      8  C   UNL     1      -1.118  12.885  19.889  0.00  0.00    +0.000 C 
ATOM      9  C   UNL     1      -0.718  13.770  21.065  0.00  0.00    +0.000 C 
ATOM     10  N   UNL     1      -1.574  13.232  22.150  0.00  0.00    +0.000 N 
ATOM     11  C   UNL     1      -2.759  13.962  22.299  0.00  0.00    +0.000 C 
ATOM     12  O   UNL     1      -2.925  15.087  21.787  0.00  0.00    +0.000 OA
BRANCH  11  13
ATOM     13  C   UNL     1      -3.897  13.425  23.035  0.00  0.00    +0.000 A 
ATOM     14  C   UNL     1      -3.750  13.000  24.351  0.00  0.00    +0.000 A 
ATOM     15  C   UNL     1      -4.861  12.498  25.024  0.00  0.00    +0.000 A 
ATOM     16  C   UNL     1      -6.106  12.442  24.381  0.00  0.00    +0.000 A 
ATOM     17  C   UNL     1      -6.264  12.924  23.078  0.00  0.00    +0.000 A 
ATOM     18  C   UNL     1      -7.600  12.919  22.397  0.00  0.00    +0.000 C 
ATOM     19  C   UNL     1      -5.152  13.446  22.416  0.00  0.00    +0.000 A 
ENDBRANCH  11  13
ENDBRANCH   1   2
BRANCH   1  22
ATOM     20  C   UNL     1       2.226   7.217  19.570  0.00  0.00    +0.000 C 
ATOM     21  O   UNL     1       2.244   6.254  20.343  0.00  0.00    +0.000 OA
ATOM     22  N   UNL     1       1.741   8.465  19.927  0.00  0.00    +0.000 N 
ATOM     23  H   UNL     1       1.857   9.237  19.280  0.00  0.00    +0.000 HD
BRANCH  20  24
ATOM     24  C   UNL     1       2.755   7.127  18.155  0.00  0.00    +0.000 C 
BRANCH  24  29
ATOM     25  C   UNL     1       4.609   4.099  16.712  0.00  0.00    +0.000 A 
ATOM     26  C   UNL     1       3.629   3.113  16.911  0.00  0.00    +0.000 A 
ATOM     27  C   UNL     1       2.414   3.412  17.519  0.00  0.00    +0.000 A 
ATOM     28  C   UNL     1       2.150   4.714  17.921  0.00  0.00    +0.000 A 
ATOM     29  C   UNL     1       3.134   5.710  17.781  0.00  0.00    +0.000 A 
ATOM     30  C   UNL     1       4.402   5.388  17.237  0.00  0.00    +0.000 A 
BRANCH  25  31
ATOM     31  O   UNL     1       5.693   3.634  16.014  0.00  0.00    +0.000 OA
BRANCH  31  33
ATOM     32  C   UNL     1       7.138   4.835  14.480  0.00  0.00    +0.000 C 
ATOM     33  C   UNL     1       5.844   4.063  14.656  0.00  0.00    +0.000 C 
ENDBRANCH  31  33
ENDBRANCH  25  31
BRANCH  30  34
ATOM     34  O   UNL     1       5.309   6.418  17.247  0.00  0.00    +0.000 OA
BRANCH  34  35
ATOM     35  C   UNL     1       6.530   6.220  17.967  0.00  0.00    +0.000 C 
ATOM     36  C   UNL     1       7.599   7.239  17.626  0.00  0.00    +0.000 C 
ENDBRANCH  34  35
ENDBRANCH  30  34
ENDBRANCH  24  29
ENDBRANCH  20  24
ENDBRANCH   1  22
TORSDOF 9
ENDMDL
MODEL 4
REMARK VINA RESULT:      -7.9      7.231     11.794
REMARK  Name = 
REMARK  12 active torsions:
REMARK  status: ('A' for Active; 'I' for Inactive)
REMARK    1  A    between atoms: C_1  and  C_2
REMARK    2  A    between atoms: C_2  and  O_3
REMARK    3  A    between atoms: O_3  and  C_4
REMARK    4  A    between atoms: C_8  and  C_9
REMARK    5  A    between atoms: C_9  and  C_10
REMARK    6  A    between atoms: N_12  and  C_13
REMARK    7  A    between atoms: C_13  and  C_14
REMARK    8  A    between atoms: C_23  and  C_25
REMARK    9  A    between atoms: C_29  and  C_30
REMARK   10  A    between atoms: C_32  and  O_33
REMARK   11  A    between atoms: O_33  and  C_34
REMARK   12  A    between atoms: C_34  and  C_35
REMARK                            x       y       z     vdW  Elec       q    Type
REMARK                         _______ _______ _______ _____ _____    ______ ____
ROOT
ATOM      1  C   UNL     1       8.952   8.918  18.884  0.00  0.00    +0.000 C 
ENDROOT
BRANCH   1   2
ATOM      2  C   UNL     1       9.134  10.410  19.036  0.00  0.00    +0.000 A 
ATOM      3  C   UNL     1       9.192  10.990  20.325  0.00  0.00    +0.000 A 
ATOM      4  C   UNL     1       9.755  12.259  20.539  0.00  0.00    +0.000 A 
ATOM      5  C   UNL     1      10.249  12.937  19.438  0.00  0.00    +0.000 A 
ATOM      6  C   UNL     1       9.996  12.445  18.136  0.00  0.00    +0.000 A 
ATOM      7  C   UNL     1       9.443  11.190  17.912  0.00  0.00    +0.000 A 
ATOM      8  C   UNL     1      10.794  13.277  17.174  0.00  0.00    +0.000 C 
ATOM      9  C   UNL     1      12.031  13.349  18.064  0.00  0.00    +0.000 C 
ATOM     10  N   UNL     1      11.441  13.735  19.368  0.00  0.00    +0.000 N 
ATOM     11  C   UNL     1      11.490  15.118  19.581  0.00  0.00    +0.000 C 
ATOM     12  O   UNL     1      12.202  15.879  18.896  0.00  0.00    +0.000 OA
BRANCH  11  13
ATOM     13  C   UNL     1      10.668  15.761  20.599  0.00  0.00    +0.000 A 
ATOM     14  C   UNL     1       9.373  16.174  20.304  0.00  0.00    +0.000 A 
ATOM     15  C   UNL     1       8.616  16.779  21.303  0.00  0.00    +0.000 A 
ATOM     16  C   UNL     1       9.155  16.951  22.586  0.00  0.00    +0.000 A 
ATOM     17  C   UNL     1      10.435  16.483  22.896  0.00  0.00    +0.000 A 
ATOM     18  C   UNL     1      11.003  16.612  24.278  0.00  0.00    +0.000 C 
ATOM     19  C   UNL     1      11.181  15.857  21.897  0.00  0.00    +0.000 A 
ENDBRANCH  11  13
ENDBRANCH   1   2
BRANCH   1  22
ATOM     20  C   UNL     1       7.477   7.251  17.889  0.00  0.00    +0.000 C 
ATOM     21  O   UNL     1       7.810   6.383  18.702  0.00  0.00    +0.000 OA
ATOM     22  N   UNL     1       7.948   8.554  17.939  0.00  0.00    +0.000 N 
ATOM     23  H   UNL     1       7.720   9.184  17.178  0.00  0.00    +0.000 HD
BRANCH  20  24
ATOM     24  C   UNL     1       6.534   6.964  16.741  0.00  0.00    +0.000 C 
BRANCH  24  29
ATOM     25  C   UNL     1       3.640   4.531  17.368  0.00  0.00    +0.000 A 
ATOM     26  C   UNL     1       2.700   5.426  17.907  0.00  0.00    +0.000 A 
ATOM     27  C   UNL     1       3.003   6.772  18.089  0.00  0.00    +0.000 A 
ATOM     28  C   UNL     1       4.250   7.251  17.712  0.00  0.00    +0.000 A 
ATOM     29  C   UNL     1       5.227   6.368  17.218  0.00  0.00    +0.000 A 
ATOM     30  C   UNL     1       4.947   4.983  17.110  0.00  0.00    +0.000 A 
BRANCH  25  31
ATOM     31  O   UNL     1       3.125   3.275  17.178  0.00  0.00    +0.000 OA
BRANCH  31  33
ATOM     32  C   UNL     1       3.611   1.358  18.581  0.00  0.00    +0.000 C 
ATOM     33  C   UNL     1       2.703   2.547  18.336  0.00  0.00    +0.000 C 
ENDBRANCH  31  33
ENDBRANCH  25  31
BRANCH  30  34
ATOM     34  O   UNL     1       6.011   4.212  16.714  0.00  0.00    +0.000 OA
BRANCH  34  35
ATOM     35  C   UNL     1       5.889   3.495  15.482  0.00  0.00    +0.000 C 
ATOM     36  C   UNL     1       5.617   4.392  14.290  0.00  0.00    +0.000 C 
ENDBRANCH  34  35
ENDBRANCH  30  34
ENDBRANCH  24  29
ENDBRANCH  20  24
ENDBRANCH   1  22
TORSDOF 9
ENDMDL
MODEL 5
REMARK VINA RESULT:      -7.8      1.501      2.266
REMARK  Name = 
REMARK  12 active torsions:
REMARK  status: ('A' for Active; 'I' for Inactive)
REMARK    1  A    between atoms: C_1  and  C_2
REMARK    2  A    between atoms: C_2  and  O_3
REMARK    3  A    between atoms: O_3  and  C_4
REMARK    4  A    between atoms: C_8  and  C_9
REMARK    5  A    between atoms: C_9  and  C_10
REMARK    6  A    between atoms: N_12  and  C_13
REMARK    7  A    between atoms: C_13  and  C_14
REMARK    8  A    between atoms: C_23  and  C_25
REMARK    9  A    between atoms: C_29  and  C_30
REMARK   10  A    between atoms: C_32  and  O_33
REMARK   11  A    between atoms: O_33  and  C_34
REMARK   12  A    between atoms: C_34  and  C_35
REMARK                            x       y       z     vdW  Elec       q    Type
REMARK                         _______ _______ _______ _____ _____    ______ ____
ROOT
ATOM      1  C   UNL     1       1.249  10.397  18.658  0.00  0.00    +0.000 C 
ENDROOT
BRANCH   1   2
ATOM      2  C   UNL     1      -0.262  10.436  18.688  0.00  0.00    +0.000 A 
ATOM      3  C   UNL     1      -0.931  11.316  19.571  0.00  0.00    +0.000 A 
ATOM      4  C   UNL     1      -2.268  11.692  19.364  0.00  0.00    +0.000 A 
ATOM      5  C   UNL     1      -2.922  11.163  18.265  0.00  0.00    +0.000 A 
ATOM      6  C   UNL     1      -2.317  10.128  17.516  0.00  0.00    +0.000 A 
ATOM      7  C   UNL     1      -0.994   9.750  17.708  0.00  0.00    +0.000 A 
ATOM      8  C   UNL     1      -3.169   9.889  16.303  0.00  0.00    +0.000 C 
ATOM      9  C   UNL     1      -3.445  11.367  16.047  0.00  0.00    +0.000 C 
ATOM     10  N   UNL     1      -3.848  11.835  17.396  0.00  0.00    +0.000 N 
ATOM     11  C   UNL     1      -5.238  11.839  17.559  0.00  0.00    +0.000 C 
ATOM     12  O   UNL     1      -6.029  11.747  16.599  0.00  0.00    +0.000 OA
BRANCH  11  13
ATOM     13  C   UNL     1      -5.849  11.910  18.881  0.00  0.00    +0.000 A 
ATOM     14  C   UNL     1      -6.575  10.834  19.381  0.00  0.00    +0.000 A 
ATOM     15  C   UNL     1      -7.139  10.935  20.650  0.00  0.00    +0.000 A 
ATOM     16  C   UNL     1      -6.959  12.101  21.408  0.00  0.00    +0.000 A 
ATOM     17  C   UNL     1      -6.181  13.158  20.927  0.00  0.00    +0.000 A 
ATOM     18  C   UNL     1      -5.936  14.389  21.748  0.00  0.00    +0.000 C 
ATOM     19  C   UNL     1      -5.599  13.042  19.664  0.00  0.00    +0.000 A 
ENDBRANCH  11  13
ENDBRANCH   1   2
BRANCH   1  22
ATOM     20  C   UNL     1       2.257   8.181  18.536  0.00  0.00    +0.000 C 
ATOM     21  O   UNL     1       2.154   8.001  19.754  0.00  0.00    +0.000 OA
ATOM     22  N   UNL     1       1.781   9.315  17.897  0.00  0.00    +0.000 N 
ATOM     23  H   UNL     1       1.996   9.447  16.915  0.00  0.00    +0.000 HD
BRANCH  20  24
ATOM     24  C   UNL     1       2.937   7.181  17.626  0.00  0.00    +0.000 C 
BRANCH  24  29
ATOM     25  C   UNL     1       3.937   3.805  19.137  0.00  0.00    +0.000 A 
ATOM     26  C   UNL     1       2.732   3.106  18.956  0.00  0.00    +0.000 A 
ATOM     27  C   UNL     1       1.619   3.716  18.388  0.00  0.00    +0.000 A 
ATOM     28  C   UNL     1       1.700   5.037  17.969  0.00  0.00    +0.000 A 
ATOM     29  C   UNL     1       2.878   5.775  18.184  0.00  0.00    +0.000 A 
ATOM     30  C   UNL     1       3.984   5.178  18.838  0.00  0.00    +0.000 A 
BRANCH  25  31
ATOM     31  O   UNL     1       4.942   3.008  19.622  0.00  0.00    +0.000 OA
BRANCH  31  33
ATOM     32  C   UNL     1       5.184   1.138  21.146  0.00  0.00    +0.000 C 
ATOM     33  C   UNL     1       4.658   1.618  19.808  0.00  0.00    +0.000 C 
ENDBRANCH  31  33
ENDBRANCH  25  31
BRANCH  30  34
ATOM     34  O   UNL     1       5.034   6.028  19.082  0.00  0.00    +0.000 OA
BRANCH  34  35
ATOM     35  C   UNL     1       6.231   5.840  18.322  0.00  0.00    +0.000 C 
ATOM     36  C   UNL     1       7.478   5.751  19.179  0.00  0.00    +0.000 C 
ENDBRANCH  34  35
ENDBRANCH  30  34
ENDBRANCH  24  29
ENDBRANCH  20  24
ENDBRANCH   1  22
TORSDOF 9
ENDMDL
MODEL 6
REMARK VINA RESULT:      -7.8      4.485     11.200
REMARK  Name = 
REMARK  12 active torsions:
REMARK  status: ('A' for Active; 'I' for Inactive)
REMARK    1  A    between atoms: C_1  and  C_2
REMARK    2  A    between atoms: C_2  and  O_3
REMARK    3  A    between atoms: O_3  and  C_4
REMARK    4  A    between atoms: C_8  and  C_9
REMARK    5  A    between atoms: C_9  and  C_10
REMARK    6  A    between atoms: N_12  and  C_13
REMARK    7  A    between atoms: C_13  and  C_14
REMARK    8  A    between atoms: C_23  and  C_25
REMARK    9  A    between atoms: C_29  and  C_30
REMARK   10  A    between atoms: C_32  and  O_33
REMARK   11  A    between atoms: O_33  and  C_34
REMARK   12  A    between atoms: C_34  and  C_35
REMARK                            x       y       z     vdW  Elec       q    Type
REMARK                         _______ _______ _______ _____ _____    ______ ____
ROOT
ATOM      1  C   UNL     1       3.204   3.253  20.040  0.00  0.00    +0.000 C 
ENDROOT
BRANCH   1   2
ATOM      2  C   UNL     1       4.002   3.271  18.757  0.00  0.00    +0.000 A 
ATOM      3  C   UNL     1       3.337   3.284  17.508  0.00  0.00    +0.000 A 
ATOM      4  C   UNL     1       3.981   3.707  16.334  0.00  0.00    +0.000 A 
ATOM      5  C   UNL     1       5.302   4.108  16.433  0.00  0.00    +0.000 A 
ATOM      6  C   UNL     1       6.015   3.891  17.635  0.00  0.00    +0.000 A 
ATOM      7  C   UNL     1       5.389   3.476  18.804  0.00  0.00    +0.000 A 
ATOM      8  C   UNL     1       7.343   4.579  17.504  0.00  0.00    +0.000 C 
ATOM      9  C   UNL     1       6.779   5.814  16.808  0.00  0.00    +0.000 C 
ATOM     10  N   UNL     1       5.934   5.204  15.753  0.00  0.00    +0.000 N 
ATOM     11  C   UNL     1       6.607   5.104  14.530  0.00  0.00    +0.000 C 
ATOM     12  O   UNL     1       7.666   5.718  14.292  0.00  0.00    +0.000 OA
BRANCH  11  13
ATOM     13  C   UNL     1       6.126   4.231  13.465  0.00  0.00    +0.000 A 
ATOM     14  C   UNL     1       4.778   4.211  13.123  0.00  0.00    +0.000 A 
ATOM     15  C   UNL     1       4.356   3.370  12.098  0.00  0.00    +0.000 A 
ATOM     16  C   UNL     1       5.287   2.571  11.417  0.00  0.00    +0.000 A 
ATOM     17  C   UNL     1       6.648   2.635  11.723  0.00  0.00    +0.000 A 
ATOM     18  C   UNL     1       7.661   1.826  10.968  0.00  0.00    +0.000 C 
ATOM     19  C   UNL     1       7.069   3.497  12.737  0.00  0.00    +0.000 A 
ENDBRANCH  11  13
ENDBRANCH   1   2
BRANCH   1  22
ATOM     20  C   UNL     1       1.746   5.138  20.550  0.00  0.00    +0.000 C 
ATOM     21  O   UNL     1       0.746   4.560  20.114  0.00  0.00    +0.000 OA
ATOM     22  N   UNL     1       2.997   4.544  20.607  0.00  0.00    +0.000 N 
ATOM     23  H   UNL     1       3.794   5.112  20.873  0.00  0.00    +0.000 HD
BRANCH  20  24
ATOM     24  C   UNL     1       1.702   6.567  21.045  0.00  0.00    +0.000 C 
BRANCH  24  29
ATOM     25  C   UNL     1       1.084   9.497  18.653  0.00  0.00    +0.000 A 
ATOM     26  C   UNL     1       2.040   9.195  17.669  0.00  0.00    +0.000 A 
ATOM     27  C   UNL     1       2.880   8.093  17.788  0.00  0.00    +0.000 A 
ATOM     28  C   UNL     1       2.761   7.257  18.890  0.00  0.00    +0.000 A 
ATOM     29  C   UNL     1       1.848   7.563  19.915  0.00  0.00    +0.000 A 
ATOM     30  C   UNL     1       1.050   8.731  19.833  0.00  0.00    +0.000 A 
BRANCH  25  31
ATOM     31  O   UNL     1       0.291  10.561  18.311  0.00  0.00    +0.000 OA
BRANCH  31  33
ATOM     32  C   UNL     1      -0.712  12.525  19.320  0.00  0.00    +0.000 C 
ATOM     33  C   UNL     1       0.572  11.824  18.922  0.00  0.00    +0.000 C 
ENDBRANCH  31  33
ENDBRANCH  25  31
BRANCH  30  34
ATOM     34  O   UNL     1       0.275   8.976  20.939  0.00  0.00    +0.000 OA
BRANCH  34  35
ATOM     35  C   UNL     1       0.894   9.626  22.053  0.00  0.00    +0.000 C 
ATOM     36  C   UNL     1       0.048   9.599  23.310  0.00  0.00    +0.000 C 
ENDBRANCH  34  35
ENDBRANCH  30  34
ENDBRANCH  24  29
ENDBRANCH  20  24
ENDBRANCH   1  22
TORSDOF 9
ENDMDL
MODEL 7
REMARK VINA RESULT:      -7.7      3.248      4.316
REMARK  Name = 
REMARK  12 active torsions:
REMARK  status: ('A' for Active; 'I' for Inactive)
REMARK    1  A    between atoms: C_1  and  C_2
REMARK    2  A    between atoms: C_2  and  O_3
REMARK    3  A    between atoms: O_3  and  C_4
REMARK    4  A    between atoms: C_8  and  C_9
REMARK    5  A    between atoms: C_9  and  C_10
REMARK    6  A    between atoms: N_12  and  C_13
REMARK    7  A    between atoms: C_13  and  C_14
REMARK    8  A    between atoms: C_23  and  C_25
REMARK    9  A    between atoms: C_29  and  C_30
REMARK   10  A    between atoms: C_32  and  O_33
REMARK   11  A    between atoms: O_33  and  C_34
REMARK   12  A    between atoms: C_34  and  C_35
REMARK                            x       y       z     vdW  Elec       q    Type
REMARK                         _______ _______ _______ _____ _____    ______ ____
ROOT
ATOM      1  C   UNL     1       1.441   7.666  21.331  0.00  0.00    +0.000 C 
ENDROOT
BRANCH   1   2
ATOM      2  C   UNL     1       0.498   8.847  21.346  0.00  0.00    +0.000 A 
ATOM      3  C   UNL     1      -0.171   9.205  22.540  0.00  0.00    +0.000 A 
ATOM      4  C   UNL     1      -0.714  10.486  22.726  0.00  0.00    +0.000 A 
ATOM      5  C   UNL     1      -0.581  11.397  21.692  0.00  0.00    +0.000 A 
ATOM      6  C   UNL     1      -0.102  10.968  20.433  0.00  0.00    +0.000 A 
ATOM      7  C   UNL     1       0.441   9.704  20.237  0.00  0.00    +0.000 A 
ATOM      8  C   UNL     1       0.100  12.191  19.584  0.00  0.00    +0.000 C 
ATOM      9  C   UNL     1       0.681  13.035  20.713  0.00  0.00    +0.000 C 
ATOM     10  N   UNL     1      -0.301  12.803  21.800  0.00  0.00    +0.000 N 
ATOM     11  C   UNL     1      -1.273  13.808  21.857  0.00  0.00    +0.000 C 
ATOM     12  O   UNL     1      -1.148  14.899  21.265  0.00  0.00    +0.000 OA
BRANCH  11  13
ATOM     13  C   UNL     1      -2.522  13.619  22.584  0.00  0.00    +0.000 A 
ATOM     14  C   UNL     1      -2.585  13.857  23.953  0.00  0.00    +0.000 A 
ATOM     15  C   UNL     1      -3.797  13.672  24.613  0.00  0.00    +0.000 A 
ATOM     16  C   UNL     1      -4.933  13.267  23.896  0.00  0.00    +0.000 A 
ATOM     17  C   UNL     1      -4.881  13.085  22.512  0.00  0.00    +0.000 A 
ATOM     18  C   UNL     1      -6.100  12.704  21.725  0.00  0.00    +0.000 C 
ATOM     19  C   UNL     1      -3.670  13.294  21.852  0.00  0.00    +0.000 A 
ENDBRANCH  11  13
ENDBRANCH   1   2
BRANCH   1  22
ATOM     20  C   UNL     1       1.970   5.625  20.106  0.00  0.00    +0.000 C 
ATOM     21  O   UNL     1       2.587   5.141  21.060  0.00  0.00    +0.000 OA
ATOM     22  N   UNL     1       1.318   6.847  20.170  0.00  0.00    +0.000 N 
ATOM     23  H   UNL     1       0.926   7.235  19.319  0.00  0.00    +0.000 HD
BRANCH  20  24
ATOM     24  C   UNL     1       1.885   4.934  18.763  0.00  0.00    +0.000 C 
BRANCH  24  29
ATOM     25  C   UNL     1       4.952   4.553  16.498  0.00  0.00    +0.000 A 
ATOM     26  C   UNL     1       5.415   5.879  16.513  0.00  0.00    +0.000 A 
ATOM     27  C   UNL     1       4.739   6.874  17.211  0.00  0.00    +0.000 A 
ATOM     28  C   UNL     1       3.596   6.553  17.929  0.00  0.00    +0.000 A 
ATOM     29  C   UNL     1       3.082   5.243  17.890  0.00  0.00    +0.000 A 
ATOM     30  C   UNL     1       3.724   4.249  17.112  0.00  0.00    +0.000 A 
BRANCH  25  31
ATOM     31  O   UNL     1       5.802   3.704  15.837  0.00  0.00    +0.000 OA
BRANCH  31  33
ATOM     32  C   UNL     1       6.124   3.765  13.434  0.00  0.00    +0.000 C 
ATOM     33  C   UNL     1       6.606   4.252  14.787  0.00  0.00    +0.000 C 
ENDBRANCH  31  33
ENDBRANCH  25  31
BRANCH  30  34
ATOM     34  O   UNL     1       3.072   3.042  17.072  0.00  0.00    +0.000 OA
BRANCH  34  35
ATOM     35  C   UNL     1       3.578   1.986  17.893  0.00  0.00    +0.000 C 
ATOM     36  C   UNL     1       2.682   1.659  19.071  0.00  0.00    +0.000 C 
ENDBRANCH  34  35
ENDBRANCH  30  34
ENDBRANCH  24  29
ENDBRANCH  20  24
ENDBRANCH   1  22
TORSDOF 9
ENDMDL
MODEL 8
REMARK VINA RESULT:      -7.7      1.410      2.327
REMARK  Name = 
REMARK  12 active torsions:
REMARK  status: ('A' for Active; 'I' for Inactive)
REMARK    1  A    between atoms: C_1  and  C_2
REMARK    2  A    between atoms: C_2  and  O_3
REMARK    3  A    between atoms: O_3  and  C_4
REMARK    4  A    between atoms: C_8  and  C_9
REMARK    5  A    between atoms: C_9  and  C_10
REMARK    6  A    between atoms: N_12  and  C_13
REMARK    7  A    between atoms: C_13  and  C_14
REMARK    8  A    between atoms: C_23  and  C_25
REMARK    9  A    between atoms: C_29  and  C_30
REMARK   10  A    between atoms: C_32  and  O_33
REMARK   11  A    between atoms: O_33  and  C_34
REMARK   12  A    between atoms: C_34  and  C_35
REMARK                            x       y       z     vdW  Elec       q    Type
REMARK                         _______ _______ _______ _____ _____    ______ ____
ROOT
ATOM      1  C   UNL     1       1.747   9.487  18.074  0.00  0.00    +0.000 C 
ENDROOT
BRANCH   1   2
ATOM      2  C   UNL     1       0.266   9.747  18.232  0.00  0.00    +0.000 A 
ATOM      3  C   UNL     1      -0.192  10.682  19.190  0.00  0.00    +0.000 A 
ATOM      4  C   UNL     1      -1.470  11.258  19.107  0.00  0.00    +0.000 A 
ATOM      5  C   UNL     1      -2.280  10.874  18.053  0.00  0.00    +0.000 A 
ATOM      6  C   UNL     1      -1.898   9.791  17.229  0.00  0.00    +0.000 A 
ATOM      7  C   UNL     1      -0.635   9.214  17.299  0.00  0.00    +0.000 A 
ATOM      8  C   UNL     1      -2.870   9.726  16.085  0.00  0.00    +0.000 C 
ATOM      9  C   UNL     1      -2.940  11.238  15.892  0.00  0.00    +0.000 C 
ATOM     10  N   UNL     1      -3.161  11.708  17.281  0.00  0.00    +0.000 N 
ATOM     11  C   UNL     1      -4.517  11.911  17.561  0.00  0.00    +0.000 C 
ATOM     12  O   UNL     1      -5.386  11.973  16.669  0.00  0.00    +0.000 OA
BRANCH  11  13
ATOM     13  C   UNL     1      -5.004  12.020  18.931  0.00  0.00    +0.000 A 
ATOM     14  C   UNL     1      -4.378  12.868  19.837  0.00  0.00    +0.000 A 
ATOM     15  C   UNL     1      -4.875  12.951  21.135  0.00  0.00    +0.000 A 
ATOM     16  C   UNL     1      -5.998  12.198  21.507  0.00  0.00    +0.000 A 
ATOM     17  C   UNL     1      -6.660  11.390  20.578  0.00  0.00    +0.000 A 
ATOM     18  C   UNL     1      -7.894  10.621  20.947  0.00  0.00    +0.000 C 
ATOM     19  C   UNL     1      -6.172  11.329  19.273  0.00  0.00    +0.000 A 
ENDBRANCH  11  13
ENDBRANCH   1   2
BRANCH   1  22
ATOM     20  C   UNL     1       2.301   7.328  19.061  0.00  0.00    +0.000 C 
ATOM     21  O   UNL     1       2.130   7.743  20.212  0.00  0.00    +0.000 OA
ATOM     22  N   UNL     1       2.077   8.106  17.936  0.00  0.00    +0.000 N 
ATOM     23  H   UNL     1       2.341   7.739  17.029  0.00  0.00    +0.000 HD
BRANCH  20  24
ATOM     24  C   UNL     1       2.796   5.928  18.772  0.00  0.00    +0.000 C 
BRANCH  24  29
ATOM     25  C   UNL     1       5.485   4.816  16.280  0.00  0.00    +0.000 A 
ATOM     26  C   UNL     1       6.330   5.937  16.338  0.00  0.00    +0.000 A 
ATOM     27  C   UNL     1       6.026   7.033  17.139  0.00  0.00    +0.000 A 
ATOM     28  C   UNL     1       4.875   7.016  17.915  0.00  0.00    +0.000 A 
ATOM     29  C   UNL     1       3.985   5.929  17.837  0.00  0.00    +0.000 A 
ATOM     30  C   UNL     1       4.254   4.850  16.959  0.00  0.00    +0.000 A 
BRANCH  25  31
ATOM     31  O   UNL     1       6.002   3.804  15.513  0.00  0.00    +0.000 OA
BRANCH  31  33
ATOM     32  C   UNL     1       6.775   4.092  13.232  0.00  0.00    +0.000 C 
ATOM     33  C   UNL     1       5.610   3.744  14.137  0.00  0.00    +0.000 C 
ENDBRANCH  31  33
ENDBRANCH  25  31
BRANCH  30  34
ATOM     34  O   UNL     1       3.263   3.902  16.895  0.00  0.00    +0.000 OA
BRANCH  34  35
ATOM     35  C   UNL     1       3.455   2.691  17.631  0.00  0.00    +0.000 C 
ATOM     36  C   UNL     1       2.194   2.197  18.313  0.00  0.00    +0.000 C 
ENDBRANCH  34  35
ENDBRANCH  30  34
ENDBRANCH  24  29
ENDBRANCH  20  24
ENDBRANCH   1  22
TORSDOF 9
ENDMDL
MODEL 9
REMARK VINA RESULT:      -7.6      3.160      4.204
REMARK  Name = 
REMARK  12 active torsions:
REMARK  status: ('A' for Active; 'I' for Inactive)
REMARK    1  A    between atoms: C_1  and  C_2
REMARK    2  A    between atoms: C_2  and  O_3
REMARK    3  A    between atoms: O_3  and  C_4
REMARK    4  A    between atoms: C_8  and  C_9
REMARK    5  A    between atoms: C_9  and  C_10
REMARK    6  A    between atoms: N_12  and  C_13
REMARK    7  A    between atoms: C_13  and  C_14
REMARK    8  A    between atoms: C_23  and  C_25
REMARK    9  A    between atoms: C_29  and  C_30
REMARK   10  A    between atoms: C_32  and  O_33
REMARK   11  A    between atoms: O_33  and  C_34
REMARK   12  A    between atoms: C_34  and  C_35
REMARK                            x       y       z     vdW  Elec       q    Type
REMARK                         _______ _______ _______ _____ _____    ______ ____
ROOT
ATOM      1  C   UNL     1       1.520   7.457  21.273  0.00  0.00    +0.000 C 
ENDROOT
BRANCH   1   2
ATOM      2  C   UNL     1       0.587   8.646  21.269  0.00  0.00    +0.000 A 
ATOM      3  C   UNL     1      -0.163   8.963  22.427  0.00  0.00    +0.000 A 
ATOM      4  C   UNL     1      -0.709  10.242  22.625  0.00  0.00    +0.000 A 
ATOM      5  C   UNL     1      -0.496  11.191  21.641  0.00  0.00    +0.000 A 
ATOM      6  C   UNL     1       0.067  10.808  20.402  0.00  0.00    +0.000 A 
ATOM      7  C   UNL     1       0.613   9.547  20.195  0.00  0.00    +0.000 A 
ATOM      8  C   UNL     1       0.336  12.060  19.619  0.00  0.00    +0.000 C 
ATOM      9  C   UNL     1       0.843  12.854  20.819  0.00  0.00    +0.000 C 
ATOM     10  N   UNL     1      -0.216  12.589  21.824  0.00  0.00    +0.000 N 
ATOM     11  C   UNL     1      -1.182  13.600  21.852  0.00  0.00    +0.000 C 
ATOM     12  O   UNL     1      -1.008  14.712  21.316  0.00  0.00    +0.000 OA
BRANCH  11  13
ATOM     13  C   UNL     1      -2.481  13.395  22.482  0.00  0.00    +0.000 A 
ATOM     14  C   UNL     1      -2.629  13.537  23.858  0.00  0.00    +0.000 A 
ATOM     15  C   UNL     1      -3.885  13.339  24.423  0.00  0.00    +0.000 A 
ATOM     16  C   UNL     1      -4.980  13.018  23.608  0.00  0.00    +0.000 A 
ATOM     17  C   UNL     1      -4.841  12.933  22.220  0.00  0.00    +0.000 A 
ATOM     18  C   UNL     1      -6.014  12.643  21.331  0.00  0.00    +0.000 C 
ATOM     19  C   UNL     1      -3.584  13.154  21.656  0.00  0.00    +0.000 A 
ENDBRANCH  11  13
ENDBRANCH   1   2
BRANCH   1  22
ATOM     20  C   UNL     1       1.567   5.092  20.687  0.00  0.00    +0.000 C 
ATOM     21  O   UNL     1       2.333   4.815  21.615  0.00  0.00    +0.000 OA
ATOM     22  N   UNL     1       1.064   6.366  20.476  0.00  0.00    +0.000 N 
ATOM     23  H   UNL     1       0.529   6.546  19.634  0.00  0.00    +0.000 HD
BRANCH  20  24
ATOM     24  C   UNL     1       1.120   4.061  19.674  0.00  0.00    +0.000 C 
BRANCH  24  29
ATOM     25  C   UNL     1       3.868   3.630  17.039  0.00  0.00    +0.000 A 
ATOM     26  C   UNL     1       4.246   2.305  17.315  0.00  0.00    +0.000 A 
ATOM     27  C   UNL     1       3.649   1.581  18.342  0.00  0.00    +0.000 A 
ATOM     28  C   UNL     1       2.644   2.166  19.099  0.00  0.00    +0.000 A 
ATOM     29  C   UNL     1       2.282   3.508  18.878  0.00  0.00    +0.000 A 
ATOM     30  C   UNL     1       2.947   4.271  17.887  0.00  0.00    +0.000 A 
BRANCH  25  31
ATOM     31  O   UNL     1       4.500   4.140  15.934  0.00  0.00    +0.000 OA
BRANCH  31  33
ATOM     32  C   UNL     1       6.796   4.863  16.227  0.00  0.00    +0.000 C 
ATOM     33  C   UNL     1       5.868   3.776  15.722  0.00  0.00    +0.000 C 
ENDBRANCH  31  33
ENDBRANCH  25  31
BRANCH  30  34
ATOM     34  O   UNL     1       2.578   5.592  17.836  0.00  0.00    +0.000 OA
BRANCH  34  35
ATOM     35  C   UNL     1       3.613   6.575  17.935  0.00  0.00    +0.000 C 
ATOM     36  C   UNL     1       3.101   7.998  17.830  0.00  0.00    +0.000 C 
ENDBRANCH  34  35
ENDBRANCH  30  34
ENDBRANCH  24  29
ENDBRANCH  20  24
ENDBRANCH   1  22
TORSDOF 9
ENDMDL
