MODEL 1
REMARK VINA RESULT:      -6.2      0.000      0.000
REMARK  Name = 
REMARK  8 active torsions:
REMARK  status: ('A' for Active; 'I' for Inactive)
REMARK    1  A    between atoms: C_2  and  O_3
REMARK    2  A    between atoms: C_2  and  C_4
REMARK    3  A    between atoms: C_4  and  O_5
REMARK    4  A    between atoms: C_4  and  C_6
REMARK    5  A    between atoms: C_6  and  O_7
REMARK    6  A    between atoms: C_6  and  C_8
REMARK    7  A    between atoms: C_8  and  O_10
REMARK    8  A    between atoms: O_10  and  C_11
REMARK                            x       y       z     vdW  Elec       q    Type
REMARK                         _______ _______ _______ _____ _____    ______ ____
ROOT
ATOM      1  C   UNL     1       5.972   5.447  17.246  0.00  0.00    +0.000 C 
ENDROOT
BRANCH   1   2
ATOM      2  O   UNL     1       4.981   5.917  16.311  0.00  0.00    +0.000 OA
ATOM      3  H   UNL     1       4.232   5.285  16.370  0.00  0.00    +0.000 HD
ENDBRANCH   1   2
BRANCH   1   4
ATOM      4  C   UNL     1       5.325   4.925  18.524  0.00  0.00    +0.000 C 
ATOM      5  O   UNL     1       5.916   4.225  19.338  0.00  0.00    +0.000 OA
BRANCH   4   6
ATOM      6  O   UNL     1       4.006   5.346  18.593  0.00  0.00    +0.000 OA
BRANCH   6   7
ATOM      7  C   UNL     1       2.993   4.411  18.858  0.00  0.00    +0.000 A 
ATOM      8  C   UNL     1       2.099   4.495  19.922  0.00  0.00    +0.000 A 
ATOM      9  C   UNL     1       1.019   3.617  19.962  0.00  0.00    +0.000 A 
ATOM     10  C   UNL     1       0.880   2.690  18.943  0.00  0.00    +0.000 A 
ATOM     11  N   UNL     1       1.741   2.571  17.908  0.00  0.00    +0.000 NA
ATOM     12  C   UNL     1       2.777   3.442  17.887  0.00  0.00    +0.000 A 
ENDBRANCH   6   7
ENDBRANCH   4   6
ENDBRANCH   1   4
BRANCH   1  13
ATOM     13  C   UNL     1       6.747   4.311  16.579  0.00  0.00    +0.000 C 
BRANCH  13  15
ATOM     14  O   UNL     1       6.237   3.821  14.272  0.00  0.00    +0.000 OA
ATOM     15  C   UNL     1       6.858   4.521  15.068  0.00  0.00    +0.000 C 
BRANCH  15  16
ATOM     16  O   UNL     1       7.659   5.528  14.668  0.00  0.00    +0.000 OA
ATOM     17  H   UNL     1       7.552   6.356  15.199  0.00  0.00    +0.000 HD
ENDBRANCH  15  16
ENDBRANCH  13  15
BRANCH  13  18
ATOM     18  O   UNL     1       8.055   4.197  17.141  0.00  0.00    +0.000 OA
ATOM     19  H   UNL     1       8.417   3.322  16.885  0.00  0.00    +0.000 HD
ENDBRANCH  13  18
ENDBRANCH   1  13
TORSDOF 8
ENDMDL
MODEL 2
REMARK VINA RESULT:      -6.1      1.551      2.544
REMARK  Name = 
REMARK  8 active torsions:
REMARK  status: ('A' for Active; 'I' for Inactive)
REMARK    1  A    between atoms: C_2  and  O_3
REMARK    2  A    between atoms: C_2  and  C_4
REMARK    3  A    between atoms: C_4  and  O_5
REMARK    4  A    between atoms: C_4  and  C_6
REMARK    5  A    between atoms: C_6  and  O_7
REMARK    6  A    between atoms: C_6  and  C_8
REMARK    7  A    between atoms: C_8  and  O_10
REMARK    8  A    between atoms: O_10  and  C_11
REMARK                            x       y       z     vdW  Elec       q    Type
REMARK                         _______ _______ _______ _____ _____    ______ ____
ROOT
ATOM      1  C   UNL     1       5.448   4.805  16.295  0.00  0.00    +0.000 C 
ENDROOT
BRANCH   1   2
ATOM      2  O   UNL     1       5.902   3.442  16.194  0.00  0.00    +0.000 OA
ATOM      3  H   UNL     1       5.154   2.883  16.496  0.00  0.00    +0.000 HD
ENDBRANCH   1   2
BRANCH   1   4
ATOM      4  C   UNL     1       4.211   4.913  17.181  0.00  0.00    +0.000 C 
ATOM      5  O   UNL     1       3.725   5.982  17.529  0.00  0.00    +0.000 OA
BRANCH   4   6
ATOM      6  O   UNL     1       3.762   3.646  17.523  0.00  0.00    +0.000 OA
BRANCH   6   7
ATOM      7  C   UNL     1       2.919   3.486  18.634  0.00  0.00    +0.000 A 
ATOM      8  C   UNL     1       1.529   3.544  18.586  0.00  0.00    +0.000 A 
ATOM      9  C   UNL     1       0.803   3.173  19.714  0.00  0.00    +0.000 A 
ATOM     10  C   UNL     1       1.493   2.765  20.844  0.00  0.00    +0.000 A 
ATOM     11  N   UNL     1       2.841   2.717  20.927  0.00  0.00    +0.000 NA
ATOM     12  C   UNL     1       3.524   3.073  19.814  0.00  0.00    +0.000 A 
ENDBRANCH   6   7
ENDBRANCH   4   6
ENDBRANCH   1   4
BRANCH   1  13
ATOM     13  C   UNL     1       6.575   5.633  16.912  0.00  0.00    +0.000 C 
BRANCH  13  15
ATOM     14  O   UNL     1       6.945   4.984  19.206  0.00  0.00    +0.000 OA
ATOM     15  C   UNL     1       7.283   4.868  18.031  0.00  0.00    +0.000 C 
BRANCH  15  16
ATOM     16  O   UNL     1       8.281   4.048  17.647  0.00  0.00    +0.000 OA
ATOM     17  H   UNL     1       7.967   3.202  17.242  0.00  0.00    +0.000 HD
ENDBRANCH  15  16
ENDBRANCH  13  15
BRANCH  13  18
ATOM     18  O   UNL     1       7.527   6.006  15.914  0.00  0.00    +0.000 OA
ATOM     19  H   UNL     1       8.390   6.148  16.360  0.00  0.00    +0.000 HD
ENDBRANCH  13  18
ENDBRANCH   1  13
TORSDOF 8
ENDMDL
MODEL 3
REMARK VINA RESULT:      -6.1      2.786      5.923
REMARK  Name = 
REMARK  8 active torsions:
REMARK  status: ('A' for Active; 'I' for Inactive)
REMARK    1  A    between atoms: C_2  and  O_3
REMARK    2  A    between atoms: C_2  and  C_4
REMARK    3  A    between atoms: C_4  and  O_5
REMARK    4  A    between atoms: C_4  and  C_6
REMARK    5  A    between atoms: C_6  and  O_7
REMARK    6  A    between atoms: C_6  and  C_8
REMARK    7  A    between atoms: C_8  and  O_10
REMARK    8  A    between atoms: O_10  and  C_11
REMARK                            x       y       z     vdW  Elec       q    Type
REMARK                         _______ _______ _______ _____ _____    ______ ____
ROOT
ATOM      1  C   UNL     1       3.186   4.389  19.589  0.00  0.00    +0.000 C 
ENDROOT
BRANCH   1   2
ATOM      2  O   UNL     1       2.992   5.448  20.546  0.00  0.00    +0.000 OA
ATOM      3  H   UNL     1       2.084   5.330  20.902  0.00  0.00    +0.000 HD
ENDBRANCH   1   2
BRANCH   1   4
ATOM      4  C   UNL     1       4.606   4.399  19.033  0.00  0.00    +0.000 C 
ATOM      5  O   UNL     1       5.504   3.691  19.471  0.00  0.00    +0.000 OA
BRANCH   4   6
ATOM      6  O   UNL     1       4.703   5.320  18.000  0.00  0.00    +0.000 OA
BRANCH   6   7
ATOM      7  C   UNL     1       5.486   5.017  16.875  0.00  0.00    +0.000 A 
ATOM      8  C   UNL     1       5.081   4.192  15.829  0.00  0.00    +0.000 A 
ATOM      9  C   UNL     1       5.865   4.130  14.680  0.00  0.00    +0.000 A 
ATOM     10  C   UNL     1       7.021   4.891  14.624  0.00  0.00    +0.000 A 
ATOM     11  N   UNL     1       7.450   5.686  15.629  0.00  0.00    +0.000 NA
ATOM     12  C   UNL     1       6.666   5.736  16.732  0.00  0.00    +0.000 A 
ENDBRANCH   6   7
ENDBRANCH   4   6
ENDBRANCH   1   4
BRANCH   1  13
ATOM     13  C   UNL     1       2.940   3.059  20.301  0.00  0.00    +0.000 C 
BRANCH  13  15
ATOM     14  O   UNL     1       1.481   2.564  22.158  0.00  0.00    +0.000 OA
ATOM     15  C   UNL     1       1.601   3.060  21.041  0.00  0.00    +0.000 C 
BRANCH  15  16
ATOM     16  O   UNL     1       0.574   3.654  20.402  0.00  0.00    +0.000 OA
ATOM     17  H   UNL     1       0.741   3.814  19.441  0.00  0.00    +0.000 HD
ENDBRANCH  15  16
ENDBRANCH  13  15
BRANCH  13  18
ATOM     18  O   UNL     1       2.968   1.977  19.369  0.00  0.00    +0.000 OA
ATOM     19  H   UNL     1       3.206   1.163  19.862  0.00  0.00    +0.000 HD
ENDBRANCH  13  18
ENDBRANCH   1  13
TORSDOF 8
ENDMDL
MODEL 4
REMARK VINA RESULT:      -6.0      1.673      2.232
REMARK  Name = 
REMARK  8 active torsions:
REMARK  status: ('A' for Active; 'I' for Inactive)
REMARK    1  A    between atoms: C_2  and  O_3
REMARK    2  A    between atoms: C_2  and  C_4
REMARK    3  A    between atoms: C_4  and  O_5
REMARK    4  A    between atoms: C_4  and  C_6
REMARK    5  A    between atoms: C_6  and  O_7
REMARK    6  A    between atoms: C_6  and  C_8
REMARK    7  A    between atoms: C_8  and  O_10
REMARK    8  A    between atoms: O_10  and  C_11
REMARK                            x       y       z     vdW  Elec       q    Type
REMARK                         _______ _______ _______ _____ _____    ______ ____
ROOT
ATOM      1  C   UNL     1       6.981   4.585  17.498  0.00  0.00    +0.000 C 
ENDROOT
BRANCH   1   2
ATOM      2  O   UNL     1       8.294   4.039  17.731  0.00  0.00    +0.000 OA
ATOM      3  H   UNL     1       8.203   3.428  18.493  0.00  0.00    +0.000 HD
ENDBRANCH   1   2
BRANCH   1   4
ATOM      4  C   UNL     1       6.409   5.211  18.765  0.00  0.00    +0.000 C 
ATOM      5  O   UNL     1       7.079   5.432  19.767  0.00  0.00    +0.000 OA
BRANCH   4   6
ATOM      6  O   UNL     1       5.054   5.460  18.600  0.00  0.00    +0.000 OA
BRANCH   6   7
ATOM      7  C   UNL     1       4.156   4.384  18.527  0.00  0.00    +0.000 A 
ATOM      8  C   UNL     1       3.233   4.194  17.503  0.00  0.00    +0.000 A 
ATOM      9  C   UNL     1       2.539   2.988  17.440  0.00  0.00    +0.000 A 
ATOM     10  C   UNL     1       2.793   2.025  18.403  0.00  0.00    +0.000 A 
ATOM     11  N   UNL     1       3.668   2.188  19.420  0.00  0.00    +0.000 NA
ATOM     12  C   UNL     1       4.336   3.365  19.454  0.00  0.00    +0.000 A 
ENDBRANCH   6   7
ENDBRANCH   4   6
ENDBRANCH   1   4
BRANCH   1  13
ATOM     13  C   UNL     1       7.102   5.663  16.421  0.00  0.00    +0.000 C 
BRANCH  13  15
ATOM     14  O   UNL     1       5.673   4.705  14.729  0.00  0.00    +0.000 OA
ATOM     15  C   UNL     1       5.897   5.651  15.479  0.00  0.00    +0.000 C 
BRANCH  15  16
ATOM     16  O   UNL     1       5.090   6.728  15.539  0.00  0.00    +0.000 OA
ATOM     17  H   UNL     1       4.296   6.600  16.115  0.00  0.00    +0.000 HD
ENDBRANCH  15  16
ENDBRANCH  13  15
BRANCH  13  18
ATOM     18  O   UNL     1       7.229   6.955  17.016  0.00  0.00    +0.000 OA
ATOM     19  H   UNL     1       6.729   6.947  17.860  0.00  0.00    +0.000 HD
ENDBRANCH  13  18
ENDBRANCH   1  13
TORSDOF 8
ENDMDL
MODEL 5
REMARK VINA RESULT:      -6.0      1.075      1.619
REMARK  Name = 
REMARK  8 active torsions:
REMARK  status: ('A' for Active; 'I' for Inactive)
REMARK    1  A    between atoms: C_2  and  O_3
REMARK    2  A    between atoms: C_2  and  C_4
REMARK    3  A    between atoms: C_4  and  O_5
REMARK    4  A    between atoms: C_4  and  C_6
REMARK    5  A    between atoms: C_6  and  O_7
REMARK    6  A    between atoms: C_6  and  C_8
REMARK    7  A    between atoms: C_8  and  O_10
REMARK    8  A    between atoms: O_10  and  C_11
REMARK                            x       y       z     vdW  Elec       q    Type
REMARK                         _______ _______ _______ _____ _____    ______ ____
ROOT
ATOM      1  C   UNL     1       6.429   5.824  17.453  0.00  0.00    +0.000 C 
ENDROOT
BRANCH   1   2
ATOM      2  O   UNL     1       5.488   6.485  16.585  0.00  0.00    +0.000 OA
ATOM      3  H   UNL     1       4.655   5.967  16.642  0.00  0.00    +0.000 HD
ENDBRANCH   1   2
BRANCH   1   4
ATOM      4  C   UNL     1       5.796   5.480  18.796  0.00  0.00    +0.000 C 
ATOM      5  O   UNL     1       6.441   5.093  19.763  0.00  0.00    +0.000 OA
BRANCH   4   6
ATOM      6  O   UNL     1       4.422   5.658  18.732  0.00  0.00    +0.000 OA
BRANCH   6   7
ATOM      7  C   UNL     1       3.581   4.536  18.657  0.00  0.00    +0.000 A 
ATOM      8  C   UNL     1       3.195   3.916  17.471  0.00  0.00    +0.000 A 
ATOM      9  C   UNL     1       2.525   2.697  17.539  0.00  0.00    +0.000 A 
ATOM     10  C   UNL     1       2.265   2.151  18.785  0.00  0.00    +0.000 A 
ATOM     11  N   UNL     1       2.610   2.738  19.952  0.00  0.00    +0.000 NA
ATOM     12  C   UNL     1       3.268   3.917  19.860  0.00  0.00    +0.000 A 
ENDBRANCH   6   7
ENDBRANCH   4   6
ENDBRANCH   1   4
BRANCH   1  13
ATOM     13  C   UNL     1       6.875   4.533  16.767  0.00  0.00    +0.000 C 
BRANCH  13  15
ATOM     14  O   UNL     1       7.770   5.415  14.708  0.00  0.00    +0.000 OA
ATOM     15  C   UNL     1       6.933   4.697  15.247  0.00  0.00    +0.000 C 
BRANCH  15  16
ATOM     16  O   UNL     1       6.027   3.992  14.542  0.00  0.00    +0.000 OA
ATOM     17  H   UNL     1       5.992   4.235  13.584  0.00  0.00    +0.000 HD
ENDBRANCH  15  16
ENDBRANCH  13  15
BRANCH  13  18
ATOM     18  O   UNL     1       8.155   4.123  17.251  0.00  0.00    +0.000 OA
ATOM     19  H   UNL     1       8.075   3.968  18.216  0.00  0.00    +0.000 HD
ENDBRANCH  13  18
ENDBRANCH   1  13
TORSDOF 8
ENDMDL
MODEL 6
REMARK VINA RESULT:      -6.0      2.815      5.873
REMARK  Name = 
REMARK  8 active torsions:
REMARK  status: ('A' for Active; 'I' for Inactive)
REMARK    1  A    between atoms: C_2  and  O_3
REMARK    2  A    between atoms: C_2  and  C_4
REMARK    3  A    between atoms: C_4  and  O_5
REMARK    4  A    between atoms: C_4  and  C_6
REMARK    5  A    between atoms: C_6  and  O_7
REMARK    6  A    between atoms: C_6  and  C_8
REMARK    7  A    between atoms: C_8  and  O_10
REMARK    8  A    between atoms: O_10  and  C_11
REMARK                            x       y       z     vdW  Elec       q    Type
REMARK                         _______ _______ _______ _____ _____    ______ ____
ROOT
ATOM      1  C   UNL     1       3.103   3.285  18.710  0.00  0.00    +0.000 C 
ENDROOT
BRANCH   1   2
ATOM      2  O   UNL     1       2.303   4.482  18.786  0.00  0.00    +0.000 OA
ATOM      3  H   UNL     1       2.779   5.160  18.258  0.00  0.00    +0.000 HD
ENDBRANCH   1   2
BRANCH   1   4
ATOM      4  C   UNL     1       4.538   3.549  19.153  0.00  0.00    +0.000 C 
ATOM      5  O   UNL     1       5.142   2.827  19.937  0.00  0.00    +0.000 OA
BRANCH   4   6
ATOM      6  O   UNL     1       5.014   4.705  18.552  0.00  0.00    +0.000 OA
BRANCH   6   7
ATOM      7  C   UNL     1       5.616   4.629  17.286  0.00  0.00    +0.000 A 
ATOM      8  C   UNL     1       4.948   4.822  16.080  0.00  0.00    +0.000 A 
ATOM      9  C   UNL     1       5.693   4.918  14.908  0.00  0.00    +0.000 A 
ATOM     10  C   UNL     1       7.072   4.814  14.987  0.00  0.00    +0.000 A 
ATOM     11  N   UNL     1       7.747   4.607  16.139  0.00  0.00    +0.000 NA
ATOM     12  C   UNL     1       7.001   4.526  17.266  0.00  0.00    +0.000 A 
ENDBRANCH   6   7
ENDBRANCH   4   6
ENDBRANCH   1   4
BRANCH   1  13
ATOM     13  C   UNL     1       2.479   2.242  19.638  0.00  0.00    +0.000 C 
BRANCH  13  15
ATOM     14  O   UNL     1       2.303   2.983  21.927  0.00  0.00    +0.000 OA
ATOM     15  C   UNL     1       1.771   2.900  20.823  0.00  0.00    +0.000 C 
BRANCH  15  16
ATOM     16  O   UNL     1       0.545   3.400  20.576  0.00  0.00    +0.000 OA
ATOM     17  H   UNL     1      -0.192   2.819  20.887  0.00  0.00    +0.000 HD
ENDBRANCH  15  16
ENDBRANCH  13  15
BRANCH  13  18
ATOM     18  O   UNL     1       1.551   1.425  18.923  0.00  0.00    +0.000 OA
ATOM     19  H   UNL     1       1.378   1.854  18.057  0.00  0.00    +0.000 HD
ENDBRANCH  13  18
ENDBRANCH   1  13
TORSDOF 8
ENDMDL
MODEL 7
REMARK VINA RESULT:      -6.0      1.251      1.890
REMARK  Name = 
REMARK  8 active torsions:
REMARK  status: ('A' for Active; 'I' for Inactive)
REMARK    1  A    between atoms: C_2  and  O_3
REMARK    2  A    between atoms: C_2  and  C_4
REMARK    3  A    between atoms: C_4  and  O_5
REMARK    4  A    between atoms: C_4  and  C_6
REMARK    5  A    between atoms: C_6  and  O_7
REMARK    6  A    between atoms: C_6  and  C_8
REMARK    7  A    between atoms: C_8  and  O_10
REMARK    8  A    between atoms: O_10  and  C_11
REMARK                            x       y       z     vdW  Elec       q    Type
REMARK                         _______ _______ _______ _____ _____    ______ ____
ROOT
ATOM      1  C   UNL     1       5.085   4.492  17.587  0.00  0.00    +0.000 C 
ENDROOT
BRANCH   1   2
ATOM      2  O   UNL     1       5.364   3.309  16.812  0.00  0.00    +0.000 OA
ATOM      3  H   UNL     1       6.242   2.988  17.113  0.00  0.00    +0.000 HD
ENDBRANCH   1   2
BRANCH   1   4
ATOM      4  C   UNL     1       5.462   4.296  19.051  0.00  0.00    +0.000 C 
ATOM      5  O   UNL     1       6.203   5.058  19.661  0.00  0.00    +0.000 OA
BRANCH   4   6
ATOM      6  O   UNL     1       4.862   3.148  19.546  0.00  0.00    +0.000 OA
BRANCH   6   7
ATOM      7  C   UNL     1       3.474   3.130  19.760  0.00  0.00    +0.000 A 
ATOM      8  C   UNL     1       2.768   4.117  20.442  0.00  0.00    +0.000 A 
ATOM      9  C   UNL     1       1.376   4.086  20.415  0.00  0.00    +0.000 A 
ATOM     10  C   UNL     1       0.748   3.071  19.713  0.00  0.00    +0.000 A 
ATOM     11  N   UNL     1       1.406   2.089  19.058  0.00  0.00    +0.000 NA
ATOM     12  C   UNL     1       2.758   2.146  19.092  0.00  0.00    +0.000 A 
ENDBRANCH   6   7
ENDBRANCH   4   6
ENDBRANCH   1   4
BRANCH   1  13
ATOM     13  C   UNL     1       5.912   5.639  17.008  0.00  0.00    +0.000 C 
BRANCH  13  15
ATOM     14  O   UNL     1       7.360   5.344  15.101  0.00  0.00    +0.000 OA
ATOM     15  C   UNL     1       7.162   5.124  16.293  0.00  0.00    +0.000 C 
BRANCH  15  16
ATOM     16  O   UNL     1       8.036   4.435  17.053  0.00  0.00    +0.000 OA
ATOM     17  H   UNL     1       8.975   4.724  16.940  0.00  0.00    +0.000 HD
ENDBRANCH  15  16
ENDBRANCH  13  15
BRANCH  13  18
ATOM     18  O   UNL     1       5.129   6.414  16.100  0.00  0.00    +0.000 OA
ATOM     19  H   UNL     1       4.344   6.745  16.586  0.00  0.00    +0.000 HD
ENDBRANCH  13  18
ENDBRANCH   1  13
TORSDOF 8
ENDMDL
MODEL 8
REMARK VINA RESULT:      -6.0      1.556      2.697
REMARK  Name = 
REMARK  8 active torsions:
REMARK  status: ('A' for Active; 'I' for Inactive)
REMARK    1  A    between atoms: C_2  and  O_3
REMARK    2  A    between atoms: C_2  and  C_4
REMARK    3  A    between atoms: C_4  and  O_5
REMARK    4  A    between atoms: C_4  and  C_6
REMARK    5  A    between atoms: C_6  and  O_7
REMARK    6  A    between atoms: C_6  and  C_8
REMARK    7  A    between atoms: C_8  and  O_10
REMARK    8  A    between atoms: O_10  and  C_11
REMARK                            x       y       z     vdW  Elec       q    Type
REMARK                         _______ _______ _______ _____ _____    ______ ____
ROOT
ATOM      1  C   UNL     1       5.932   4.566  18.545  0.00  0.00    +0.000 C 
ENDROOT
BRANCH   1   2
ATOM      2  O   UNL     1       5.467   5.468  19.568  0.00  0.00    +0.000 OA
ATOM      3  H   UNL     1       4.644   5.875  19.217  0.00  0.00    +0.000 HD
ENDBRANCH   1   2
BRANCH   1   4
ATOM      4  C   UNL     1       4.940   4.478  17.390  0.00  0.00    +0.000 C 
ATOM      5  O   UNL     1       5.218   3.988  16.302  0.00  0.00    +0.000 OA
BRANCH   4   6
ATOM      6  O   UNL     1       3.728   5.040  17.764  0.00  0.00    +0.000 OA
BRANCH   6   7
ATOM      7  C   UNL     1       2.772   4.248  18.421  0.00  0.00    +0.000 A 
ATOM      8  C   UNL     1       2.105   4.619  19.585  0.00  0.00    +0.000 A 
ATOM      9  C   UNL     1       1.040   3.838  20.025  0.00  0.00    +0.000 A 
ATOM     10  C   UNL     1       0.688   2.718  19.289  0.00  0.00    +0.000 A 
ATOM     11  N   UNL     1       1.329   2.323  18.167  0.00  0.00    +0.000 NA
ATOM     12  C   UNL     1       2.355   3.104  17.754  0.00  0.00    +0.000 A 
ENDBRANCH   6   7
ENDBRANCH   4   6
ENDBRANCH   1   4
BRANCH   1  13
ATOM     13  C   UNL     1       7.264   5.099  18.018  0.00  0.00    +0.000 C 
BRANCH  13  15
ATOM     14  O   UNL     1       8.274   7.163  18.753  0.00  0.00    +0.000 OA
ATOM     15  C   UNL     1       7.944   6.014  19.037  0.00  0.00    +0.000 C 
BRANCH  15  16
ATOM     16  O   UNL     1       8.136   5.493  20.265  0.00  0.00    +0.000 OA
ATOM     17  H   UNL     1       7.402   4.902  20.565  0.00  0.00    +0.000 HD
ENDBRANCH  15  16
ENDBRANCH  13  15
BRANCH  13  18
ATOM     18  O   UNL     1       8.141   4.021  17.688  0.00  0.00    +0.000 OA
ATOM     19  H   UNL     1       8.241   3.459  18.486  0.00  0.00    +0.000 HD
ENDBRANCH  13  18
ENDBRANCH   1  13
TORSDOF 8
ENDMDL
MODEL 9
REMARK VINA RESULT:      -5.9      1.534      2.296
REMARK  Name = 
REMARK  8 active torsions:
REMARK  status: ('A' for Active; 'I' for Inactive)
REMARK    1  A    between atoms: C_2  and  O_3
REMARK    2  A    between atoms: C_2  and  C_4
REMARK    3  A    between atoms: C_4  and  O_5
REMARK    4  A    between atoms: C_4  and  C_6
REMARK    5  A    between atoms: C_6  and  O_7
REMARK    6  A    between atoms: C_6  and  C_8
REMARK    7  A    between atoms: C_8  and  O_10
REMARK    8  A    between atoms: O_10  and  C_11
REMARK                            x       y       z     vdW  Elec       q    Type
REMARK                         _______ _______ _______ _____ _____    ______ ____
ROOT
ATOM      1  C   UNL     1       5.820   4.526  16.921  0.00  0.00    +0.000 C 
ENDROOT
BRANCH   1   2
ATOM      2  O   UNL     1       5.782   3.185  16.395  0.00  0.00    +0.000 OA
ATOM      3  H   UNL     1       6.684   3.003  16.051  0.00  0.00    +0.000 HD
ENDBRANCH   1   2
BRANCH   1   4
ATOM      4  C   UNL     1       5.300   4.573  18.354  0.00  0.00    +0.000 C 
ATOM      5  O   UNL     1       5.861   4.017  19.291  0.00  0.00    +0.000 OA
BRANCH   4   6
ATOM      6  O   UNL     1       4.125   5.308  18.408  0.00  0.00    +0.000 OA
BRANCH   6   7
ATOM      7  C   UNL     1       2.931   4.677  18.792  0.00  0.00    +0.000 A 
ATOM      8  C   UNL     1       2.310   3.658  18.075  0.00  0.00    +0.000 A 
ATOM      9  C   UNL     1       1.244   2.980  18.660  0.00  0.00    +0.000 A 
ATOM     10  C   UNL     1       0.839   3.350  19.932  0.00  0.00    +0.000 A 
ATOM     11  N   UNL     1       1.410   4.346  20.645  0.00  0.00    +0.000 NA
ATOM     12  C   UNL     1       2.450   4.984  20.058  0.00  0.00    +0.000 A 
ENDBRANCH   6   7
ENDBRANCH   4   6
ENDBRANCH   1   4
BRANCH   1  13
ATOM     13  C   UNL     1       7.273   4.999  16.903  0.00  0.00    +0.000 C 
BRANCH  13  15
ATOM     14  O   UNL     1       7.053   7.401  16.944  0.00  0.00    +0.000 OA
ATOM     15  C   UNL     1       7.419   6.386  17.531  0.00  0.00    +0.000 C 
BRANCH  15  16
ATOM     16  O   UNL     1       7.949   6.422  18.769  0.00  0.00    +0.000 OA
ATOM     17  H   UNL     1       8.117   7.338  19.103  0.00  0.00    +0.000 HD
ENDBRANCH  15  16
ENDBRANCH  13  15
BRANCH  13  18
ATOM     18  O   UNL     1       8.111   4.073  17.597  0.00  0.00    +0.000 OA
ATOM     19  H   UNL     1       7.531   3.463  18.101  0.00  0.00    +0.000 HD
ENDBRANCH  13  18
ENDBRANCH   1  13
TORSDOF 8
ENDMDL
