MODEL 1
REMARK VINA RESULT:      -6.9      0.000      0.000
REMARK  Name = 
REMARK  3 active torsions:
REMARK  status: ('A' for Active; 'I' for Inactive)
REMARK    1  A    between atoms: C_1  and  C_2
REMARK    2  A    between atoms: C_5  and  N_6
REMARK    3  A    between atoms: C_13  and  C_14
REMARK                            x       y       z     vdW  Elec       q    Type
REMARK                         _______ _______ _______ _____ _____    ______ ____
ROOT
ATOM      1  C   UNL     1       1.417   2.778  21.505  0.00  0.00    +0.000 C 
ATOM      2  C   UNL     1       2.082   3.113  20.199  0.00  0.00    +0.000 A 
ATOM      3  C   UNL     1       2.575   2.077  19.397  0.00  0.00    +0.000 A 
ATOM      4  C   UNL     1       3.215   2.348  18.184  0.00  0.00    +0.000 A 
ATOM      5  C   UNL     1       3.386   3.658  17.734  0.00  0.00    +0.000 A 
ATOM      6  C   UNL     1       2.865   4.692  18.531  0.00  0.00    +0.000 A 
ATOM      7  C   UNL     1       2.230   4.440  19.762  0.00  0.00    +0.000 A 
ATOM      8  C   UNL     1       1.740   5.595  20.590  0.00  0.00    +0.000 C 
ENDROOT
BRANCH   5   9
ATOM      9  N   UNL     1       4.068   4.003  16.549  0.00  0.00    +0.000 N 
ATOM     10  C   UNL     1       5.364   4.377  16.414  0.00  0.00    +0.000 A 
ATOM     11  N   UNL     1       6.364   4.263  17.269  0.00  0.00    +0.000 NA
ATOM     12  N   UNL     1       7.549   4.803  16.788  0.00  0.00    +0.000 NA
ATOM     13  N   UNL     1       7.465   5.328  15.574  0.00  0.00    +0.000 NA
ATOM     14  S   UNL     1       5.916   5.161  14.959  0.00  0.00    +0.000 S 
ATOM     15  H   UNL     1       3.451   4.202  15.771  0.00  0.00    +0.000 HD
ENDBRANCH   5   9
TORSDOF 1
ENDMDL
MODEL 2
REMARK VINA RESULT:      -6.6      1.934      2.182
REMARK  Name = 
REMARK  3 active torsions:
REMARK  status: ('A' for Active; 'I' for Inactive)
REMARK    1  A    between atoms: C_1  and  C_2
REMARK    2  A    between atoms: C_5  and  N_6
REMARK    3  A    between atoms: C_13  and  C_14
REMARK                            x       y       z     vdW  Elec       q    Type
REMARK                         _______ _______ _______ _____ _____    ______ ____
ROOT
ATOM      1  C   UNL     1       0.597   2.252  18.997  0.00  0.00    +0.000 C 
ATOM      2  C   UNL     1       1.730   3.136  18.552  0.00  0.00    +0.000 A 
ATOM      3  C   UNL     1       2.478   2.773  17.426  0.00  0.00    +0.000 A 
ATOM      4  C   UNL     1       3.550   3.559  16.991  0.00  0.00    +0.000 A 
ATOM      5  C   UNL     1       3.911   4.726  17.664  0.00  0.00    +0.000 A 
ATOM      6  C   UNL     1       3.138   5.099  18.778  0.00  0.00    +0.000 A 
ATOM      7  C   UNL     1       2.064   4.314  19.239  0.00  0.00    +0.000 A 
ATOM      8  C   UNL     1       1.310   4.744  20.467  0.00  0.00    +0.000 C 
ENDROOT
BRANCH   5   9
ATOM      9  N   UNL     1       5.010   5.534  17.309  0.00  0.00    +0.000 N 
ATOM     10  C   UNL     1       6.158   5.728  18.005  0.00  0.00    +0.000 A 
ATOM     11  N   UNL     1       6.653   5.037  19.016  0.00  0.00    +0.000 NA
ATOM     12  N   UNL     1       7.843   5.566  19.500  0.00  0.00    +0.000 NA
ATOM     13  N   UNL     1       8.261   6.653  18.869  0.00  0.00    +0.000 NA
ATOM     14  S   UNL     1       7.211   7.063  17.630  0.00  0.00    +0.000 S 
ATOM     15  H   UNL     1       4.804   6.200  16.575  0.00  0.00    +0.000 HD
ENDBRANCH   5   9
TORSDOF 1
ENDMDL
MODEL 3
REMARK VINA RESULT:      -6.5      1.259      1.662
REMARK  Name = 
REMARK  3 active torsions:
REMARK  status: ('A' for Active; 'I' for Inactive)
REMARK    1  A    between atoms: C_1  and  C_2
REMARK    2  A    between atoms: C_5  and  N_6
REMARK    3  A    between atoms: C_13  and  C_14
REMARK                            x       y       z     vdW  Elec       q    Type
REMARK                         _______ _______ _______ _____ _____    ______ ____
ROOT
ATOM      1  C   UNL     1       1.620   2.968  21.339  0.00  0.00    +0.000 C 
ATOM      2  C   UNL     1       2.493   2.997  20.115  0.00  0.00    +0.000 A 
ATOM      3  C   UNL     1       3.845   3.331  20.247  0.00  0.00    +0.000 A 
ATOM      4  C   UNL     1       4.686   3.385  19.132  0.00  0.00    +0.000 A 
ATOM      5  C   UNL     1       4.205   3.112  17.851  0.00  0.00    +0.000 A 
ATOM      6  C   UNL     1       2.852   2.751  17.728  0.00  0.00    +0.000 A 
ATOM      7  C   UNL     1       1.987   2.704  18.837  0.00  0.00    +0.000 A 
ATOM      8  C   UNL     1       0.538   2.359  18.630  0.00  0.00    +0.000 C 
ENDROOT
BRANCH   5   9
ATOM      9  N   UNL     1       4.986   3.200  16.680  0.00  0.00    +0.000 N 
ATOM     10  C   UNL     1       5.890   4.155  16.353  0.00  0.00    +0.000 A 
ATOM     11  N   UNL     1       6.461   5.068  17.119  0.00  0.00    +0.000 NA
ATOM     12  N   UNL     1       7.313   5.907  16.414  0.00  0.00    +0.000 NA
ATOM     13  N   UNL     1       7.399   5.646  15.118  0.00  0.00    +0.000 NA
ATOM     14  S   UNL     1       6.443   4.333  14.711  0.00  0.00    +0.000 S 
ATOM     15  H   UNL     1       4.655   2.607  15.928  0.00  0.00    +0.000 HD
ENDBRANCH   5   9
TORSDOF 1
ENDMDL
MODEL 4
REMARK VINA RESULT:      -6.4      1.144      2.032
REMARK  Name = 
REMARK  3 active torsions:
REMARK  status: ('A' for Active; 'I' for Inactive)
REMARK    1  A    between atoms: C_1  and  C_2
REMARK    2  A    between atoms: C_5  and  N_6
REMARK    3  A    between atoms: C_13  and  C_14
REMARK                            x       y       z     vdW  Elec       q    Type
REMARK                         _______ _______ _______ _____ _____    ______ ____
ROOT
ATOM      1  C   UNL     1       1.512   5.065  20.870  0.00  0.00    +0.000 C 
ATOM      2  C   UNL     1       2.390   4.733  19.696  0.00  0.00    +0.000 A 
ATOM      3  C   UNL     1       2.460   5.625  18.620  0.00  0.00    +0.000 A 
ATOM      4  C   UNL     1       3.251   5.344  17.501  0.00  0.00    +0.000 A 
ATOM      5  C   UNL     1       3.992   4.165  17.419  0.00  0.00    +0.000 A 
ATOM      6  C   UNL     1       3.939   3.286  18.514  0.00  0.00    +0.000 A 
ATOM      7  C   UNL     1       3.138   3.545  19.642  0.00  0.00    +0.000 A 
ATOM      8  C   UNL     1       3.087   2.538  20.759  0.00  0.00    +0.000 C 
ENDROOT
BRANCH   5   9
ATOM      9  N   UNL     1       4.767   3.797  16.300  0.00  0.00    +0.000 N 
ATOM     10  C   UNL     1       5.846   4.438  15.788  0.00  0.00    +0.000 A 
ATOM     11  N   UNL     1       6.597   5.381  16.329  0.00  0.00    +0.000 NA
ATOM     12  N   UNL     1       7.598   5.828  15.477  0.00  0.00    +0.000 NA
ATOM     13  N   UNL     1       7.621   5.237  14.292  0.00  0.00    +0.000 NA
ATOM     14  S   UNL     1       6.414   4.081  14.180  0.00  0.00    +0.000 S 
ATOM     15  H   UNL     1       4.318   3.112  15.704  0.00  0.00    +0.000 HD
ENDBRANCH   5   9
TORSDOF 1
ENDMDL
MODEL 5
REMARK VINA RESULT:      -6.4      1.484      2.620
REMARK  Name = 
REMARK  3 active torsions:
REMARK  status: ('A' for Active; 'I' for Inactive)
REMARK    1  A    between atoms: C_1  and  C_2
REMARK    2  A    between atoms: C_5  and  N_6
REMARK    3  A    between atoms: C_13  and  C_14
REMARK                            x       y       z     vdW  Elec       q    Type
REMARK                         _______ _______ _______ _____ _____    ______ ____
ROOT
ATOM      1  C   UNL     1       1.310   7.299  20.907  0.00  0.00    +0.000 C 
ATOM      2  C   UNL     1       2.132   6.628  19.842  0.00  0.00    +0.000 A 
ATOM      3  C   UNL     1       2.651   7.395  18.793  0.00  0.00    +0.000 A 
ATOM      4  C   UNL     1       3.406   6.806  17.774  0.00  0.00    +0.000 A 
ATOM      5  C   UNL     1       3.664   5.435  17.767  0.00  0.00    +0.000 A 
ATOM      6  C   UNL     1       3.163   4.674  18.837  0.00  0.00    +0.000 A 
ATOM      7  C   UNL     1       2.390   5.247  19.865  0.00  0.00    +0.000 A 
ATOM      8  C   UNL     1       1.841   4.367  20.954  0.00  0.00    +0.000 C 
ENDROOT
BRANCH   5   9
ATOM      9  N   UNL     1       4.372   4.770  16.744  0.00  0.00    +0.000 N 
ATOM     10  C   UNL     1       5.575   5.103  16.215  0.00  0.00    +0.000 A 
ATOM     11  N   UNL     1       6.493   5.934  16.674  0.00  0.00    +0.000 NA
ATOM     12  N   UNL     1       7.588   6.048  15.827  0.00  0.00    +0.000 NA
ATOM     13  N   UNL     1       7.516   5.314  14.727  0.00  0.00    +0.000 NA
ATOM     14  S   UNL     1       6.095   4.427  14.696  0.00  0.00    +0.000 S 
ATOM     15  H   UNL     1       3.804   4.120  16.215  0.00  0.00    +0.000 HD
ENDBRANCH   5   9
TORSDOF 1
ENDMDL
MODEL 6
REMARK VINA RESULT:      -6.4      1.085      1.700
REMARK  Name = 
REMARK  3 active torsions:
REMARK  status: ('A' for Active; 'I' for Inactive)
REMARK    1  A    between atoms: C_1  and  C_2
REMARK    2  A    between atoms: C_5  and  N_6
REMARK    3  A    between atoms: C_13  and  C_14
REMARK                            x       y       z     vdW  Elec       q    Type
REMARK                         _______ _______ _______ _____ _____    ______ ____
ROOT
ATOM      1  C   UNL     1       1.202   3.302  20.934  0.00  0.00    +0.000 C 
ATOM      2  C   UNL     1       2.112   3.397  19.742  0.00  0.00    +0.000 A 
ATOM      3  C   UNL     1       1.659   4.040  18.584  0.00  0.00    +0.000 A 
ATOM      4  C   UNL     1       2.468   4.134  17.448  0.00  0.00    +0.000 A 
ATOM      5  C   UNL     1       3.752   3.588  17.428  0.00  0.00    +0.000 A 
ATOM      6  C   UNL     1       4.211   2.966  18.602  0.00  0.00    +0.000 A 
ATOM      7  C   UNL     1       3.406   2.850  19.751  0.00  0.00    +0.000 A 
ATOM      8  C   UNL     1       3.941   2.128  20.958  0.00  0.00    +0.000 C 
ENDROOT
BRANCH   5   9
ATOM      9  N   UNL     1       4.598   3.601  16.301  0.00  0.00    +0.000 N 
ATOM     10  C   UNL     1       5.685   4.382  16.086  0.00  0.00    +0.000 A 
ATOM     11  N   UNL     1       6.377   5.112  16.943  0.00  0.00    +0.000 NA
ATOM     12  N   UNL     1       7.411   5.815  16.341  0.00  0.00    +0.000 NA
ATOM     13  N   UNL     1       7.518   5.631  15.033  0.00  0.00    +0.000 NA
ATOM     14  S   UNL     1       6.352   4.559  14.487  0.00  0.00    +0.000 S 
ATOM     15  H   UNL     1       4.203   3.137  15.492  0.00  0.00    +0.000 HD
ENDBRANCH   5   9
TORSDOF 1
ENDMDL
MODEL 7
REMARK VINA RESULT:      -6.3      1.199      1.594
REMARK  Name = 
REMARK  3 active torsions:
REMARK  status: ('A' for Active; 'I' for Inactive)
REMARK    1  A    between atoms: C_1  and  C_2
REMARK    2  A    between atoms: C_5  and  N_6
REMARK    3  A    between atoms: C_13  and  C_14
REMARK                            x       y       z     vdW  Elec       q    Type
REMARK                         _______ _______ _______ _____ _____    ______ ____
ROOT
ATOM      1  C   UNL     1       1.342   5.349  20.702  0.00  0.00    +0.000 C 
ATOM      2  C   UNL     1       2.181   4.972  19.513  0.00  0.00    +0.000 A 
ATOM      3  C   UNL     1       2.490   3.625  19.292  0.00  0.00    +0.000 A 
ATOM      4  C   UNL     1       3.281   3.236  18.207  0.00  0.00    +0.000 A 
ATOM      5  C   UNL     1       3.791   4.175  17.311  0.00  0.00    +0.000 A 
ATOM      6  C   UNL     1       3.455   5.523  17.523  0.00  0.00    +0.000 A 
ATOM      7  C   UNL     1       2.672   5.936  18.617  0.00  0.00    +0.000 A 
ATOM      8  C   UNL     1       2.391   7.401  18.813  0.00  0.00    +0.000 C 
ENDROOT
BRANCH   5   9
ATOM      9  N   UNL     1       4.637   3.855  16.229  0.00  0.00    +0.000 N 
ATOM     10  C   UNL     1       5.762   4.502  15.834  0.00  0.00    +0.000 A 
ATOM     11  N   UNL     1       6.488   5.394  16.482  0.00  0.00    +0.000 NA
ATOM     12  N   UNL     1       7.557   5.867  15.732  0.00  0.00    +0.000 NA
ATOM     13  N   UNL     1       7.654   5.346  14.518  0.00  0.00    +0.000 NA
ATOM     14  S   UNL     1       6.436   4.226  14.252  0.00  0.00    +0.000 S 
ATOM     15  H   UNL     1       4.219   3.217  15.563  0.00  0.00    +0.000 HD
ENDBRANCH   5   9
TORSDOF 1
ENDMDL
MODEL 8
REMARK VINA RESULT:      -6.3      3.500      5.691
REMARK  Name = 
REMARK  3 active torsions:
REMARK  status: ('A' for Active; 'I' for Inactive)
REMARK    1  A    between atoms: C_1  and  C_2
REMARK    2  A    between atoms: C_5  and  N_6
REMARK    3  A    between atoms: C_13  and  C_14
REMARK                            x       y       z     vdW  Elec       q    Type
REMARK                         _______ _______ _______ _____ _____    ______ ____
ROOT
ATOM      1  C   UNL     1       7.732   7.825  17.494  0.00  0.00    +0.000 C 
ATOM      2  C   UNL     1       6.705   6.730  17.567  0.00  0.00    +0.000 A 
ATOM      3  C   UNL     1       5.634   6.735  16.665  0.00  0.00    +0.000 A 
ATOM      4  C   UNL     1       4.649   5.744  16.712  0.00  0.00    +0.000 A 
ATOM      5  C   UNL     1       4.697   4.721  17.658  0.00  0.00    +0.000 A 
ATOM      6  C   UNL     1       5.789   4.706  18.543  0.00  0.00    +0.000 A 
ATOM      7  C   UNL     1       6.784   5.702  18.521  0.00  0.00    +0.000 A 
ATOM      8  C   UNL     1       7.899   5.654  19.529  0.00  0.00    +0.000 C 
ENDROOT
BRANCH   5   9
ATOM      9  N   UNL     1       3.710   3.723  17.793  0.00  0.00    +0.000 N 
ATOM     10  C   UNL     1       2.677   3.688  18.670  0.00  0.00    +0.000 A 
ATOM     11  N   UNL     1       2.175   4.657  19.414  0.00  0.00    +0.000 NA
ATOM     12  N   UNL     1       1.135   4.229  20.227  0.00  0.00    +0.000 NA
ATOM     13  N   UNL     1       0.836   2.943  20.112  0.00  0.00    +0.000 NA
ATOM     14  S   UNL     1       1.818   2.204  18.974  0.00  0.00    +0.000 S 
ATOM     15  H   UNL     1       3.950   2.852  17.335  0.00  0.00    +0.000 HD
ENDBRANCH   5   9
TORSDOF 1
ENDMDL
MODEL 9
REMARK VINA RESULT:      -6.2      2.093      2.363
REMARK  Name = 
REMARK  3 active torsions:
REMARK  status: ('A' for Active; 'I' for Inactive)
REMARK    1  A    between atoms: C_1  and  C_2
REMARK    2  A    between atoms: C_5  and  N_6
REMARK    3  A    between atoms: C_13  and  C_14
REMARK                            x       y       z     vdW  Elec       q    Type
REMARK                         _______ _______ _______ _____ _____    ______ ____
ROOT
ATOM      1  C   UNL     1       0.642   2.101  18.628  0.00  0.00    +0.000 C 
ATOM      2  C   UNL     1       1.913   2.894  18.752  0.00  0.00    +0.000 A 
ATOM      3  C   UNL     1       2.994   2.590  17.916  0.00  0.00    +0.000 A 
ATOM      4  C   UNL     1       4.199   3.292  18.012  0.00  0.00    +0.000 A 
ATOM      5  C   UNL     1       4.366   4.316  18.945  0.00  0.00    +0.000 A 
ATOM      6  C   UNL     1       3.268   4.635  19.763  0.00  0.00    +0.000 A 
ATOM      7  C   UNL     1       2.052   3.930  19.690  0.00  0.00    +0.000 A 
ATOM      8  C   UNL     1       0.933   4.289  20.630  0.00  0.00    +0.000 C 
ENDROOT
BRANCH   5   9
ATOM      9  N   UNL     1       5.570   5.027  19.130  0.00  0.00    +0.000 N 
ATOM     10  C   UNL     1       6.132   5.940  18.299  0.00  0.00    +0.000 A 
ATOM     11  N   UNL     1       5.599   6.584  17.276  0.00  0.00    +0.000 NA
ATOM     12  N   UNL     1       6.504   7.419  16.634  0.00  0.00    +0.000 NA
ATOM     13  N   UNL     1       7.722   7.419  17.155  0.00  0.00    +0.000 NA
ATOM     14  S   UNL     1       7.802   6.399  18.482  0.00  0.00    +0.000 S 
ATOM     15  H   UNL     1       6.166   4.634  19.847  0.00  0.00    +0.000 HD
ENDBRANCH   5   9
TORSDOF 1
ENDMDL
