MODEL 1
REMARK VINA RESULT:      -8.2      0.000      0.000
REMARK  Name = 
REMARK  6 active torsions:
REMARK  status: ('A' for Active; 'I' for Inactive)
REMARK    1  A    between atoms: C_2  and  C_3
REMARK    2  A    between atoms: C_3  and  C_4
REMARK    3  A    between atoms: C_4  and  C_5
REMARK    4  A    between atoms: C_5  and  C_6
REMARK    5  A    between atoms: C_6  and  C_7
REMARK    6  A    between atoms: N_18  and  C_19
REMARK                            x       y       z     vdW  Elec       q    Type
REMARK                         _______ _______ _______ _____ _____    ______ ____
ROOT
ATOM      1  C   UNL     1       2.398   5.505  18.212  0.00  0.00    +0.000 C 
ENDROOT
BRANCH   1   2
ATOM      2  C   UNL     1       2.626   4.046  18.673  0.00  0.00    +0.000 C 
ATOM      3  C   UNL     1       1.297   3.263  18.731  0.00  0.00    +0.000 C 
ATOM      4  C   UNL     1       1.461   2.271  19.884  0.00  0.00    +0.000 C 
ATOM      5  C   UNL     1       2.467   2.950  20.772  0.00  0.00    +0.000 C 
ATOM      6  O   UNL     1       2.790   2.607  21.896  0.00  0.00    +0.000 OA
ATOM      7  N   UNL     1       3.009   4.013  20.079  0.00  0.00    +0.000 N 
ATOM      8  H   UNL     1       3.782   4.529  20.481  0.00  0.00    +0.000 HD
BRANCH   2   9
ATOM      9  C   UNL     1       3.662   3.281  17.784  0.00  0.00    +0.000 C 
BRANCH   9  10
ATOM     10  C   UNL     1       4.845   4.085  17.276  0.00  0.00    +0.000 A 
ATOM     11  C   UNL     1       5.892   4.445  18.137  0.00  0.00    +0.000 A 
ATOM     12  C   UNL     1       6.988   5.172  17.665  0.00  0.00    +0.000 A 
ATOM     13  C   UNL     1       7.065   5.529  16.321  0.00  0.00    +0.000 A 
ATOM     14  C   UNL     1       6.043   5.163  15.449  0.00  0.00    +0.000 A 
ATOM     15  C   UNL     1       4.939   4.446  15.924  0.00  0.00    +0.000 A 
ENDBRANCH   9  10
ENDBRANCH   2   9
ENDBRANCH   1   2
BRANCH   1  16
ATOM     16  C   UNL     1       2.975   6.544  19.176  0.00  0.00    +0.000 C 
BRANCH  16  18
ATOM     17  O   UNL     1       1.297   6.487  20.892  0.00  0.00    +0.000 OA
ATOM     18  C   UNL     1       1.936   7.160  20.090  0.00  0.00    +0.000 C 
ATOM     19  N   UNL     1       1.747   8.507  19.920  0.00  0.00    +0.000 N 
ATOM     20  H   UNL     1       2.177   8.984  19.130  0.00  0.00    +0.000 HD
BRANCH  19  21
ATOM     21  C   UNL     1       0.682   9.238  20.617  0.00  0.00    +0.000 C 
ATOM     22  C   UNL     1       0.965   9.255  22.122  0.00  0.00    +0.000 C 
ATOM     23  C   UNL     1      -0.272   9.545  22.973  0.00  0.00    +0.000 C 
ATOM     24  C   UNL     1      -0.756  10.989  22.896  0.00  0.00    +0.000 C 
ATOM     25  C   UNL     1      -1.223  11.401  21.508  0.00  0.00    +0.000 C 
ATOM     26  N   UNL     1      -0.144  11.608  20.568  0.00  0.00    +0.000 N 
ATOM     27  C   UNL     1       0.641  10.648  20.001  0.00  0.00    +0.000 C 
ATOM     28  O   UNL     1       1.284  10.936  18.986  0.00  0.00    +0.000 OA
ATOM     29  H   UNL     1      -0.129  12.478  20.050  0.00  0.00    +0.000 HD
ENDBRANCH  19  21
ENDBRANCH  16  18
ENDBRANCH   1  16
TORSDOF 6
ENDMDL
MODEL 2
REMARK VINA RESULT:      -8.2      1.499      2.297
REMARK  Name = 
REMARK  6 active torsions:
REMARK  status: ('A' for Active; 'I' for Inactive)
REMARK    1  A    between atoms: C_2  and  C_3
REMARK    2  A    between atoms: C_3  and  C_4
REMARK    3  A    between atoms: C_4  and  C_5
REMARK    4  A    between atoms: C_5  and  C_6
REMARK    5  A    between atoms: C_6  and  C_7
REMARK    6  A    between atoms: N_18  and  C_19
REMARK                            x       y       z     vdW  Elec       q    Type
REMARK                         _______ _______ _______ _____ _____    ______ ____
ROOT
ATOM      1  C   UNL     1       2.282   5.969  18.054  0.00  0.00    +0.000 C 
ENDROOT
BRANCH   1   2
ATOM      2  C   UNL     1       2.533   4.593  18.715  0.00  0.00    +0.000 C 
ATOM      3  C   UNL     1       1.285   3.690  18.620  0.00  0.00    +0.000 C 
ATOM      4  C   UNL     1       1.304   2.838  19.890  0.00  0.00    +0.000 C 
ATOM      5  C   UNL     1       2.062   3.699  20.862  0.00  0.00    +0.000 C 
ATOM      6  O   UNL     1       2.190   3.503  22.058  0.00  0.00    +0.000 OA
ATOM      7  N   UNL     1       2.641   4.738  20.161  0.00  0.00    +0.000 N 
ATOM      8  H   UNL     1       3.278   5.366  20.635  0.00  0.00    +0.000 HD
BRANCH   2   9
ATOM      9  C   UNL     1       3.779   3.853  18.125  0.00  0.00    +0.000 C 
BRANCH   9  10
ATOM     10  C   UNL     1       5.058   4.662  18.008  0.00  0.00    +0.000 A 
ATOM     11  C   UNL     1       5.458   5.201  16.777  0.00  0.00    +0.000 A 
ATOM     12  C   UNL     1       6.628   5.958  16.675  0.00  0.00    +0.000 A 
ATOM     13  C   UNL     1       7.403   6.206  17.804  0.00  0.00    +0.000 A 
ATOM     14  C   UNL     1       7.010   5.694  19.038  0.00  0.00    +0.000 A 
ATOM     15  C   UNL     1       5.845   4.925  19.139  0.00  0.00    +0.000 A 
ENDBRANCH   9  10
ENDBRANCH   2   9
ENDBRANCH   1   2
BRANCH   1  16
ATOM     16  C   UNL     1       2.696   7.151  18.935  0.00  0.00    +0.000 C 
BRANCH  16  18
ATOM     17  O   UNL     1       2.148   8.966  17.462  0.00  0.00    +0.000 OA
ATOM     18  C   UNL     1       2.007   8.448  18.566  0.00  0.00    +0.000 C 
ATOM     19  N   UNL     1       1.254   9.005  19.566  0.00  0.00    +0.000 N 
ATOM     20  H   UNL     1       1.305   8.627  20.510  0.00  0.00    +0.000 HD
BRANCH  19  21
ATOM     21  C   UNL     1       0.635  10.329  19.430  0.00  0.00    +0.000 C 
ATOM     22  C   UNL     1      -0.778  10.185  18.859  0.00  0.00    +0.000 C 
ATOM     23  C   UNL     1      -1.318  11.471  18.233  0.00  0.00    +0.000 C 
ATOM     24  C   UNL     1      -1.677  12.553  19.245  0.00  0.00    +0.000 C 
ATOM     25  C   UNL     1      -0.483  13.063  20.038  0.00  0.00    +0.000 C 
ATOM     26  N   UNL     1      -0.014  12.138  21.044  0.00  0.00    +0.000 N 
ATOM     27  C   UNL     1       0.651  10.967  20.831  0.00  0.00    +0.000 C 
ATOM     28  O   UNL     1       1.270  10.461  21.772  0.00  0.00    +0.000 OA
ATOM     29  H   UNL     1       0.107  12.488  21.988  0.00  0.00    +0.000 HD
ENDBRANCH  19  21
ENDBRANCH  16  18
ENDBRANCH   1  16
TORSDOF 6
ENDMDL
MODEL 3
REMARK VINA RESULT:      -8.2      1.168      1.629
REMARK  Name = 
REMARK  6 active torsions:
REMARK  status: ('A' for Active; 'I' for Inactive)
REMARK    1  A    between atoms: C_2  and  C_3
REMARK    2  A    between atoms: C_3  and  C_4
REMARK    3  A    between atoms: C_4  and  C_5
REMARK    4  A    between atoms: C_5  and  C_6
REMARK    5  A    between atoms: C_6  and  C_7
REMARK    6  A    between atoms: N_18  and  C_19
REMARK                            x       y       z     vdW  Elec       q    Type
REMARK                         _______ _______ _______ _____ _____    ______ ____
ROOT
ATOM      1  C   UNL     1       2.506   5.301  18.239  0.00  0.00    +0.000 C 
ENDROOT
BRANCH   1   2
ATOM      2  C   UNL     1       3.459   4.098  18.049  0.00  0.00    +0.000 C 
ATOM      3  C   UNL     1       2.677   2.807  17.727  0.00  0.00    +0.000 C 
ATOM      4  C   UNL     1       3.486   1.674  18.358  0.00  0.00    +0.000 C 
ATOM      5  C   UNL     1       4.209   2.362  19.484  0.00  0.00    +0.000 C 
ATOM      6  O   UNL     1       4.853   1.825  20.368  0.00  0.00    +0.000 OA
ATOM      7  N   UNL     1       4.064   3.725  19.322  0.00  0.00    +0.000 N 
ATOM      8  H   UNL     1       4.571   4.357  19.930  0.00  0.00    +0.000 HD
BRANCH   2   9
ATOM      9  C   UNL     1       4.549   4.352  16.956  0.00  0.00    +0.000 C 
BRANCH   9  10
ATOM     10  C   UNL     1       5.703   5.259  17.345  0.00  0.00    +0.000 A 
ATOM     11  C   UNL     1       5.762   6.584  16.888  0.00  0.00    +0.000 A 
ATOM     12  C   UNL     1       6.817   7.421  17.259  0.00  0.00    +0.000 A 
ATOM     13  C   UNL     1       7.815   6.956  18.110  0.00  0.00    +0.000 A 
ATOM     14  C   UNL     1       7.761   5.650  18.589  0.00  0.00    +0.000 A 
ATOM     15  C   UNL     1       6.713   4.806  18.207  0.00  0.00    +0.000 A 
ENDBRANCH   9  10
ENDBRANCH   2   9
ENDBRANCH   1   2
BRANCH   1  16
ATOM     16  C   UNL     1       3.043   6.355  19.211  0.00  0.00    +0.000 C 
BRANCH  16  18
ATOM     17  O   UNL     1       1.262   6.272  20.820  0.00  0.00    +0.000 OA
ATOM     18  C   UNL     1       1.972   6.961  20.094  0.00  0.00    +0.000 C 
ATOM     19  N   UNL     1       1.840   8.321  19.986  0.00  0.00    +0.000 N 
ATOM     20  H   UNL     1       2.333   8.822  19.250  0.00  0.00    +0.000 HD
BRANCH  19  21
ATOM     21  C   UNL     1       0.760   9.054  20.659  0.00  0.00    +0.000 C 
ATOM     22  C   UNL     1       1.061   9.161  22.156  0.00  0.00    +0.000 C 
ATOM     23  C   UNL     1      -0.174   9.457  23.007  0.00  0.00    +0.000 C 
ATOM     24  C   UNL     1      -0.705  10.878  22.860  0.00  0.00    +0.000 C 
ATOM     25  C   UNL     1      -1.202  11.200  21.459  0.00  0.00    +0.000 C 
ATOM     26  N   UNL     1      -0.142  11.391  20.495  0.00  0.00    +0.000 N 
ATOM     27  C   UNL     1       0.667  10.427  19.969  0.00  0.00    +0.000 C 
ATOM     28  O   UNL     1       1.288  10.681  18.931  0.00  0.00    +0.000 OA
ATOM     29  H   UNL     1      -0.162  12.232  19.931  0.00  0.00    +0.000 HD
ENDBRANCH  19  21
ENDBRANCH  16  18
ENDBRANCH   1  16
TORSDOF 6
ENDMDL
MODEL 4
REMARK VINA RESULT:      -8.2      1.384      1.902
REMARK  Name = 
REMARK  6 active torsions:
REMARK  status: ('A' for Active; 'I' for Inactive)
REMARK    1  A    between atoms: C_2  and  C_3
REMARK    2  A    between atoms: C_3  and  C_4
REMARK    3  A    between atoms: C_4  and  C_5
REMARK    4  A    between atoms: C_5  and  C_6
REMARK    5  A    between atoms: C_6  and  C_7
REMARK    6  A    between atoms: N_18  and  C_19
REMARK                            x       y       z     vdW  Elec       q    Type
REMARK                         _______ _______ _______ _____ _____    ______ ____
ROOT
ATOM      1  C   UNL     1       2.375   5.711  18.251  0.00  0.00    +0.000 C 
ENDROOT
BRANCH   1   2
ATOM      2  C   UNL     1       2.465   4.307  18.892  0.00  0.00    +0.000 C 
ATOM      3  C   UNL     1       1.075   3.643  18.987  0.00  0.00    +0.000 C 
ATOM      4  C   UNL     1       1.118   2.790  20.256  0.00  0.00    +0.000 C 
ATOM      5  C   UNL     1       2.148   3.492  21.099  0.00  0.00    +0.000 C 
ATOM      6  O   UNL     1       2.405   3.264  22.268  0.00  0.00    +0.000 OA
ATOM      7  N   UNL     1       2.799   4.416  20.307  0.00  0.00    +0.000 N 
ATOM      8  H   UNL     1       3.598   4.916  20.677  0.00  0.00    +0.000 HD
BRANCH   2   9
ATOM      9  C   UNL     1       3.463   3.360  18.146  0.00  0.00    +0.000 C 
BRANCH   9  10
ATOM     10  C   UNL     1       4.717   4.003  17.582  0.00  0.00    +0.000 A 
ATOM     11  C   UNL     1       5.739   4.452  18.431  0.00  0.00    +0.000 A 
ATOM     12  C   UNL     1       6.899   5.031  17.910  0.00  0.00    +0.000 A 
ATOM     13  C   UNL     1       7.065   5.148  16.533  0.00  0.00    +0.000 A 
ATOM     14  C   UNL     1       6.069   4.689  15.675  0.00  0.00    +0.000 A 
ATOM     15  C   UNL     1       4.901   4.122  16.196  0.00  0.00    +0.000 A 
ENDBRANCH   9  10
ENDBRANCH   2   9
ENDBRANCH   1   2
BRANCH   1  16
ATOM     16  C   UNL     1       2.647   6.849  19.239  0.00  0.00    +0.000 C 
BRANCH  16  18
ATOM     17  O   UNL     1       2.163   8.628  17.701  0.00  0.00    +0.000 OA
ATOM     18  C   UNL     1       2.020   8.165  18.828  0.00  0.00    +0.000 C 
ATOM     19  N   UNL     1       1.322   8.803  19.820  0.00  0.00    +0.000 N 
ATOM     20  H   UNL     1       1.375   8.463  20.778  0.00  0.00    +0.000 HD
BRANCH  19  21
ATOM     21  C   UNL     1       0.771  10.153  19.640  0.00  0.00    +0.000 C 
ATOM     22  C   UNL     1      -0.620  10.065  19.008  0.00  0.00    +0.000 C 
ATOM     23  C   UNL     1      -1.071  11.366  18.343  0.00  0.00    +0.000 C 
ATOM     24  C   UNL     1      -1.424  12.477  19.326  0.00  0.00    +0.000 C 
ATOM     25  C   UNL     1      -0.244  12.944  20.165  0.00  0.00    +0.000 C 
ATOM     26  N   UNL     1       0.137  12.012  21.203  0.00  0.00    +0.000 N 
ATOM     27  C   UNL     1       0.755  10.808  21.033  0.00  0.00    +0.000 C 
ATOM     28  O   UNL     1       1.308  10.287  22.007  0.00  0.00    +0.000 OA
ATOM     29  H   UNL     1       0.232  12.369  22.146  0.00  0.00    +0.000 HD
ENDBRANCH  19  21
ENDBRANCH  16  18
ENDBRANCH   1  16
TORSDOF 6
ENDMDL
MODEL 5
REMARK VINA RESULT:      -8.1      2.218      4.317
REMARK  Name = 
REMARK  6 active torsions:
REMARK  status: ('A' for Active; 'I' for Inactive)
REMARK    1  A    between atoms: C_2  and  C_3
REMARK    2  A    between atoms: C_3  and  C_4
REMARK    3  A    between atoms: C_4  and  C_5
REMARK    4  A    between atoms: C_5  and  C_6
REMARK    5  A    between atoms: C_6  and  C_7
REMARK    6  A    between atoms: N_18  and  C_19
REMARK                            x       y       z     vdW  Elec       q    Type
REMARK                         _______ _______ _______ _____ _____    ______ ____
ROOT
ATOM      1  C   UNL     1       3.680   6.687  18.741  0.00  0.00    +0.000 C 
ENDROOT
BRANCH   1   2
ATOM      2  C   UNL     1       4.665   5.630  18.187  0.00  0.00    +0.000 C 
ATOM      3  C   UNL     1       5.883   5.456  19.120  0.00  0.00    +0.000 C 
ATOM      4  C   UNL     1       7.057   5.127  18.197  0.00  0.00    +0.000 C 
ATOM      5  C   UNL     1       6.652   5.764  16.896  0.00  0.00    +0.000 C 
ATOM      6  O   UNL     1       7.351   5.900  15.907  0.00  0.00    +0.000 OA
ATOM      7  N   UNL     1       5.325   6.132  16.989  0.00  0.00    +0.000 N 
ATOM      8  H   UNL     1       4.847   6.486  16.170  0.00  0.00    +0.000 HD
BRANCH   2   9
ATOM      9  C   UNL     1       3.988   4.245  17.924  0.00  0.00    +0.000 C 
BRANCH   9  10
ATOM     10  C   UNL     1       3.036   3.740  18.994  0.00  0.00    +0.000 A 
ATOM     11  C   UNL     1       3.523   3.171  20.179  0.00  0.00    +0.000 A 
ATOM     12  C   UNL     1       2.645   2.720  21.168  0.00  0.00    +0.000 A 
ATOM     13  C   UNL     1       1.270   2.853  20.998  0.00  0.00    +0.000 A 
ATOM     14  C   UNL     1       0.770   3.433  19.836  0.00  0.00    +0.000 A 
ATOM     15  C   UNL     1       1.647   3.873  18.838  0.00  0.00    +0.000 A 
ENDBRANCH   9  10
ENDBRANCH   2   9
ENDBRANCH   1   2
BRANCH   1  16
ATOM     16  C   UNL     1       2.722   7.238  17.681  0.00  0.00    +0.000 C 
BRANCH  16  18
ATOM     17  O   UNL     1       2.263   9.575  17.377  0.00  0.00    +0.000 OA
ATOM     18  C   UNL     1       2.106   8.568  18.061  0.00  0.00    +0.000 C 
ATOM     19  N   UNL     1       1.399   8.560  19.235  0.00  0.00    +0.000 N 
ATOM     20  H   UNL     1       1.439   7.747  19.846  0.00  0.00    +0.000 HD
BRANCH  19  21
ATOM     21  C   UNL     1       0.856   9.790  19.825  0.00  0.00    +0.000 C 
ATOM     22  C   UNL     1      -0.498  10.116  19.191  0.00  0.00    +0.000 C 
ATOM     23  C   UNL     1      -0.915  11.578  19.360  0.00  0.00    +0.000 C 
ATOM     24  C   UNL     1      -1.323  11.948  20.781  0.00  0.00    +0.000 C 
ATOM     25  C   UNL     1      -0.192  11.823  21.791  0.00  0.00    +0.000 C 
ATOM     26  N   UNL     1       0.133  10.457  22.134  0.00  0.00    +0.000 N 
ATOM     27  C   UNL     1       0.762   9.543  21.342  0.00  0.00    +0.000 C 
ATOM     28  O   UNL     1       1.262   8.547  21.874  0.00  0.00    +0.000 OA
ATOM     29  H   UNL     1       0.176  10.215  23.117  0.00  0.00    +0.000 HD
ENDBRANCH  19  21
ENDBRANCH  16  18
ENDBRANCH   1  16
TORSDOF 6
ENDMDL
MODEL 6
REMARK VINA RESULT:      -8.0      1.601      2.422
REMARK  Name = 
REMARK  6 active torsions:
REMARK  status: ('A' for Active; 'I' for Inactive)
REMARK    1  A    between atoms: C_2  and  C_3
REMARK    2  A    between atoms: C_3  and  C_4
REMARK    3  A    between atoms: C_4  and  C_5
REMARK    4  A    between atoms: C_5  and  C_6
REMARK    5  A    between atoms: C_6  and  C_7
REMARK    6  A    between atoms: N_18  and  C_19
REMARK                            x       y       z     vdW  Elec       q    Type
REMARK                         _______ _______ _______ _____ _____    ______ ____
ROOT
ATOM      1  C   UNL     1       2.407   7.053  19.609  0.00  0.00    +0.000 C 
ENDROOT
BRANCH   1   2
ATOM      2  C   UNL     1       2.644   5.529  19.495  0.00  0.00    +0.000 C 
ATOM      3  C   UNL     1       1.823   4.919  18.339  0.00  0.00    +0.000 C 
ATOM      4  C   UNL     1       1.461   3.506  18.799  0.00  0.00    +0.000 C 
ATOM      5  C   UNL     1       1.474   3.627  20.298  0.00  0.00    +0.000 C 
ATOM      6  O   UNL     1       1.088   2.790  21.096  0.00  0.00    +0.000 OA
ATOM      7  N   UNL     1       2.048   4.837  20.630  0.00  0.00    +0.000 N 
ATOM      8  H   UNL     1       2.235   5.051  21.602  0.00  0.00    +0.000 HD
BRANCH   2   9
ATOM      9  C   UNL     1       4.155   5.158  19.334  0.00  0.00    +0.000 C 
BRANCH   9  10
ATOM     10  C   UNL     1       4.695   5.104  17.916  0.00  0.00    +0.000 A 
ATOM     11  C   UNL     1       4.841   3.880  17.248  0.00  0.00    +0.000 A 
ATOM     12  C   UNL     1       5.324   3.834  15.938  0.00  0.00    +0.000 A 
ATOM     13  C   UNL     1       5.645   5.011  15.268  0.00  0.00    +0.000 A 
ATOM     14  C   UNL     1       5.487   6.237  15.909  0.00  0.00    +0.000 A 
ATOM     15  C   UNL     1       5.016   6.283  17.226  0.00  0.00    +0.000 A 
ENDBRANCH   9  10
ENDBRANCH   2   9
ENDBRANCH   1   2
BRANCH   1  16
ATOM     16  C   UNL     1       2.368   7.765  18.254  0.00  0.00    +0.000 C 
BRANCH  16  18
ATOM     17  O   UNL     1       1.902   9.976  17.442  0.00  0.00    +0.000 OA
ATOM     18  C   UNL     1       1.713   9.129  18.310  0.00  0.00    +0.000 C 
ATOM     19  N   UNL     1       0.934   9.349  19.415  0.00  0.00    +0.000 N 
ATOM     20  H   UNL     1       0.945   8.682  20.185  0.00  0.00    +0.000 HD
BRANCH  19  21
ATOM     21  C   UNL     1       0.340  10.661  19.703  0.00  0.00    +0.000 C 
ATOM     22  C   UNL     1      -1.118  10.683  19.238  0.00  0.00    +0.000 C 
ATOM     23  C   UNL     1      -1.673  12.094  19.039  0.00  0.00    +0.000 C 
ATOM     24  C   UNL     1      -1.919  12.855  20.337  0.00  0.00    +0.000 C 
ATOM     25  C   UNL     1      -0.652  13.123  21.134  0.00  0.00    +0.000 C 
ATOM     26  N   UNL     1      -0.126  11.954  21.803  0.00  0.00    +0.000 N 
ATOM     27  C   UNL     1       0.488  10.886  21.219  0.00  0.00    +0.000 C 
ATOM     28  O   UNL     1       1.169  10.138  21.927  0.00  0.00    +0.000 OA
ATOM     29  H   UNL     1       0.081  12.029  22.792  0.00  0.00    +0.000 HD
ENDBRANCH  19  21
ENDBRANCH  16  18
ENDBRANCH   1  16
TORSDOF 6
ENDMDL
MODEL 7
REMARK VINA RESULT:      -8.0      1.906      2.694
REMARK  Name = 
REMARK  6 active torsions:
REMARK  status: ('A' for Active; 'I' for Inactive)
REMARK    1  A    between atoms: C_2  and  C_3
REMARK    2  A    between atoms: C_3  and  C_4
REMARK    3  A    between atoms: C_4  and  C_5
REMARK    4  A    between atoms: C_5  and  C_6
REMARK    5  A    between atoms: C_6  and  C_7
REMARK    6  A    between atoms: N_18  and  C_19
REMARK                            x       y       z     vdW  Elec       q    Type
REMARK                         _______ _______ _______ _____ _____    ______ ____
ROOT
ATOM      1  C   UNL     1       2.222   7.144  19.698  0.00  0.00    +0.000 C 
ENDROOT
BRANCH   1   2
ATOM      2  C   UNL     1       2.706   5.680  19.822  0.00  0.00    +0.000 C 
ATOM      3  C   UNL     1       1.867   4.735  18.934  0.00  0.00    +0.000 C 
ATOM      4  C   UNL     1       1.819   3.406  19.688  0.00  0.00    +0.000 C 
ATOM      5  C   UNL     1       1.995   3.826  21.122  0.00  0.00    +0.000 C 
ATOM      6  O   UNL     1       1.863   3.119  22.106  0.00  0.00    +0.000 OA
ATOM      7  N   UNL     1       2.385   5.150  21.141  0.00  0.00    +0.000 N 
ATOM      8  H   UNL     1       2.651   5.579  22.018  0.00  0.00    +0.000 HD
BRANCH   2   9
ATOM      9  C   UNL     1       4.227   5.512  19.497  0.00  0.00    +0.000 C 
BRANCH   9  10
ATOM     10  C   UNL     1       4.604   5.435  18.029  0.00  0.00    +0.000 A 
ATOM     11  C   UNL     1       4.740   6.599  17.259  0.00  0.00    +0.000 A 
ATOM     12  C   UNL     1       5.101   6.527  15.911  0.00  0.00    +0.000 A 
ATOM     13  C   UNL     1       5.355   5.293  15.319  0.00  0.00    +0.000 A 
ATOM     14  C   UNL     1       5.243   4.128  16.074  0.00  0.00    +0.000 A 
ATOM     15  C   UNL     1       4.869   4.198  17.420  0.00  0.00    +0.000 A 
ENDBRANCH   9  10
ENDBRANCH   2   9
ENDBRANCH   1   2
BRANCH   1  16
ATOM     16  C   UNL     1       1.334   7.591  20.863  0.00  0.00    +0.000 C 
BRANCH  16  18
ATOM     17  O   UNL     1       1.375   9.684  22.037  0.00  0.00    +0.000 OA
ATOM     18  C   UNL     1       1.201   9.095  20.975  0.00  0.00    +0.000 C 
ATOM     19  N   UNL     1       0.837   9.728  19.816  0.00  0.00    +0.000 N 
ATOM     20  H   UNL     1       0.541   9.181  19.010  0.00  0.00    +0.000 HD
BRANCH  19  21
ATOM     21  C   UNL     1       0.524  11.162  19.777  0.00  0.00    +0.000 C 
ATOM     22  C   UNL     1       1.631  11.915  19.035  0.00  0.00    +0.000 C 
ATOM     23  C   UNL     1       1.666  13.411  19.345  0.00  0.00    +0.000 C 
ATOM     24  C   UNL     1       0.514  14.201  18.734  0.00  0.00    +0.000 C 
ATOM     25  C   UNL     1      -0.851  13.798  19.270  0.00  0.00    +0.000 C 
ATOM     26  N   UNL     1      -1.323  12.529  18.766  0.00  0.00    +0.000 N 
ATOM     27  C   UNL     1      -0.849  11.292  19.093  0.00  0.00    +0.000 C 
ATOM     28  O   UNL     1      -1.553  10.308  18.848  0.00  0.00    +0.000 OA
ATOM     29  H   UNL     1      -2.254  12.495  18.367  0.00  0.00    +0.000 HD
ENDBRANCH  19  21
ENDBRANCH  16  18
ENDBRANCH   1  16
TORSDOF 6
ENDMDL
MODEL 8
REMARK VINA RESULT:      -8.0      1.429      2.163
REMARK  Name = 
REMARK  6 active torsions:
REMARK  status: ('A' for Active; 'I' for Inactive)
REMARK    1  A    between atoms: C_2  and  C_3
REMARK    2  A    between atoms: C_3  and  C_4
REMARK    3  A    between atoms: C_4  and  C_5
REMARK    4  A    between atoms: C_5  and  C_6
REMARK    5  A    between atoms: C_6  and  C_7
REMARK    6  A    between atoms: N_18  and  C_19
REMARK                            x       y       z     vdW  Elec       q    Type
REMARK                         _______ _______ _______ _____ _____    ______ ____
ROOT
ATOM      1  C   UNL     1       3.156   6.690  19.211  0.00  0.00    +0.000 C 
ENDROOT
BRANCH   1   2
ATOM      2  C   UNL     1       2.994   5.156  19.097  0.00  0.00    +0.000 C 
ATOM      3  C   UNL     1       2.094   4.774  17.903  0.00  0.00    +0.000 C 
ATOM      4  C   UNL     1       1.359   3.505  18.338  0.00  0.00    +0.000 C 
ATOM      5  C   UNL     1       1.338   3.626  19.838  0.00  0.00    +0.000 C 
ATOM      6  O   UNL     1       0.715   2.922  20.613  0.00  0.00    +0.000 OA
ATOM      7  N   UNL     1       2.191   4.648  20.202  0.00  0.00    +0.000 N 
ATOM      8  H   UNL     1       2.386   4.810  21.182  0.00  0.00    +0.000 HD
BRANCH   2   9
ATOM      9  C   UNL     1       4.364   4.405  18.999  0.00  0.00    +0.000 C 
BRANCH   9  10
ATOM     10  C   UNL     1       5.184   4.649  17.745  0.00  0.00    +0.000 A 
ATOM     11  C   UNL     1       6.197   5.618  17.725  0.00  0.00    +0.000 A 
ATOM     12  C   UNL     1       6.960   5.831  16.574  0.00  0.00    +0.000 A 
ATOM     13  C   UNL     1       6.738   5.063  15.435  0.00  0.00    +0.000 A 
ATOM     14  C   UNL     1       5.749   4.083  15.443  0.00  0.00    +0.000 A 
ATOM     15  C   UNL     1       4.975   3.878  16.591  0.00  0.00    +0.000 A 
ENDBRANCH   9  10
ENDBRANCH   2   9
ENDBRANCH   1   2
BRANCH   1  16
ATOM     16  C   UNL     1       2.757   7.440  17.937  0.00  0.00    +0.000 C 
BRANCH  16  18
ATOM     17  O   UNL     1       2.090   9.689  17.426  0.00  0.00    +0.000 OA
ATOM     18  C   UNL     1       2.035   8.743  18.206  0.00  0.00    +0.000 C 
ATOM     19  N   UNL     1       1.355   8.789  19.395  0.00  0.00    +0.000 N 
ATOM     20  H   UNL     1       1.479   8.046  20.079  0.00  0.00    +0.000 HD
BRANCH  19  21
ATOM     21  C   UNL     1       0.719  10.019  19.881  0.00  0.00    +0.000 C 
ATOM     22  C   UNL     1      -0.676  10.161  19.267  0.00  0.00    +0.000 C 
ATOM     23  C   UNL     1      -1.219  11.589  19.306  0.00  0.00    +0.000 C 
ATOM     24  C   UNL     1      -1.621  12.064  20.698  0.00  0.00    +0.000 C 
ATOM     25  C   UNL     1      -0.457  12.140  21.675  0.00  0.00    +0.000 C 
ATOM     26  N   UNL     1       0.000  10.850  22.138  0.00  0.00    +0.000 N 
ATOM     27  C   UNL     1       0.688   9.919  21.417  0.00  0.00    +0.000 C 
ATOM     28  O   UNL     1       1.290   9.029  22.026  0.00  0.00    +0.000 OA
ATOM     29  H   UNL     1       0.091  10.712  23.138  0.00  0.00    +0.000 HD
ENDBRANCH  19  21
ENDBRANCH  16  18
ENDBRANCH   1  16
TORSDOF 6
ENDMDL
MODEL 9
REMARK VINA RESULT:      -8.0      2.317      4.171
REMARK  Name = 
REMARK  6 active torsions:
REMARK  status: ('A' for Active; 'I' for Inactive)
REMARK    1  A    between atoms: C_2  and  C_3
REMARK    2  A    between atoms: C_3  and  C_4
REMARK    3  A    between atoms: C_4  and  C_5
REMARK    4  A    between atoms: C_5  and  C_6
REMARK    5  A    between atoms: C_6  and  C_7
REMARK    6  A    between atoms: N_18  and  C_19
REMARK                            x       y       z     vdW  Elec       q    Type
REMARK                         _______ _______ _______ _____ _____    ______ ____
ROOT
ATOM      1  C   UNL     1       4.005   6.096  17.728  0.00  0.00    +0.000 C 
ENDROOT
BRANCH   1   2
ATOM      2  C   UNL     1       5.001   5.030  17.214  0.00  0.00    +0.000 C 
ATOM      3  C   UNL     1       6.228   4.913  18.143  0.00  0.00    +0.000 C 
ATOM      4  C   UNL     1       7.399   4.558  17.226  0.00  0.00    +0.000 C 
ATOM      5  C   UNL     1       6.976   5.132  15.902  0.00  0.00    +0.000 C 
ATOM      6  O   UNL     1       7.665   5.234  14.902  0.00  0.00    +0.000 OA
ATOM      7  N   UNL     1       5.645   5.486  15.989  0.00  0.00    +0.000 N 
ATOM      8  H   UNL     1       5.156   5.798  15.159  0.00  0.00    +0.000 HD
BRANCH   2   9
ATOM      9  C   UNL     1       4.340   3.625  17.017  0.00  0.00    +0.000 C 
BRANCH   9  10
ATOM     10  C   UNL     1       3.262   3.236  18.013  0.00  0.00    +0.000 A 
ATOM     11  C   UNL     1       1.904   3.388  17.698  0.00  0.00    +0.000 A 
ATOM     12  C   UNL     1       0.913   3.016  18.609  0.00  0.00    +0.000 A 
ATOM     13  C   UNL     1       1.263   2.465  19.839  0.00  0.00    +0.000 A 
ATOM     14  C   UNL     1       2.606   2.290  20.160  0.00  0.00    +0.000 A 
ATOM     15  C   UNL     1       3.600   2.674  19.253  0.00  0.00    +0.000 A 
ENDBRANCH   9  10
ENDBRANCH   2   9
ENDBRANCH   1   2
BRANCH   1  16
ATOM     16  C   UNL     1       3.794   6.049  19.244  0.00  0.00    +0.000 C 
BRANCH  16  18
ATOM     17  O   UNL     1       1.703   6.193  20.414  0.00  0.00    +0.000 OA
ATOM     18  C   UNL     1       2.530   6.748  19.697  0.00  0.00    +0.000 C 
ATOM     19  N   UNL     1       2.372   8.021  19.215  0.00  0.00    +0.000 N 
ATOM     20  H   UNL     1       2.998   8.372  18.492  0.00  0.00    +0.000 HD
BRANCH  19  21
ATOM     21  C   UNL     1       1.141   8.791  19.435  0.00  0.00    +0.000 C 
ATOM     22  C   UNL     1       1.141   9.373  20.851  0.00  0.00    +0.000 C 
ATOM     23  C   UNL     1      -0.251   9.763  21.351  0.00  0.00    +0.000 C 
ATOM     24  C   UNL     1      -0.828  11.004  20.679  0.00  0.00    +0.000 C 
ATOM     25  C   UNL     1      -1.064  10.833  19.186  0.00  0.00    +0.000 C 
ATOM     26  N   UNL     1       0.149  10.850  18.399  0.00  0.00    +0.000 N 
ATOM     27  C   UNL     1       1.100   9.875  18.343  0.00  0.00    +0.000 C 
ATOM     28  O   UNL     1       1.892   9.878  17.396  0.00  0.00    +0.000 OA
ATOM     29  H   UNL     1       0.187  11.477  17.604  0.00  0.00    +0.000 HD
ENDBRANCH  19  21
ENDBRANCH  16  18
ENDBRANCH   1  16
TORSDOF 6
ENDMDL
