MODEL 1
REMARK VINA RESULT:      -6.8      0.000      0.000
REMARK  Name = 
REMARK  5 active torsions:
REMARK  status: ('A' for Active; 'I' for Inactive)
REMARK    1  A    between atoms: S_1  and  C_2
REMARK    2  A    between atoms: C_5  and  C_6
REMARK    3  A    between atoms: C_6  and  N_7
REMARK    4  A    between atoms: N_12  and  C_13
REMARK    5  A    between atoms: C_13  and  C_14
REMARK                            x       y       z     vdW  Elec       q    Type
REMARK                         _______ _______ _______ _____ _____    ______ ____
ROOT
ATOM      1  C   UNL     1       4.129   3.712  19.251  0.00  0.00    +0.000 A 
ATOM      2  N   UNL     1       5.322   3.428  19.707  0.00  0.00    +0.000 NA
ATOM      3  N   UNL     1       6.181   4.391  19.238  0.00  0.00    +0.000 NA
ATOM      4  C   UNL     1       5.494   5.266  18.521  0.00  0.00    +0.000 A 
ATOM      5  N   UNL     1       4.166   4.881  18.534  0.00  0.00    +0.000 N 
ENDROOT
BRANCH   1   6
ATOM      6  S   UNL     1       2.709   2.772  19.531  0.00  0.00    +0.000 S 
ATOM      7  H   UNL     1       2.449   2.486  18.248  0.00  0.00    +0.000 HD
ENDBRANCH   1   6
BRANCH   4   8
ATOM      8  C   UNL     1       6.079   6.369  17.681  0.00  0.00    +0.000 C 
BRANCH   8   9
ATOM      9  N   UNL     1       6.463   6.070  16.299  0.00  0.00    +0.000 NA
ATOM     10  C   UNL     1       5.391   6.099  15.307  0.00  0.00    +0.000 C 
ATOM     11  C   UNL     1       5.175   4.655  14.898  0.00  0.00    +0.000 C 
ATOM     12  C   UNL     1       6.545   4.025  15.049  0.00  0.00    +0.000 C 
ATOM     13  C   UNL     1       7.250   4.855  16.111  0.00  0.00    +0.000 C 
ENDBRANCH   8   9
ENDBRANCH   4   8
BRANCH   5  14
ATOM     14  C   UNL     1       3.050   5.525  17.864  0.00  0.00    +0.000 C 
BRANCH  14  15
ATOM     15  C   UNL     1       2.523   6.751  18.571  0.00  0.00    +0.000 A 
ATOM     16  C   UNL     1       2.268   7.901  17.802  0.00  0.00    +0.000 A 
ATOM     17  C   UNL     1       1.712   9.045  18.379  0.00  0.00    +0.000 A 
ATOM     18  C   UNL     1       1.387   9.056  19.731  0.00  0.00    +0.000 A 
ATOM     19  C   UNL     1       1.614   7.920  20.506  0.00  0.00    +0.000 A 
ATOM     20  C   UNL     1       2.173   6.775  19.930  0.00  0.00    +0.000 A 
ENDBRANCH  14  15
ENDBRANCH   5  14
TORSDOF 5
ENDMDL
MODEL 2
REMARK VINA RESULT:      -6.7      2.412      5.928
REMARK  Name = 
REMARK  5 active torsions:
REMARK  status: ('A' for Active; 'I' for Inactive)
REMARK    1  A    between atoms: S_1  and  C_2
REMARK    2  A    between atoms: C_5  and  C_6
REMARK    3  A    between atoms: C_6  and  N_7
REMARK    4  A    between atoms: N_12  and  C_13
REMARK    5  A    between atoms: C_13  and  C_14
REMARK                            x       y       z     vdW  Elec       q    Type
REMARK                         _______ _______ _______ _____ _____    ______ ____
ROOT
ATOM      1  C   UNL     1       6.372   5.287  18.255  0.00  0.00    +0.000 A 
ATOM      2  N   UNL     1       6.296   4.471  19.274  0.00  0.00    +0.000 NA
ATOM      3  N   UNL     1       5.215   3.650  19.065  0.00  0.00    +0.000 NA
ATOM      4  C   UNL     1       4.659   3.962  17.905  0.00  0.00    +0.000 A 
ATOM      5  N   UNL     1       5.395   4.987  17.340  0.00  0.00    +0.000 N 
ENDROOT
BRANCH   1   6
ATOM      6  S   UNL     1       7.544   6.540  18.070  0.00  0.00    +0.000 S 
ATOM      7  H   UNL     1       8.413   6.084  18.983  0.00  0.00    +0.000 HD
ENDBRANCH   1   6
BRANCH   4   8
ATOM      8  C   UNL     1       3.349   3.433  17.385  0.00  0.00    +0.000 C 
BRANCH   8   9
ATOM      9  N   UNL     1       2.105   4.003  17.909  0.00  0.00    +0.000 NA
ATOM     10  C   UNL     1       2.215   5.294  18.583  0.00  0.00    +0.000 C 
ATOM     11  C   UNL     1       1.969   5.010  20.051  0.00  0.00    +0.000 C 
ATOM     12  C   UNL     1       1.018   3.830  20.040  0.00  0.00    +0.000 C 
ATOM     13  C   UNL     1       1.297   3.106  18.731  0.00  0.00    +0.000 C 
ENDBRANCH   8   9
ENDBRANCH   4   8
BRANCH   5  14
ATOM     14  C   UNL     1       5.145   5.668  16.081  0.00  0.00    +0.000 C 
BRANCH  14  15
ATOM     15  C   UNL     1       5.821   5.036  14.887  0.00  0.00    +0.000 A 
ATOM     16  C   UNL     1       5.080   4.126  14.111  0.00  0.00    +0.000 A 
ATOM     17  C   UNL     1       5.620   3.562  12.953  0.00  0.00    +0.000 A 
ATOM     18  C   UNL     1       6.903   3.907  12.541  0.00  0.00    +0.000 A 
ATOM     19  C   UNL     1       7.645   4.822  13.286  0.00  0.00    +0.000 A 
ATOM     20  C   UNL     1       7.107   5.386  14.447  0.00  0.00    +0.000 A 
ENDBRANCH  14  15
ENDBRANCH   5  14
TORSDOF 5
ENDMDL
MODEL 3
REMARK VINA RESULT:      -6.6      0.975      1.306
REMARK  Name = 
REMARK  5 active torsions:
REMARK  status: ('A' for Active; 'I' for Inactive)
REMARK    1  A    between atoms: S_1  and  C_2
REMARK    2  A    between atoms: C_5  and  C_6
REMARK    3  A    between atoms: C_6  and  N_7
REMARK    4  A    between atoms: N_12  and  C_13
REMARK    5  A    between atoms: C_13  and  C_14
REMARK                            x       y       z     vdW  Elec       q    Type
REMARK                         _______ _______ _______ _____ _____    ______ ____
ROOT
ATOM      1  C   UNL     1       3.033   2.868  19.116  0.00  0.00    +0.000 A 
ATOM      2  N   UNL     1       3.949   2.226  19.795  0.00  0.00    +0.000 NA
ATOM      3  N   UNL     1       5.056   3.035  19.861  0.00  0.00    +0.000 NA
ATOM      4  C   UNL     1       4.792   4.173  19.240  0.00  0.00    +0.000 A 
ATOM      5  N   UNL     1       3.490   4.116  18.777  0.00  0.00    +0.000 N 
ENDROOT
BRANCH   1   6
ATOM      6  S   UNL     1       1.469   2.251  18.726  0.00  0.00    +0.000 S 
ATOM      7  H   UNL     1       0.779   3.359  19.029  0.00  0.00    +0.000 HD
ENDBRANCH   1   6
BRANCH   4   8
ATOM      8  C   UNL     1       5.789   5.256  18.923  0.00  0.00    +0.000 C 
BRANCH   8   9
ATOM      9  N   UNL     1       6.385   5.290  17.585  0.00  0.00    +0.000 NA
ATOM     10  C   UNL     1       6.250   6.543  16.846  0.00  0.00    +0.000 C 
ATOM     11  C   UNL     1       5.276   6.251  15.721  0.00  0.00    +0.000 C 
ATOM     12  C   UNL     1       5.508   4.786  15.410  0.00  0.00    +0.000 C 
ATOM     13  C   UNL     1       6.026   4.181  16.705  0.00  0.00    +0.000 C 
ENDBRANCH   8   9
ENDBRANCH   4   8
BRANCH   5  14
ATOM     14  C   UNL     1       2.775   5.126  18.018  0.00  0.00    +0.000 C 
BRANCH  14  15
ATOM     15  C   UNL     1       2.366   6.337  18.823  0.00  0.00    +0.000 A 
ATOM     16  C   UNL     1       2.283   7.576  18.160  0.00  0.00    +0.000 A 
ATOM     17  C   UNL     1       1.841   8.721  18.828  0.00  0.00    +0.000 A 
ATOM     18  C   UNL     1       1.461   8.647  20.163  0.00  0.00    +0.000 A 
ATOM     19  C   UNL     1       1.518   7.424  20.831  0.00  0.00    +0.000 A 
ATOM     20  C   UNL     1       1.962   6.278  20.166  0.00  0.00    +0.000 A 
ENDBRANCH  14  15
ENDBRANCH   5  14
TORSDOF 5
ENDMDL
MODEL 4
REMARK VINA RESULT:      -6.6      0.126      1.110
REMARK  Name = 
REMARK  5 active torsions:
REMARK  status: ('A' for Active; 'I' for Inactive)
REMARK    1  A    between atoms: S_1  and  C_2
REMARK    2  A    between atoms: C_5  and  C_6
REMARK    3  A    between atoms: C_6  and  N_7
REMARK    4  A    between atoms: N_12  and  C_13
REMARK    5  A    between atoms: C_13  and  C_14
REMARK                            x       y       z     vdW  Elec       q    Type
REMARK                         _______ _______ _______ _____ _____    ______ ____
ROOT
ATOM      1  C   UNL     1       4.167   3.755  19.292  0.00  0.00    +0.000 A 
ATOM      2  N   UNL     1       5.362   3.526  19.773  0.00  0.00    +0.000 NA
ATOM      3  N   UNL     1       6.200   4.490  19.269  0.00  0.00    +0.000 NA
ATOM      4  C   UNL     1       5.498   5.311  18.504  0.00  0.00    +0.000 A 
ATOM      5  N   UNL     1       4.181   4.890  18.522  0.00  0.00    +0.000 N 
ENDROOT
BRANCH   1   6
ATOM      6  S   UNL     1       2.770   2.790  19.601  0.00  0.00    +0.000 S 
ATOM      7  H   UNL     1       2.449   3.344  20.779  0.00  0.00    +0.000 HD
ENDBRANCH   1   6
BRANCH   4   8
ATOM      8  C   UNL     1       6.062   6.390  17.620  0.00  0.00    +0.000 C 
BRANCH   8   9
ATOM      9  N   UNL     1       6.466   6.039  16.256  0.00  0.00    +0.000 NA
ATOM     10  C   UNL     1       5.412   6.045  15.244  0.00  0.00    +0.000 C 
ATOM     11  C   UNL     1       5.186   4.590  14.882  0.00  0.00    +0.000 C 
ATOM     12  C   UNL     1       6.545   3.950  15.079  0.00  0.00    +0.000 C 
ATOM     13  C   UNL     1       7.242   4.808  16.125  0.00  0.00    +0.000 C 
ENDBRANCH   8   9
ENDBRANCH   4   8
BRANCH   5  14
ATOM     14  C   UNL     1       3.056   5.471  17.810  0.00  0.00    +0.000 C 
BRANCH  14  15
ATOM     15  C   UNL     1       2.441   6.671  18.491  0.00  0.00    +0.000 A 
ATOM     16  C   UNL     1       2.196   6.595  19.874  0.00  0.00    +0.000 A 
ATOM     17  C   UNL     1       1.698   7.693  20.579  0.00  0.00    +0.000 A 
ATOM     18  C   UNL     1       1.447   8.891  19.918  0.00  0.00    +0.000 A 
ATOM     19  C   UNL     1       1.702   8.992  18.551  0.00  0.00    +0.000 A 
ATOM     20  C   UNL     1       2.198   7.893  17.844  0.00  0.00    +0.000 A 
ENDBRANCH  14  15
ENDBRANCH   5  14
TORSDOF 5
ENDMDL
MODEL 5
REMARK VINA RESULT:      -6.6      1.731      2.493
REMARK  Name = 
REMARK  5 active torsions:
REMARK  status: ('A' for Active; 'I' for Inactive)
REMARK    1  A    between atoms: S_1  and  C_2
REMARK    2  A    between atoms: C_5  and  C_6
REMARK    3  A    between atoms: C_6  and  N_7
REMARK    4  A    between atoms: N_12  and  C_13
REMARK    5  A    between atoms: C_13  and  C_14
REMARK                            x       y       z     vdW  Elec       q    Type
REMARK                         _______ _______ _______ _____ _____    ______ ____
ROOT
ATOM      1  C   UNL     1       2.251   3.026  19.679  0.00  0.00    +0.000 A 
ATOM      2  N   UNL     1       1.926   2.045  18.877  0.00  0.00    +0.000 NA
ATOM      3  N   UNL     1       2.567   2.262  17.682  0.00  0.00    +0.000 NA
ATOM      4  C   UNL     1       3.294   3.363  17.780  0.00  0.00    +0.000 A 
ATOM      5  N   UNL     1       3.143   3.864  19.060  0.00  0.00    +0.000 N 
ENDROOT
BRANCH   1   6
ATOM      6  S   UNL     1       1.667   3.226  21.291  0.00  0.00    +0.000 S 
ATOM      7  H   UNL     1       2.137   4.467  21.481  0.00  0.00    +0.000 HD
ENDBRANCH   1   6
BRANCH   4   8
ATOM      8  C   UNL     1       4.003   4.054  16.646  0.00  0.00    +0.000 C 
BRANCH   8   9
ATOM      9  N   UNL     1       5.441   3.827  16.475  0.00  0.00    +0.000 NA
ATOM     10  C   UNL     1       6.329   4.622  17.320  0.00  0.00    +0.000 C 
ATOM     11  C   UNL     1       7.009   5.604  16.387  0.00  0.00    +0.000 C 
ATOM     12  C   UNL     1       7.086   4.860  15.068  0.00  0.00    +0.000 C 
ATOM     13  C   UNL     1       5.928   3.874  15.099  0.00  0.00    +0.000 C 
ENDBRANCH   8   9
ENDBRANCH   4   8
BRANCH   5  14
ATOM     14  C   UNL     1       3.734   5.069  19.615  0.00  0.00    +0.000 C 
BRANCH  14  15
ATOM     15  C   UNL     1       2.996   6.341  19.269  0.00  0.00    +0.000 A 
ATOM     16  C   UNL     1       2.174   6.918  20.254  0.00  0.00    +0.000 A 
ATOM     17  C   UNL     1       1.521   8.132  20.026  0.00  0.00    +0.000 A 
ATOM     18  C   UNL     1       1.688   8.797  18.816  0.00  0.00    +0.000 A 
ATOM     19  C   UNL     1       2.513   8.250  17.835  0.00  0.00    +0.000 A 
ATOM     20  C   UNL     1       3.166   7.034  18.061  0.00  0.00    +0.000 A 
ENDBRANCH  14  15
ENDBRANCH   5  14
TORSDOF 5
ENDMDL
MODEL 6
REMARK VINA RESULT:      -6.6      2.186      4.323
REMARK  Name = 
REMARK  5 active torsions:
REMARK  status: ('A' for Active; 'I' for Inactive)
REMARK    1  A    between atoms: S_1  and  C_2
REMARK    2  A    between atoms: C_5  and  C_6
REMARK    3  A    between atoms: C_6  and  N_7
REMARK    4  A    between atoms: N_12  and  C_13
REMARK    5  A    between atoms: C_13  and  C_14
REMARK                            x       y       z     vdW  Elec       q    Type
REMARK                         _______ _______ _______ _____ _____    ______ ____
ROOT
ATOM      1  C   UNL     1       5.173   4.963  17.881  0.00  0.00    +0.000 A 
ATOM      2  N   UNL     1       5.141   4.148  16.858  0.00  0.00    +0.000 NA
ATOM      3  N   UNL     1       3.847   3.709  16.724  0.00  0.00    +0.000 NA
ATOM      4  C   UNL     1       3.100   4.283  17.654  0.00  0.00    +0.000 A 
ATOM      5  N   UNL     1       3.912   5.122  18.395  0.00  0.00    +0.000 N 
ENDROOT
BRANCH   1   6
ATOM      6  S   UNL     1       6.588   5.749  18.480  0.00  0.00    +0.000 S 
ATOM      7  H   UNL     1       6.901   4.833  19.408  0.00  0.00    +0.000 HD
ENDBRANCH   1   6
BRANCH   4   8
ATOM      8  C   UNL     1       1.671   3.938  17.973  0.00  0.00    +0.000 C 
BRANCH   8   9
ATOM      9  N   UNL     1       1.398   3.064  19.117  0.00  0.00    +0.000 NA
ATOM     10  C   UNL     1       0.742   3.682  20.265  0.00  0.00    +0.000 C 
ATOM     11  C   UNL     1       1.793   3.737  21.356  0.00  0.00    +0.000 C 
ATOM     12  C   UNL     1       2.665   2.528  21.082  0.00  0.00    +0.000 C 
ATOM     13  C   UNL     1       2.530   2.271  19.588  0.00  0.00    +0.000 C 
ENDBRANCH   8   9
ENDBRANCH   4   8
BRANCH   5  14
ATOM     14  C   UNL     1       3.535   5.939  19.535  0.00  0.00    +0.000 C 
BRANCH  14  15
ATOM     15  C   UNL     1       2.707   7.152  19.184  0.00  0.00    +0.000 A 
ATOM     16  C   UNL     1       1.872   7.694  20.179  0.00  0.00    +0.000 A 
ATOM     17  C   UNL     1       1.135   8.858  19.944  0.00  0.00    +0.000 A 
ATOM     18  C   UNL     1       1.229   9.508  18.719  0.00  0.00    +0.000 A 
ATOM     19  C   UNL     1       2.065   8.997  17.728  0.00  0.00    +0.000 A 
ATOM     20  C   UNL     1       2.802   7.832  17.960  0.00  0.00    +0.000 A 
ENDBRANCH  14  15
ENDBRANCH   5  14
TORSDOF 5
ENDMDL
MODEL 7
REMARK VINA RESULT:      -6.5      3.152      5.989
REMARK  Name = 
REMARK  5 active torsions:
REMARK  status: ('A' for Active; 'I' for Inactive)
REMARK    1  A    between atoms: S_1  and  C_2
REMARK    2  A    between atoms: C_5  and  C_6
REMARK    3  A    between atoms: C_6  and  N_7
REMARK    4  A    between atoms: N_12  and  C_13
REMARK    5  A    between atoms: C_13  and  C_14
REMARK                            x       y       z     vdW  Elec       q    Type
REMARK                         _______ _______ _______ _____ _____    ______ ____
ROOT
ATOM      1  C   UNL     1       6.759   5.959  18.114  0.00  0.00    +0.000 A 
ATOM      2  N   UNL     1       6.978   5.299  19.222  0.00  0.00    +0.000 NA
ATOM      3  N   UNL     1       6.076   4.265  19.269  0.00  0.00    +0.000 NA
ATOM      4  C   UNL     1       5.332   4.295  18.174  0.00  0.00    +0.000 A 
ATOM      5  N   UNL     1       5.765   5.350  17.393  0.00  0.00    +0.000 N 
ENDROOT
BRANCH   1   6
ATOM      6  S   UNL     1       7.614   7.374  17.617  0.00  0.00    +0.000 S 
ATOM      7  H   UNL     1       6.846   7.661  16.556  0.00  0.00    +0.000 HD
ENDBRANCH   1   6
BRANCH   4   8
ATOM      8  C   UNL     1       4.110   3.455  17.916  0.00  0.00    +0.000 C 
BRANCH   8   9
ATOM      9  N   UNL     1       2.845   3.847  18.541  0.00  0.00    +0.000 NA
ATOM     10  C   UNL     1       2.735   3.623  19.981  0.00  0.00    +0.000 C 
ATOM     11  C   UNL     1       1.742   2.490  20.142  0.00  0.00    +0.000 C 
ATOM     12  C   UNL     1       0.808   2.652  18.960  0.00  0.00    +0.000 C 
ATOM     13  C   UNL     1       1.637   3.347  17.890  0.00  0.00    +0.000 C 
ENDBRANCH   8   9
ENDBRANCH   4   8
BRANCH   5  14
ATOM     14  C   UNL     1       5.230   5.782  16.114  0.00  0.00    +0.000 C 
BRANCH  14  15
ATOM     15  C   UNL     1       5.860   5.110  14.916  0.00  0.00    +0.000 A 
ATOM     16  C   UNL     1       5.100   4.154  14.218  0.00  0.00    +0.000 A 
ATOM     17  C   UNL     1       5.593   3.548  13.060  0.00  0.00    +0.000 A 
ATOM     18  C   UNL     1       6.848   3.896  12.571  0.00  0.00    +0.000 A 
ATOM     19  C   UNL     1       7.608   4.855  13.238  0.00  0.00    +0.000 A 
ATOM     20  C   UNL     1       7.116   5.461  14.398  0.00  0.00    +0.000 A 
ENDBRANCH  14  15
ENDBRANCH   5  14
TORSDOF 5
ENDMDL
MODEL 8
REMARK VINA RESULT:      -6.5      2.972      5.902
REMARK  Name = 
REMARK  5 active torsions:
REMARK  status: ('A' for Active; 'I' for Inactive)
REMARK    1  A    between atoms: S_1  and  C_2
REMARK    2  A    between atoms: C_5  and  C_6
REMARK    3  A    between atoms: C_6  and  N_7
REMARK    4  A    between atoms: N_12  and  C_13
REMARK    5  A    between atoms: C_13  and  C_14
REMARK                            x       y       z     vdW  Elec       q    Type
REMARK                         _______ _______ _______ _____ _____    ______ ____
ROOT
ATOM      1  C   UNL     1       6.771   6.026  18.226  0.00  0.00    +0.000 A 
ATOM      2  N   UNL     1       6.986   5.308  19.298  0.00  0.00    +0.000 NA
ATOM      3  N   UNL     1       6.046   4.308  19.319  0.00  0.00    +0.000 NA
ATOM      4  C   UNL     1       5.283   4.415  18.243  0.00  0.00    +0.000 A 
ATOM      5  N   UNL     1       5.741   5.487  17.499  0.00  0.00    +0.000 N 
ENDROOT
BRANCH   1   6
ATOM      6  S   UNL     1       7.669   7.429  17.773  0.00  0.00    +0.000 S 
ATOM      7  H   UNL     1       7.738   7.978  18.994  0.00  0.00    +0.000 HD
ENDBRANCH   1   6
BRANCH   4   8
ATOM      8  C   UNL     1       4.025   3.634  17.973  0.00  0.00    +0.000 C 
BRANCH   8   9
ATOM      9  N   UNL     1       3.243   3.149  19.114  0.00  0.00    +0.000 NA
ATOM     10  C   UNL     1       2.376   2.000  18.865  0.00  0.00    +0.000 C 
ATOM     11  C   UNL     1       0.960   2.537  18.923  0.00  0.00    +0.000 C 
ATOM     12  C   UNL     1       1.045   3.682  19.912  0.00  0.00    +0.000 C 
ATOM     13  C   UNL     1       2.485   4.166  19.838  0.00  0.00    +0.000 C 
ENDBRANCH   8   9
ENDBRANCH   4   8
BRANCH   5  14
ATOM     14  C   UNL     1       5.198   5.996  16.252  0.00  0.00    +0.000 C 
BRANCH  14  15
ATOM     15  C   UNL     1       5.693   5.279  15.018  0.00  0.00    +0.000 A 
ATOM     16  C   UNL     1       6.997   5.558  14.569  0.00  0.00    +0.000 A 
ATOM     17  C   UNL     1       7.544   4.877  13.479  0.00  0.00    +0.000 A 
ATOM     18  C   UNL     1       6.804   3.897  12.826  0.00  0.00    +0.000 A 
ATOM     19  C   UNL     1       5.517   3.594  13.269  0.00  0.00    +0.000 A 
ATOM     20  C   UNL     1       4.968   4.275  14.358  0.00  0.00    +0.000 A 
ENDBRANCH  14  15
ENDBRANCH   5  14
TORSDOF 5
ENDMDL
MODEL 9
REMARK VINA RESULT:      -6.5      2.625      5.148
REMARK  Name = 
REMARK  5 active torsions:
REMARK  status: ('A' for Active; 'I' for Inactive)
REMARK    1  A    between atoms: S_1  and  C_2
REMARK    2  A    between atoms: C_5  and  C_6
REMARK    3  A    between atoms: C_6  and  N_7
REMARK    4  A    between atoms: N_12  and  C_13
REMARK    5  A    between atoms: C_13  and  C_14
REMARK                            x       y       z     vdW  Elec       q    Type
REMARK                         _______ _______ _______ _____ _____    ______ ____
ROOT
ATOM      1  C   UNL     1       2.458   6.903  19.113  0.00  0.00    +0.000 A 
ATOM      2  N   UNL     1       1.800   6.936  20.243  0.00  0.00    +0.000 NA
ATOM      3  N   UNL     1       2.118   5.794  20.937  0.00  0.00    +0.000 NA
ATOM      4  C   UNL     1       2.987   5.090  20.229  0.00  0.00    +0.000 A 
ATOM      5  N   UNL     1       3.255   5.788  19.065  0.00  0.00    +0.000 N 
ENDROOT
BRANCH   1   6
ATOM      6  S   UNL     1       2.363   8.101  17.873  0.00  0.00    +0.000 S 
ATOM      7  H   UNL     1       3.583   7.895  17.356  0.00  0.00    +0.000 HD
ENDBRANCH   1   6
BRANCH   4   8
ATOM      8  C   UNL     1       3.451   3.693  20.540  0.00  0.00    +0.000 C 
BRANCH   8   9
ATOM      9  N   UNL     1       2.647   2.565  20.062  0.00  0.00    +0.000 NA
ATOM     10  C   UNL     1       3.103   1.916  18.835  0.00  0.00    +0.000 C 
ATOM     11  C   UNL     1       2.082   2.282  17.776  0.00  0.00    +0.000 C 
ATOM     12  C   UNL     1       0.788   2.427  18.552  0.00  0.00    +0.000 C 
ATOM     13  C   UNL     1       1.211   2.810  19.962  0.00  0.00    +0.000 C 
ENDBRANCH   8   9
ENDBRANCH   4   8
BRANCH   5  14
ATOM     14  C   UNL     1       4.131   5.392  17.977  0.00  0.00    +0.000 C 
BRANCH  14  15
ATOM     15  C   UNL     1       5.558   5.867  18.121  0.00  0.00    +0.000 A 
ATOM     16  C   UNL     1       5.982   6.942  17.319  0.00  0.00    +0.000 A 
ATOM     17  C   UNL     1       7.265   7.478  17.453  0.00  0.00    +0.000 A 
ATOM     18  C   UNL     1       8.142   6.959  18.399  0.00  0.00    +0.000 A 
ATOM     19  C   UNL     1       7.734   5.906  19.216  0.00  0.00    +0.000 A 
ATOM     20  C   UNL     1       6.451   5.368  19.082  0.00  0.00    +0.000 A 
ENDBRANCH  14  15
ENDBRANCH   5  14
TORSDOF 5
ENDMDL
