MODEL 1
REMARK VINA RESULT:      -8.0      0.000      0.000
REMARK  Name = 
REMARK  6 active torsions:
REMARK  status: ('A' for Active; 'I' for Inactive)
REMARK    1  A    between atoms: C_2  and  C_3
REMARK    2  A    between atoms: C_6  and  C_7
REMARK    3  A    between atoms: C_16  and  N_17
REMARK    4  A    between atoms: N_17  and  C_18
REMARK    5  A    between atoms: C_18  and  C_19
REMARK    6  A    between atoms: C_18  and  C_25
REMARK                            x       y       z     vdW  Elec       q    Type
REMARK                         _______ _______ _______ _____ _____    ______ ____
ROOT
ATOM      1  O   UNL     1       3.460   5.754  20.255  0.00  0.00    +0.000 OA
ATOM      2  C   UNL     1       3.102   6.231  19.171  0.00  0.00    +0.000 C 
ATOM      3  N   UNL     1       2.036   7.133  19.086  0.00  0.00    +0.000 N 
ATOM      4  C   UNL     1       1.512   7.751  17.873  0.00  0.00    +0.000 C 
ATOM      5  C   UNL     1       1.904   9.230  17.892  0.00  0.00    +0.000 C 
ATOM      6  C   UNL     1       1.281   9.934  19.113  0.00  0.00    +0.000 C 
ATOM      7  C   UNL     1       1.706   9.190  20.397  0.00  0.00    +0.000 C 
ATOM      8  C   UNL     1       1.460   7.679  20.321  0.00  0.00    +0.000 C 
ENDROOT
BRANCH   2   9
ATOM      9  C   UNL     1       3.861   5.809  17.956  0.00  0.00    +0.000 A 
ATOM     10  C   UNL     1       3.728   4.482  17.526  0.00  0.00    +0.000 A 
ATOM     11  C   UNL     1       4.412   4.027  16.392  0.00  0.00    +0.000 A 
ATOM     12  C   UNL     1       5.221   4.900  15.651  0.00  0.00    +0.000 A 
ATOM     13  C   UNL     1       5.373   6.216  16.097  0.00  0.00    +0.000 A 
ATOM     14  C   UNL     1       4.742   6.643  17.266  0.00  0.00    +0.000 A 
BRANCH  12  15
ATOM     15  C   UNL     1       5.938   4.458  14.398  0.00  0.00    +0.000 C 
ATOM     16  F   UNL     1       5.105   4.131  13.375  0.00  0.00    +0.000 F 
ATOM     17  F   UNL     1       6.770   5.424  13.916  0.00  0.00    +0.000 F 
ATOM     18  F   UNL     1       6.722   3.365  14.611  0.00  0.00    +0.000 F 
ENDBRANCH  12  15
ENDBRANCH   2   9
BRANCH   6  19
ATOM     19  N   UNL     1      -0.166   9.981  18.860  0.00  0.00    +0.000 NA
ATOM     20  H   UNL     1      -0.661   9.517  19.621  0.00  0.00    +0.000 HD
BRANCH  19  21
ATOM     21  C   UNL     1      -0.770  11.323  18.745  0.00  0.00    +0.000 C 
BRANCH  21  22
ATOM     22  C   UNL     1      -0.763  11.988  20.120  0.00  0.00    +0.000 A 
ATOM     23  C   UNL     1      -1.046  11.270  21.303  0.00  0.00    +0.000 A 
ATOM     24  C   UNL     1      -1.086  11.925  22.538  0.00  0.00    +0.000 A 
ATOM     25  C   UNL     1      -0.850  13.293  22.595  0.00  0.00    +0.000 A 
ATOM     26  F   UNL     1      -0.919  13.920  23.773  0.00  0.00    +0.000 F 
ATOM     27  C   UNL     1      -0.539  14.014  21.450  0.00  0.00    +0.000 A 
ATOM     28  C   UNL     1      -0.497  13.358  20.226  0.00  0.00    +0.000 A 
ATOM     29  F   UNL     1      -0.182  14.060  19.129  0.00  0.00    +0.000 F 
ENDBRANCH  21  22
BRANCH  21  30
ATOM     30  C   UNL     1      -2.152  11.304  18.102  0.00  0.00    +0.000 A 
ATOM     31  C   UNL     1      -2.328  10.970  16.761  0.00  0.00    +0.000 A 
ATOM     32  N   UNL     1      -3.521  11.059  16.124  0.00  0.00    +0.000 NA
ATOM     33  C   UNL     1      -4.545  11.505  16.883  0.00  0.00    +0.000 A 
ATOM     34  C   UNL     1      -4.390  11.831  18.217  0.00  0.00    +0.000 A 
ATOM     35  N   UNL     1      -3.201  11.745  18.853  0.00  0.00    +0.000 NA
ENDBRANCH  21  30
ENDBRANCH  19  21
ENDBRANCH   6  19
TORSDOF 6
ENDMDL
MODEL 2
REMARK VINA RESULT:      -7.9      5.521      7.667
REMARK  Name = 
REMARK  6 active torsions:
REMARK  status: ('A' for Active; 'I' for Inactive)
REMARK    1  A    between atoms: C_2  and  C_3
REMARK    2  A    between atoms: C_6  and  C_7
REMARK    3  A    between atoms: C_16  and  N_17
REMARK    4  A    between atoms: N_17  and  C_18
REMARK    5  A    between atoms: C_18  and  C_19
REMARK    6  A    between atoms: C_18  and  C_25
REMARK                            x       y       z     vdW  Elec       q    Type
REMARK                         _______ _______ _______ _____ _____    ______ ____
ROOT
ATOM      1  O   UNL     1       4.006  17.202  19.512  0.00  0.00    +0.000 OA
ATOM      2  C   UNL     1       4.078  15.967  19.512  0.00  0.00    +0.000 C 
ATOM      3  N   UNL     1       2.959  15.170  19.778  0.00  0.00    +0.000 N 
ATOM      4  C   UNL     1       2.919  13.712  19.822  0.00  0.00    +0.000 C 
ATOM      5  C   UNL     1       2.155  13.226  18.589  0.00  0.00    +0.000 C 
ATOM      6  C   UNL     1       0.709  13.760  18.608  0.00  0.00    +0.000 C 
ATOM      7  C   UNL     1       0.741  15.300  18.719  0.00  0.00    +0.000 C 
ATOM      8  C   UNL     1       1.635  15.798  19.859  0.00  0.00    +0.000 C 
ENDROOT
BRANCH   2   9
ATOM      9  C   UNL     1       5.409  15.362  19.210  0.00  0.00    +0.000 A 
ATOM     10  C   UNL     1       5.636  14.889  17.911  0.00  0.00    +0.000 A 
ATOM     11  C   UNL     1       6.866  14.313  17.565  0.00  0.00    +0.000 A 
ATOM     12  C   UNL     1       7.900  14.226  18.508  0.00  0.00    +0.000 A 
ATOM     13  C   UNL     1       7.662  14.674  19.810  0.00  0.00    +0.000 A 
ATOM     14  C   UNL     1       6.412  15.184  20.164  0.00  0.00    +0.000 A 
BRANCH  12  15
ATOM     15  C   UNL     1       9.253  13.654  18.161  0.00  0.00    +0.000 C 
ATOM     16  F   UNL     1       9.975  13.257  19.242  0.00  0.00    +0.000 F 
ATOM     17  F   UNL     1       9.155  12.564  17.349  0.00  0.00    +0.000 F 
ATOM     18  F   UNL     1      10.035  14.547  17.492  0.00  0.00    +0.000 F 
ENDBRANCH  12  15
ENDBRANCH   2   9
BRANCH   6  19
ATOM     19  N   UNL     1       0.033  13.062  19.711  0.00  0.00    +0.000 NA
ATOM     20  H   UNL     1      -0.916  13.418  19.809  0.00  0.00    +0.000 HD
BRANCH  19  21
ATOM     21  C   UNL     1      -0.098  11.597  19.578  0.00  0.00    +0.000 C 
BRANCH  21  22
ATOM     22  C   UNL     1      -1.301  11.286  18.691  0.00  0.00    +0.000 A 
ATOM     23  C   UNL     1      -2.523  11.983  18.812  0.00  0.00    +0.000 A 
ATOM     24  C   UNL     1      -3.621  11.633  18.020  0.00  0.00    +0.000 A 
ATOM     25  C   UNL     1      -3.506  10.586  17.114  0.00  0.00    +0.000 A 
ATOM     26  F   UNL     1      -4.567  10.235  16.380  0.00  0.00    +0.000 F 
ATOM     27  C   UNL     1      -2.305   9.907  16.955  0.00  0.00    +0.000 A 
ATOM     28  C   UNL     1      -1.217  10.261  17.741  0.00  0.00    +0.000 A 
ATOM     29  F   UNL     1      -0.058   9.609  17.570  0.00  0.00    +0.000 F 
ENDBRANCH  21  22
BRANCH  21  30
ATOM     30  C   UNL     1      -0.149  10.877  20.920  0.00  0.00    +0.000 A 
ATOM     31  C   UNL     1       0.309   9.569  21.063  0.00  0.00    +0.000 A 
ATOM     32  N   UNL     1       0.169   8.854  22.207  0.00  0.00    +0.000 NA
ATOM     33  C   UNL     1      -0.457   9.500  23.214  0.00  0.00    +0.000 A 
ATOM     34  C   UNL     1      -0.907  10.800  23.092  0.00  0.00    +0.000 A 
ATOM     35  N   UNL     1      -0.772  11.513  21.952  0.00  0.00    +0.000 NA
ENDBRANCH  21  30
ENDBRANCH  19  21
ENDBRANCH   6  19
TORSDOF 6
ENDMDL
MODEL 3
REMARK VINA RESULT:      -7.9      1.807      3.507
REMARK  Name = 
REMARK  6 active torsions:
REMARK  status: ('A' for Active; 'I' for Inactive)
REMARK    1  A    between atoms: C_2  and  C_3
REMARK    2  A    between atoms: C_6  and  C_7
REMARK    3  A    between atoms: C_16  and  N_17
REMARK    4  A    between atoms: N_17  and  C_18
REMARK    5  A    between atoms: C_18  and  C_19
REMARK    6  A    between atoms: C_18  and  C_25
REMARK                            x       y       z     vdW  Elec       q    Type
REMARK                         _______ _______ _______ _____ _____    ______ ____
ROOT
ATOM      1  O   UNL     1       3.140   5.885  20.354  0.00  0.00    +0.000 OA
ATOM      2  C   UNL     1       2.867   6.367  19.248  0.00  0.00    +0.000 C 
ATOM      3  N   UNL     1       1.841   7.305  19.094  0.00  0.00    +0.000 N 
ATOM      4  C   UNL     1       1.415   7.933  17.848  0.00  0.00    +0.000 C 
ATOM      5  C   UNL     1       1.859   9.397  17.883  0.00  0.00    +0.000 C 
ATOM      6  C   UNL     1       1.188  10.133  19.060  0.00  0.00    +0.000 C 
ATOM      7  C   UNL     1       1.507   9.383  20.371  0.00  0.00    +0.000 C 
ATOM      8  C   UNL     1       1.212   7.881  20.288  0.00  0.00    +0.000 C 
ENDROOT
BRANCH   2   9
ATOM      9  C   UNL     1       3.682   5.908  18.085  0.00  0.00    +0.000 A 
ATOM     10  C   UNL     1       3.591   4.562  17.707  0.00  0.00    +0.000 A 
ATOM     11  C   UNL     1       4.330   4.073  16.622  0.00  0.00    +0.000 A 
ATOM     12  C   UNL     1       5.152   4.930  15.877  0.00  0.00    +0.000 A 
ATOM     13  C   UNL     1       5.261   6.266  16.271  0.00  0.00    +0.000 A 
ATOM     14  C   UNL     1       4.576   6.730  17.394  0.00  0.00    +0.000 A 
BRANCH  12  15
ATOM     15  C   UNL     1       5.928   4.450  14.675  0.00  0.00    +0.000 C 
ATOM     16  F   UNL     1       5.153   4.194  13.588  0.00  0.00    +0.000 F 
ATOM     17  F   UNL     1       6.860   5.357  14.271  0.00  0.00    +0.000 F 
ATOM     18  F   UNL     1       6.614   3.300  14.929  0.00  0.00    +0.000 F 
ENDBRANCH  12  15
ENDBRANCH   2   9
BRANCH   6  19
ATOM     19  N   UNL     1      -0.238  10.229  18.719  0.00  0.00    +0.000 NA
ATOM     20  H   UNL     1      -0.694   9.336  18.899  0.00  0.00    +0.000 HD
BRANCH  19  21
ATOM     21  C   UNL     1      -1.023  11.239  19.456  0.00  0.00    +0.000 C 
BRANCH  21  22
ATOM     22  C   UNL     1      -2.377  11.410  18.771  0.00  0.00    +0.000 A 
ATOM     23  C   UNL     1      -2.598  11.012  17.434  0.00  0.00    +0.000 A 
ATOM     24  C   UNL     1      -3.835  11.237  16.823  0.00  0.00    +0.000 A 
ATOM     25  C   UNL     1      -4.850  11.861  17.538  0.00  0.00    +0.000 A 
ATOM     26  F   UNL     1      -6.021  12.100  16.940  0.00  0.00    +0.000 F 
ATOM     27  C   UNL     1      -4.666  12.233  18.863  0.00  0.00    +0.000 A 
ATOM     28  C   UNL     1      -3.437  12.004  19.467  0.00  0.00    +0.000 A 
ATOM     29  F   UNL     1      -3.274  12.353  20.752  0.00  0.00    +0.000 F 
ENDBRANCH  21  22
BRANCH  21  30
ATOM     30  C   UNL     1      -0.280  12.557  19.640  0.00  0.00    +0.000 A 
ATOM     31  C   UNL     1       0.198  12.957  20.886  0.00  0.00    +0.000 A 
ATOM     32  N   UNL     1       0.754  14.172  21.112  0.00  0.00    +0.000 NA
ATOM     33  C   UNL     1       0.811  14.987  20.037  0.00  0.00    +0.000 A 
ATOM     34  C   UNL     1       0.351  14.601  18.793  0.00  0.00    +0.000 A 
ATOM     35  N   UNL     1      -0.206  13.392  18.565  0.00  0.00    +0.000 NA
ENDBRANCH  21  30
ENDBRANCH  19  21
ENDBRANCH   6  19
TORSDOF 6
ENDMDL
MODEL 4
REMARK VINA RESULT:      -7.9      1.917      3.826
REMARK  Name = 
REMARK  6 active torsions:
REMARK  status: ('A' for Active; 'I' for Inactive)
REMARK    1  A    between atoms: C_2  and  C_3
REMARK    2  A    between atoms: C_6  and  C_7
REMARK    3  A    between atoms: C_16  and  N_17
REMARK    4  A    between atoms: N_17  and  C_18
REMARK    5  A    between atoms: C_18  and  C_19
REMARK    6  A    between atoms: C_18  and  C_25
REMARK                            x       y       z     vdW  Elec       q    Type
REMARK                         _______ _______ _______ _____ _____    ______ ____
ROOT
ATOM      1  O   UNL     1       3.449   4.522  20.364  0.00  0.00    +0.000 OA
ATOM      2  C   UNL     1       3.190   5.226  19.379  0.00  0.00    +0.000 C 
ATOM      3  N   UNL     1       2.154   6.165  19.405  0.00  0.00    +0.000 N 
ATOM      4  C   UNL     1       1.743   7.039  18.311  0.00  0.00    +0.000 C 
ATOM      5  C   UNL     1       2.164   8.466  18.667  0.00  0.00    +0.000 C 
ATOM      6  C   UNL     1       1.459   8.927  19.957  0.00  0.00    +0.000 C 
ATOM      7  C   UNL     1       1.763   7.919  21.087  0.00  0.00    +0.000 C 
ATOM      8  C   UNL     1       1.492   6.467  20.679  0.00  0.00    +0.000 C 
ENDROOT
BRANCH   2   9
ATOM      9  C   UNL     1       4.036   5.034  18.164  0.00  0.00    +0.000 A 
ATOM     10  C   UNL     1       4.958   6.038  17.840  0.00  0.00    +0.000 A 
ATOM     11  C   UNL     1       5.782   5.914  16.713  0.00  0.00    +0.000 A 
ATOM     12  C   UNL     1       5.716   4.770  15.906  0.00  0.00    +0.000 A 
ATOM     13  C   UNL     1       4.778   3.782  16.216  0.00  0.00    +0.000 A 
ATOM     14  C   UNL     1       3.914   3.944  17.300  0.00  0.00    +0.000 A 
BRANCH  12  15
ATOM     15  C   UNL     1       6.618   4.581  14.711  0.00  0.00    +0.000 C 
ATOM     16  F   UNL     1       6.498   5.557  13.772  0.00  0.00    +0.000 F 
ATOM     17  F   UNL     1       7.934   4.551  15.061  0.00  0.00    +0.000 F 
ATOM     18  F   UNL     1       6.379   3.405  14.065  0.00  0.00    +0.000 F 
ENDBRANCH  12  15
ENDBRANCH   2   9
BRANCH   6  19
ATOM     19  N   UNL     1       0.038   9.079  19.612  0.00  0.00    +0.000 NA
ATOM     20  H   UNL     1      -0.523   8.459  20.194  0.00  0.00    +0.000 HD
BRANCH  19  21
ATOM     21  C   UNL     1      -0.539  10.427  19.784  0.00  0.00    +0.000 C 
BRANCH  21  22
ATOM     22  C   UNL     1      -1.604  10.650  18.713  0.00  0.00    +0.000 A 
ATOM     23  C   UNL     1      -1.565   9.987  17.466  0.00  0.00    +0.000 A 
ATOM     24  C   UNL     1      -2.527  10.259  16.488  0.00  0.00    +0.000 A 
ATOM     25  C   UNL     1      -3.523  11.193  16.747  0.00  0.00    +0.000 A 
ATOM     26  F   UNL     1      -4.422  11.471  15.799  0.00  0.00    +0.000 F 
ATOM     27  C   UNL     1      -3.600  11.833  17.977  0.00  0.00    +0.000 A 
ATOM     28  C   UNL     1      -2.645  11.557  18.946  0.00  0.00    +0.000 A 
ATOM     29  F   UNL     1      -2.737  12.169  20.136  0.00  0.00    +0.000 F 
ENDBRANCH  21  22
BRANCH  21  30
ATOM     30  C   UNL     1       0.513  11.529  19.813  0.00  0.00    +0.000 A 
ATOM     31  C   UNL     1       0.856  12.178  20.997  0.00  0.00    +0.000 A 
ATOM     32  N   UNL     1       1.695  13.243  21.044  0.00  0.00    +0.000 NA
ATOM     33  C   UNL     1       2.181  13.644  19.850  0.00  0.00    +0.000 A 
ATOM     34  C   UNL     1       1.859  13.004  18.668  0.00  0.00    +0.000 A 
ATOM     35  N   UNL     1       1.020  11.945  18.618  0.00  0.00    +0.000 NA
ENDBRANCH  21  30
ENDBRANCH  19  21
ENDBRANCH   6  19
TORSDOF 6
ENDMDL
MODEL 5
REMARK VINA RESULT:      -7.9      1.810      3.519
REMARK  Name = 
REMARK  6 active torsions:
REMARK  status: ('A' for Active; 'I' for Inactive)
REMARK    1  A    between atoms: C_2  and  C_3
REMARK    2  A    between atoms: C_6  and  C_7
REMARK    3  A    between atoms: C_16  and  N_17
REMARK    4  A    between atoms: N_17  and  C_18
REMARK    5  A    between atoms: C_18  and  C_19
REMARK    6  A    between atoms: C_18  and  C_25
REMARK                            x       y       z     vdW  Elec       q    Type
REMARK                         _______ _______ _______ _____ _____    ______ ____
ROOT
ATOM      1  O   UNL     1       3.215   5.954  20.337  0.00  0.00    +0.000 OA
ATOM      2  C   UNL     1       2.935   6.428  19.229  0.00  0.00    +0.000 C 
ATOM      3  N   UNL     1       1.907   7.364  19.074  0.00  0.00    +0.000 N 
ATOM      4  C   UNL     1       1.473   7.983  17.826  0.00  0.00    +0.000 C 
ATOM      5  C   UNL     1       1.915   9.448  17.850  0.00  0.00    +0.000 C 
ATOM      6  C   UNL     1       1.250  10.190  19.025  0.00  0.00    +0.000 C 
ATOM      7  C   UNL     1       1.577   9.450  20.340  0.00  0.00    +0.000 C 
ATOM      8  C   UNL     1       1.283   7.948  20.268  0.00  0.00    +0.000 C 
ENDROOT
BRANCH   2   9
ATOM      9  C   UNL     1       3.744   5.963  18.064  0.00  0.00    +0.000 A 
ATOM     10  C   UNL     1       3.692   4.604  17.727  0.00  0.00    +0.000 A 
ATOM     11  C   UNL     1       4.428   4.108  16.643  0.00  0.00    +0.000 A 
ATOM     12  C   UNL     1       5.207   4.969  15.858  0.00  0.00    +0.000 A 
ATOM     13  C   UNL     1       5.278   6.320  16.212  0.00  0.00    +0.000 A 
ATOM     14  C   UNL     1       4.597   6.793  17.334  0.00  0.00    +0.000 A 
BRANCH  12  15
ATOM     15  C   UNL     1       5.977   4.480  14.656  0.00  0.00    +0.000 C 
ATOM     16  F   UNL     1       7.016   5.284  14.305  0.00  0.00    +0.000 F 
ATOM     17  F   UNL     1       6.506   3.241  14.856  0.00  0.00    +0.000 F 
ATOM     18  F   UNL     1       5.191   4.374  13.548  0.00  0.00    +0.000 F 
ENDBRANCH  12  15
ENDBRANCH   2   9
BRANCH   6  19
ATOM     19  N   UNL     1      -0.178  10.283  18.691  0.00  0.00    +0.000 NA
ATOM     20  H   UNL     1      -0.627   9.385  18.863  0.00  0.00    +0.000 HD
BRANCH  19  21
ATOM     21  C   UNL     1      -0.966  11.279  19.445  0.00  0.00    +0.000 C 
BRANCH  21  22
ATOM     22  C   UNL     1      -2.332  11.434  18.782  0.00  0.00    +0.000 A 
ATOM     23  C   UNL     1      -2.575  11.013  17.455  0.00  0.00    +0.000 A 
ATOM     24  C   UNL     1      -3.824  11.223  16.862  0.00  0.00    +0.000 A 
ATOM     25  C   UNL     1      -4.828  11.854  17.585  0.00  0.00    +0.000 A 
ATOM     26  F   UNL     1      -6.011  12.079  17.004  0.00  0.00    +0.000 F 
ATOM     27  C   UNL     1      -4.623  12.248  18.901  0.00  0.00    +0.000 A 
ATOM     28  C   UNL     1      -3.382  12.034  19.487  0.00  0.00    +0.000 A 
ATOM     29  F   UNL     1      -3.198  12.404  20.762  0.00  0.00    +0.000 F 
ENDBRANCH  21  22
BRANCH  21  30
ATOM     30  C   UNL     1      -0.239  12.607  19.621  0.00  0.00    +0.000 A 
ATOM     31  C   UNL     1       0.003  13.454  18.542  0.00  0.00    +0.000 A 
ATOM     32  N   UNL     1       0.750  14.582  18.637  0.00  0.00    +0.000 NA
ATOM     33  C   UNL     1       1.258  14.833  19.862  0.00  0.00    +0.000 A 
ATOM     34  C   UNL     1       1.018  14.009  20.945  0.00  0.00    +0.000 A 
ATOM     35  N   UNL     1       0.276  12.883  20.853  0.00  0.00    +0.000 NA
ENDBRANCH  21  30
ENDBRANCH  19  21
ENDBRANCH   6  19
TORSDOF 6
ENDMDL
MODEL 6
REMARK VINA RESULT:      -7.9      2.774     10.253
REMARK  Name = 
REMARK  6 active torsions:
REMARK  status: ('A' for Active; 'I' for Inactive)
REMARK    1  A    between atoms: C_2  and  C_3
REMARK    2  A    between atoms: C_6  and  C_7
REMARK    3  A    between atoms: C_16  and  N_17
REMARK    4  A    between atoms: N_17  and  C_18
REMARK    5  A    between atoms: C_18  and  C_19
REMARK    6  A    between atoms: C_18  and  C_25
REMARK                            x       y       z     vdW  Elec       q    Type
REMARK                         _______ _______ _______ _____ _____    ______ ____
ROOT
ATOM      1  O   UNL     1      -1.085  12.325  18.281  0.00  0.00    +0.000 OA
ATOM      2  C   UNL     1      -1.061  11.496  19.199  0.00  0.00    +0.000 C 
ATOM      3  N   UNL     1      -0.431  10.257  19.047  0.00  0.00    +0.000 N 
ATOM      4  C   UNL     1      -0.346   9.195  20.044  0.00  0.00    +0.000 C 
ATOM      5  C   UNL     1       1.100   9.132  20.542  0.00  0.00    +0.000 C 
ATOM      6  C   UNL     1       2.053   8.793  19.379  0.00  0.00    +0.000 C 
ATOM      7  C   UNL     1       1.859   9.827  18.249  0.00  0.00    +0.000 C 
ATOM      8  C   UNL     1       0.389  10.011  17.855  0.00  0.00    +0.000 C 
ENDROOT
BRANCH   2   9
ATOM      9  C   UNL     1      -1.727  11.878  20.479  0.00  0.00    +0.000 A 
ATOM     10  C   UNL     1      -3.002  12.457  20.410  0.00  0.00    +0.000 A 
ATOM     11  C   UNL     1      -3.679  12.833  21.577  0.00  0.00    +0.000 A 
ATOM     12  C   UNL     1      -3.104  12.611  22.836  0.00  0.00    +0.000 A 
ATOM     13  C   UNL     1      -1.823  12.058  22.902  0.00  0.00    +0.000 A 
ATOM     14  C   UNL     1      -1.126  11.748  21.733  0.00  0.00    +0.000 A 
BRANCH  12  15
ATOM     15  C   UNL     1      -3.822  12.962  24.117  0.00  0.00    +0.000 C 
ATOM     16  F   UNL     1      -4.119  11.886  24.893  0.00  0.00    +0.000 F 
ATOM     17  F   UNL     1      -3.091  13.804  24.900  0.00  0.00    +0.000 F 
ATOM     18  F   UNL     1      -5.004  13.599  23.888  0.00  0.00    +0.000 F 
ENDBRANCH  12  15
ENDBRANCH   2   9
BRANCH   6  19
ATOM     19  N   UNL     1       1.770   7.398  19.014  0.00  0.00    +0.000 NA
ATOM     20  H   UNL     1       1.745   7.309  17.999  0.00  0.00    +0.000 HD
BRANCH  19  21
ATOM     21  C   UNL     1       2.737   6.387  19.485  0.00  0.00    +0.000 C 
BRANCH  21  22
ATOM     22  C   UNL     1       3.869   6.273  18.467  0.00  0.00    +0.000 A 
ATOM     23  C   UNL     1       3.785   6.854  17.183  0.00  0.00    +0.000 A 
ATOM     24  C   UNL     1       4.819   6.682  16.257  0.00  0.00    +0.000 A 
ATOM     25  C   UNL     1       5.932   5.927  16.606  0.00  0.00    +0.000 A 
ATOM     26  F   UNL     1       6.904   5.740  15.708  0.00  0.00    +0.000 F 
ATOM     27  C   UNL     1       6.051   5.372  17.874  0.00  0.00    +0.000 A 
ATOM     28  C   UNL     1       5.024   5.550  18.790  0.00  0.00    +0.000 A 
ATOM     29  F   UNL     1       5.154   5.023  20.016  0.00  0.00    +0.000 F 
ENDBRANCH  21  22
BRANCH  21  30
ATOM     30  C   UNL     1       2.090   5.044  19.805  0.00  0.00    +0.000 A 
ATOM     31  C   UNL     1       2.074   4.533  21.101  0.00  0.00    +0.000 A 
ATOM     32  N   UNL     1       1.618   3.293  21.404  0.00  0.00    +0.000 NA
ATOM     33  C   UNL     1       1.179   2.569  20.352  0.00  0.00    +0.000 A 
ATOM     34  C   UNL     1       1.179   3.065  19.063  0.00  0.00    +0.000 A 
ATOM     35  N   UNL     1       1.635   4.300  18.757  0.00  0.00    +0.000 NA
ENDBRANCH  21  30
ENDBRANCH  19  21
ENDBRANCH   6  19
TORSDOF 6
ENDMDL
MODEL 7
REMARK VINA RESULT:      -7.8      1.945      3.701
REMARK  Name = 
REMARK  6 active torsions:
REMARK  status: ('A' for Active; 'I' for Inactive)
REMARK    1  A    between atoms: C_2  and  C_3
REMARK    2  A    between atoms: C_6  and  C_7
REMARK    3  A    between atoms: C_16  and  N_17
REMARK    4  A    between atoms: N_17  and  C_18
REMARK    5  A    between atoms: C_18  and  C_19
REMARK    6  A    between atoms: C_18  and  C_25
REMARK                            x       y       z     vdW  Elec       q    Type
REMARK                         _______ _______ _______ _____ _____    ______ ____
ROOT
ATOM      1  O   UNL     1       2.581   6.165  20.403  0.00  0.00    +0.000 OA
ATOM      2  C   UNL     1       2.559   6.682  19.279  0.00  0.00    +0.000 C 
ATOM      3  N   UNL     1       1.705   7.748  18.982  0.00  0.00    +0.000 N 
ATOM      4  C   UNL     1       1.577   8.431  17.699  0.00  0.00    +0.000 C 
ATOM      5  C   UNL     1       2.195   9.823  17.843  0.00  0.00    +0.000 C 
ATOM      6  C   UNL     1       1.440  10.637  18.911  0.00  0.00    +0.000 C 
ATOM      7  C   UNL     1       1.437   9.849  20.239  0.00  0.00    +0.000 C 
ATOM      8  C   UNL     1       0.966   8.400  20.071  0.00  0.00    +0.000 C 
ENDROOT
BRANCH   2   9
ATOM      9  C   UNL     1       3.490   6.123  18.254  0.00  0.00    +0.000 A 
ATOM     10  C   UNL     1       4.537   6.938  17.803  0.00  0.00    +0.000 A 
ATOM     11  C   UNL     1       5.444   6.468  16.844  0.00  0.00    +0.000 A 
ATOM     12  C   UNL     1       5.336   5.165  16.341  0.00  0.00    +0.000 A 
ATOM     13  C   UNL     1       4.276   4.363  16.773  0.00  0.00    +0.000 A 
ATOM     14  C   UNL     1       3.337   4.861  17.676  0.00  0.00    +0.000 A 
BRANCH  12  15
ATOM     15  C   UNL     1       6.321   4.609  15.341  0.00  0.00    +0.000 C 
ATOM     16  F   UNL     1       6.430   5.351  14.207  0.00  0.00    +0.000 F 
ATOM     17  F   UNL     1       7.579   4.517  15.857  0.00  0.00    +0.000 F 
ATOM     18  F   UNL     1       5.992   3.350  14.938  0.00  0.00    +0.000 F 
ENDBRANCH  12  15
ENDBRANCH   2   9
BRANCH   6  19
ATOM     19  N   UNL     1       0.115  10.923  18.343  0.00  0.00    +0.000 NA
ATOM     20  H   UNL     1      -0.352  10.048  18.109  0.00  0.00    +0.000 HD
BRANCH  19  21
ATOM     21  C   UNL     1      -0.825  11.662  19.209  0.00  0.00    +0.000 C 
BRANCH  21  22
ATOM     22  C   UNL     1      -2.216  11.620  18.579  0.00  0.00    +0.000 A 
ATOM     23  C   UNL     1      -2.421  11.222  17.239  0.00  0.00    +0.000 A 
ATOM     24  C   UNL     1      -3.703  11.249  16.680  0.00  0.00    +0.000 A 
ATOM     25  C   UNL     1      -4.777  11.678  17.450  0.00  0.00    +0.000 A 
ATOM     26  F   UNL     1      -5.995  11.731  16.902  0.00  0.00    +0.000 F 
ATOM     27  C   UNL     1      -4.604  12.044  18.778  0.00  0.00    +0.000 A 
ATOM     28  C   UNL     1      -3.331  12.011  19.330  0.00  0.00    +0.000 A 
ATOM     29  F   UNL     1      -3.176  12.352  20.617  0.00  0.00    +0.000 F 
ENDBRANCH  21  22
BRANCH  21  30
ATOM     30  C   UNL     1      -0.360  13.079  19.524  0.00  0.00    +0.000 A 
ATOM     31  C   UNL     1      -0.112  13.490  20.832  0.00  0.00    +0.000 A 
ATOM     32  N   UNL     1       0.185  14.771  21.163  0.00  0.00    +0.000 NA
ATOM     33  C   UNL     1       0.219  15.639  20.129  0.00  0.00    +0.000 A 
ATOM     34  C   UNL     1      -0.015  15.245  18.826  0.00  0.00    +0.000 A 
ATOM     35  N   UNL     1      -0.314  13.970  18.493  0.00  0.00    +0.000 NA
ENDBRANCH  21  30
ENDBRANCH  19  21
ENDBRANCH   6  19
TORSDOF 6
ENDMDL
MODEL 8
REMARK VINA RESULT:      -7.7      2.037      3.608
REMARK  Name = 
REMARK  6 active torsions:
REMARK  status: ('A' for Active; 'I' for Inactive)
REMARK    1  A    between atoms: C_2  and  C_3
REMARK    2  A    between atoms: C_6  and  C_7
REMARK    3  A    between atoms: C_16  and  N_17
REMARK    4  A    between atoms: N_17  and  C_18
REMARK    5  A    between atoms: C_18  and  C_19
REMARK    6  A    between atoms: C_18  and  C_25
REMARK                            x       y       z     vdW  Elec       q    Type
REMARK                         _______ _______ _______ _____ _____    ______ ____
ROOT
ATOM      1  O   UNL     1       2.669   6.248  20.323  0.00  0.00    +0.000 OA
ATOM      2  C   UNL     1       2.589   6.774  19.206  0.00  0.00    +0.000 C 
ATOM      3  N   UNL     1       1.727   7.849  18.966  0.00  0.00    +0.000 N 
ATOM      4  C   UNL     1       1.532   8.543  17.697  0.00  0.00    +0.000 C 
ATOM      5  C   UNL     1       2.168   9.930  17.817  0.00  0.00    +0.000 C 
ATOM      6  C   UNL     1       1.479  10.740  18.933  0.00  0.00    +0.000 C 
ATOM      7  C   UNL     1       1.544   9.940  20.252  0.00  0.00    +0.000 C 
ATOM      8  C   UNL     1       1.055   8.496  20.099  0.00  0.00    +0.000 C 
ENDROOT
BRANCH   2   9
ATOM      9  C   UNL     1       3.457   6.218  18.126  0.00  0.00    +0.000 A 
ATOM     10  C   UNL     1       3.337   4.855  17.823  0.00  0.00    +0.000 A 
ATOM     11  C   UNL     1       4.123   4.275  16.819  0.00  0.00    +0.000 A 
ATOM     12  C   UNL     1       5.022   5.056  16.079  0.00  0.00    +0.000 A 
ATOM     13  C   UNL     1       5.159   6.409  16.401  0.00  0.00    +0.000 A 
ATOM     14  C   UNL     1       4.423   6.964  17.449  0.00  0.00    +0.000 A 
BRANCH  12  15
ATOM     15  C   UNL     1       5.852   4.476  14.960  0.00  0.00    +0.000 C 
ATOM     16  F   UNL     1       6.939   5.226  14.637  0.00  0.00    +0.000 F 
ATOM     17  F   UNL     1       6.325   3.235  15.262  0.00  0.00    +0.000 F 
ATOM     18  F   UNL     1       5.137   4.332  13.809  0.00  0.00    +0.000 F 
ENDBRANCH  12  15
ENDBRANCH   2   9
BRANCH   6  19
ATOM     19  N   UNL     1       0.126  11.039  18.442  0.00  0.00    +0.000 NA
ATOM     20  H   UNL     1      -0.338  10.173  18.172  0.00  0.00    +0.000 HD
BRANCH  19  21
ATOM     21  C   UNL     1      -0.785  11.706  19.393  0.00  0.00    +0.000 C 
BRANCH  21  22
ATOM     22  C   UNL     1      -2.223  11.520  18.914  0.00  0.00    +0.000 A 
ATOM     23  C   UNL     1      -3.291  12.289  19.426  0.00  0.00    +0.000 A 
ATOM     24  C   UNL     1      -4.603  12.052  19.003  0.00  0.00    +0.000 A 
ATOM     25  C   UNL     1      -4.853  11.047  18.078  0.00  0.00    +0.000 A 
ATOM     26  F   UNL     1      -6.111  10.804  17.699  0.00  0.00    +0.000 F 
ATOM     27  C   UNL     1      -3.815  10.298  17.537  0.00  0.00    +0.000 A 
ATOM     28  C   UNL     1      -2.514  10.541  17.956  0.00  0.00    +0.000 A 
ATOM     29  F   UNL     1      -1.518   9.823  17.417  0.00  0.00    +0.000 F 
ENDBRANCH  21  22
BRANCH  21  30
ATOM     30  C   UNL     1      -0.427  13.166  19.642  0.00  0.00    +0.000 A 
ATOM     31  C   UNL     1      -0.303  13.676  20.933  0.00  0.00    +0.000 A 
ATOM     32  N   UNL     1      -0.106  14.992  21.195  0.00  0.00    +0.000 NA
ATOM     33  C   UNL     1      -0.042  15.791  20.108  0.00  0.00    +0.000 A 
ATOM     34  C   UNL     1      -0.153  15.298  18.822  0.00  0.00    +0.000 A 
ATOM     35  N   UNL     1      -0.352  13.988  18.558  0.00  0.00    +0.000 NA
ENDBRANCH  21  30
ENDBRANCH  19  21
ENDBRANCH   6  19
TORSDOF 6
ENDMDL
MODEL 9
REMARK VINA RESULT:      -7.7      1.792      3.545
REMARK  Name = 
REMARK  6 active torsions:
REMARK  status: ('A' for Active; 'I' for Inactive)
REMARK    1  A    between atoms: C_2  and  C_3
REMARK    2  A    between atoms: C_6  and  C_7
REMARK    3  A    between atoms: C_16  and  N_17
REMARK    4  A    between atoms: N_17  and  C_18
REMARK    5  A    between atoms: C_18  and  C_19
REMARK    6  A    between atoms: C_18  and  C_25
REMARK                            x       y       z     vdW  Elec       q    Type
REMARK                         _______ _______ _______ _____ _____    ______ ____
ROOT
ATOM      1  O   UNL     1       3.197   5.803  20.346  0.00  0.00    +0.000 OA
ATOM      2  C   UNL     1       2.921   6.277  19.237  0.00  0.00    +0.000 C 
ATOM      3  N   UNL     1       1.907   7.228  19.080  0.00  0.00    +0.000 N 
ATOM      4  C   UNL     1       1.480   7.849  17.831  0.00  0.00    +0.000 C 
ATOM      5  C   UNL     1       1.943   9.307  17.848  0.00  0.00    +0.000 C 
ATOM      6  C   UNL     1       1.292  10.063  19.022  0.00  0.00    +0.000 C 
ATOM      7  C   UNL     1       1.610   9.323  20.339  0.00  0.00    +0.000 C 
ATOM      8  C   UNL     1       1.294   7.825  20.273  0.00  0.00    +0.000 C 
ENDROOT
BRANCH   2   9
ATOM      9  C   UNL     1       3.722   5.796  18.072  0.00  0.00    +0.000 A 
ATOM     10  C   UNL     1       4.556   6.716  17.422  0.00  0.00    +0.000 A 
ATOM     11  C   UNL     1       5.334   6.324  16.325  0.00  0.00    +0.000 A 
ATOM     12  C   UNL     1       5.311   4.996  15.876  0.00  0.00    +0.000 A 
ATOM     13  C   UNL     1       4.459   4.087  16.508  0.00  0.00    +0.000 A 
ATOM     14  C   UNL     1       3.637   4.501  17.557  0.00  0.00    +0.000 A 
BRANCH  12  15
ATOM     15  C   UNL     1       6.169   4.526  14.726  0.00  0.00    +0.000 C 
ATOM     16  F   UNL     1       5.502   4.434  13.545  0.00  0.00    +0.000 F 
ATOM     17  F   UNL     1       7.225   5.357  14.501  0.00  0.00    +0.000 F 
ATOM     18  F   UNL     1       6.706   3.295  14.953  0.00  0.00    +0.000 F 
ENDBRANCH  12  15
ENDBRANCH   2   9
BRANCH   6  19
ATOM     19  N   UNL     1      -0.136  10.175  18.690  0.00  0.00    +0.000 NA
ATOM     20  H   UNL     1      -0.597   9.284  18.863  0.00  0.00    +0.000 HD
BRANCH  19  21
ATOM     21  C   UNL     1      -0.908  11.183  19.444  0.00  0.00    +0.000 C 
BRANCH  21  22
ATOM     22  C   UNL     1      -2.272  11.359  18.780  0.00  0.00    +0.000 A 
ATOM     23  C   UNL     1      -2.527  10.923  17.461  0.00  0.00    +0.000 A 
ATOM     24  C   UNL     1      -3.772  11.152  16.867  0.00  0.00    +0.000 A 
ATOM     25  C   UNL     1      -4.760  11.819  17.581  0.00  0.00    +0.000 A 
ATOM     26  F   UNL     1      -5.938  12.062  16.998  0.00  0.00    +0.000 F 
ATOM     27  C   UNL     1      -4.542  12.229  18.890  0.00  0.00    +0.000 A 
ATOM     28  C   UNL     1      -3.306  11.996  19.477  0.00  0.00    +0.000 A 
ATOM     29  F   UNL     1      -3.111  12.382  20.746  0.00  0.00    +0.000 F 
ENDBRANCH  21  22
BRANCH  21  30
ATOM     30  C   UNL     1      -0.161  12.499  19.622  0.00  0.00    +0.000 A 
ATOM     31  C   UNL     1       0.116  13.332  18.540  0.00  0.00    +0.000 A 
ATOM     32  N   UNL     1       0.881  14.447  18.638  0.00  0.00    +0.000 NA
ATOM     33  C   UNL     1       1.370  14.701  19.870  0.00  0.00    +0.000 A 
ATOM     34  C   UNL     1       1.096  13.891  20.956  0.00  0.00    +0.000 A 
ATOM     35  N   UNL     1       0.337  12.777  20.860  0.00  0.00    +0.000 NA
ENDBRANCH  21  30
ENDBRANCH  19  21
ENDBRANCH   6  19
TORSDOF 6
ENDMDL
