MODEL 1
REMARK VINA RESULT:      -8.3      0.000      0.000
REMARK  Name = 
REMARK  5 active torsions:
REMARK  status: ('A' for Active; 'I' for Inactive)
REMARK    1  A    between atoms: C_1  and  C_2
REMARK    2  A    between atoms: C_2  and  C_4
REMARK    3  A    between atoms: C_5  and  N_6
REMARK    4  A    between atoms: N_6  and  C_7
REMARK    5  A    between atoms: C_22  and  C_23
REMARK                            x       y       z     vdW  Elec       q    Type
REMARK                         _______ _______ _______ _____ _____    ______ ____
ROOT
ATOM      1  C   UNL     1       5.052   5.736  17.723  0.00  0.00    +0.000 A 
ATOM      2  C   UNL     1       5.781   4.593  17.778  0.00  0.00    +0.000 A 
ATOM      3  N   UNL     1       5.369   3.555  18.594  0.00  0.00    +0.000 N 
ATOM      4  C   UNL     1       4.275   3.617  19.470  0.00  0.00    +0.000 A 
ATOM      5  C   UNL     1       3.940   2.559  20.329  0.00  0.00    +0.000 A 
ATOM      6 CL   UNL     1       4.803   1.063  20.265  0.00  0.00    +0.000 Cl
ATOM      7  C   UNL     1       2.895   2.685  21.246  0.00  0.00    +0.000 A 
ATOM      8  C   UNL     1       2.185   3.882  21.341  0.00  0.00    +0.000 A 
ATOM      9  C   UNL     1       2.486   4.957  20.497  0.00  0.00    +0.000 A 
ATOM     10  C   UNL     1       1.718   6.243  20.652  0.00  0.00    +0.000 C 
ATOM     11  C   UNL     1       3.512   4.794  19.537  0.00  0.00    +0.000 A 
ATOM     12  C   UNL     1       3.799   5.824  18.516  0.00  0.00    +0.000 A 
ATOM     13  O   UNL     1       2.980   6.710  18.278  0.00  0.00    +0.000 OA
ATOM     14  H   UNL     1       5.874   2.679  18.501  0.00  0.00    +0.000 HD
ENDROOT
BRANCH   1  16
ATOM     15  C   UNL     1       6.659   7.738  17.425  0.00  0.00    +0.000 C 
ATOM     16  C   UNL     1       5.507   6.905  16.906  0.00  0.00    +0.000 C 
ATOM     17  O   UNL     1       5.014   7.131  15.798  0.00  0.00    +0.000 OA
ENDBRANCH   1  16
BRANCH   2  18
ATOM     18  N   UNL     1       6.909   4.398  16.985  0.00  0.00    +0.000 N 
ATOM     19  H   UNL     1       7.455   3.575  17.284  0.00  0.00    +0.000 HD
BRANCH  18  20
ATOM     20  C   UNL     1       6.963   4.477  15.567  0.00  0.00    +0.000 A 
ATOM     21  C   UNL     1       7.897   5.249  14.868  0.00  0.00    +0.000 A 
ATOM     22  C   UNL     1       7.918   5.222  13.473  0.00  0.00    +0.000 A 
ATOM     23  F   UNL     1       8.809   5.981  12.821  0.00  0.00    +0.000 F 
ATOM     24  C   UNL     1       7.036   4.419  12.758  0.00  0.00    +0.000 A 
ATOM     25  F   UNL     1       7.081   4.390  11.420  0.00  0.00    +0.000 F 
ATOM     26  C   UNL     1       6.104   3.638  13.425  0.00  0.00    +0.000 A 
ATOM     27  C   UNL     1       6.080   3.671  14.816  0.00  0.00    +0.000 A 
ATOM     28  F   UNL     1       5.177   2.911  15.456  0.00  0.00    +0.000 F 
ENDBRANCH  18  20
ENDBRANCH   2  18
TORSDOF 3
ENDMDL
MODEL 2
REMARK VINA RESULT:      -8.2      7.557      9.916
REMARK  Name = 
REMARK  5 active torsions:
REMARK  status: ('A' for Active; 'I' for Inactive)
REMARK    1  A    between atoms: C_1  and  C_2
REMARK    2  A    between atoms: C_2  and  C_4
REMARK    3  A    between atoms: C_5  and  N_6
REMARK    4  A    between atoms: N_6  and  C_7
REMARK    5  A    between atoms: C_22  and  C_23
REMARK                            x       y       z     vdW  Elec       q    Type
REMARK                         _______ _______ _______ _____ _____    ______ ____
ROOT
ATOM      1  C   UNL     1      -1.411  12.074  20.527  0.00  0.00    +0.000 A 
ATOM      2  C   UNL     1      -0.762  11.488  19.490  0.00  0.00    +0.000 A 
ATOM      3  N   UNL     1      -1.433  11.260  18.302  0.00  0.00    +0.000 N 
ATOM      4  C   UNL     1      -2.799  11.504  18.100  0.00  0.00    +0.000 A 
ATOM      5  C   UNL     1      -3.448  11.189  16.896  0.00  0.00    +0.000 A 
ATOM      6 CL   UNL     1      -2.558  10.581  15.545  0.00  0.00    +0.000 Cl
ATOM      7  C   UNL     1      -4.826  11.370  16.757  0.00  0.00    +0.000 A 
ATOM      8  C   UNL     1      -5.584  11.842  17.828  0.00  0.00    +0.000 A 
ATOM      9  C   UNL     1      -4.970  12.173  19.042  0.00  0.00    +0.000 A 
ATOM     10  C   UNL     1      -5.827  12.649  20.185  0.00  0.00    +0.000 C 
ATOM     11  C   UNL     1      -3.567  12.035  19.148  0.00  0.00    +0.000 A 
ATOM     12  C   UNL     1      -2.824  12.493  20.342  0.00  0.00    +0.000 A 
ATOM     13  O   UNL     1      -3.347  13.266  21.143  0.00  0.00    +0.000 OA
ATOM     14  H   UNL     1      -0.870  10.940  17.519  0.00  0.00    +0.000 HD
ENDROOT
BRANCH   1  16
ATOM     15  C   UNL     1      -1.277  11.524  23.049  0.00  0.00    +0.000 C 
ATOM     16  C   UNL     1      -0.736  12.271  21.849  0.00  0.00    +0.000 C 
ATOM     17  O   UNL     1       0.286  12.955  21.940  0.00  0.00    +0.000 OA
ENDBRANCH   1  16
BRANCH   2  18
ATOM     18  N   UNL     1       0.591  11.164  19.554  0.00  0.00    +0.000 N 
ATOM     19  H   UNL     1       1.053  11.591  20.373  0.00  0.00    +0.000 HD
BRANCH  18  20
ATOM     20  C   UNL     1       1.157   9.877  19.344  0.00  0.00    +0.000 A 
ATOM     21  C   UNL     1       1.815   9.502  18.168  0.00  0.00    +0.000 A 
ATOM     22  C   UNL     1       2.396   8.238  18.068  0.00  0.00    +0.000 A 
ATOM     23  F   UNL     1       3.006   7.890  16.926  0.00  0.00    +0.000 F 
ATOM     24  C   UNL     1       2.353   7.343  19.132  0.00  0.00    +0.000 A 
ATOM     25  F   UNL     1       2.932   6.140  19.027  0.00  0.00    +0.000 F 
ATOM     26  C   UNL     1       1.714   7.691  20.313  0.00  0.00    +0.000 A 
ATOM     27  C   UNL     1       1.130   8.950  20.408  0.00  0.00    +0.000 A 
ATOM     28  F   UNL     1       0.516   9.282  21.554  0.00  0.00    +0.000 F 
ENDBRANCH  18  20
ENDBRANCH   2  18
TORSDOF 3
ENDMDL
MODEL 3
REMARK VINA RESULT:      -8.2      7.321      9.768
REMARK  Name = 
REMARK  5 active torsions:
REMARK  status: ('A' for Active; 'I' for Inactive)
REMARK    1  A    between atoms: C_1  and  C_2
REMARK    2  A    between atoms: C_2  and  C_4
REMARK    3  A    between atoms: C_5  and  N_6
REMARK    4  A    between atoms: N_6  and  C_7
REMARK    5  A    between atoms: C_22  and  C_23
REMARK                            x       y       z     vdW  Elec       q    Type
REMARK                         _______ _______ _______ _____ _____    ______ ____
ROOT
ATOM      1  C   UNL     1      -1.094  11.809  20.284  0.00  0.00    +0.000 A 
ATOM      2  C   UNL     1      -0.524  11.263  19.181  0.00  0.00    +0.000 A 
ATOM      3  N   UNL     1      -1.272  11.110  18.027  0.00  0.00    +0.000 N 
ATOM      4  C   UNL     1      -2.641  11.394  17.923  0.00  0.00    +0.000 A 
ATOM      5  C   UNL     1      -3.370  11.155  16.748  0.00  0.00    +0.000 A 
ATOM      6 CL   UNL     1      -2.579  10.598  15.316  0.00  0.00    +0.000 Cl
ATOM      7  C   UNL     1      -4.749  11.372  16.704  0.00  0.00    +0.000 A 
ATOM      8  C   UNL     1      -5.428  11.806  17.843  0.00  0.00    +0.000 A 
ATOM      9  C   UNL     1      -4.733  12.061  19.031  0.00  0.00    +0.000 A 
ATOM     10  C   UNL     1      -5.507  12.497  20.248  0.00  0.00    +0.000 C 
ATOM     11  C   UNL     1      -3.330  11.887  19.043  0.00  0.00    +0.000 A 
ATOM     12  C   UNL     1      -2.504  12.267  20.209  0.00  0.00    +0.000 A 
ATOM     13  O   UNL     1      -2.958  13.010  21.078  0.00  0.00    +0.000 OA
ATOM     14  H   UNL     1      -0.766  10.819  17.196  0.00  0.00    +0.000 HD
ENDROOT
BRANCH   1  16
ATOM     15  C   UNL     1      -0.753  11.047  22.731  0.00  0.00    +0.000 C 
ATOM     16  C   UNL     1      -0.335  11.923  21.570  0.00  0.00    +0.000 C 
ATOM     17  O   UNL     1       0.660  12.649  21.653  0.00  0.00    +0.000 OA
ENDBRANCH   1  16
BRANCH   2  18
ATOM     18  N   UNL     1       0.822  10.906  19.145  0.00  0.00    +0.000 N 
ATOM     19  H   UNL     1       1.404  11.535  19.720  0.00  0.00    +0.000 HD
BRANCH  18  20
ATOM     20  C   UNL     1       1.345   9.589  19.255  0.00  0.00    +0.000 A 
ATOM     21  C   UNL     1       1.161   8.772  20.375  0.00  0.00    +0.000 A 
ATOM     22  C   UNL     1       1.659   7.469  20.375  0.00  0.00    +0.000 A 
ATOM     23  F   UNL     1       1.489   6.707  21.465  0.00  0.00    +0.000 F 
ATOM     24  C   UNL     1       2.320   6.954  19.265  0.00  0.00    +0.000 A 
ATOM     25  F   UNL     1       2.775   5.694  19.274  0.00  0.00    +0.000 F 
ATOM     26  C   UNL     1       2.510   7.738  18.138  0.00  0.00    +0.000 A 
ATOM     27  C   UNL     1       2.019   9.040  18.142  0.00  0.00    +0.000 A 
ATOM     28  F   UNL     1       2.203   9.794  17.047  0.00  0.00    +0.000 F 
ENDBRANCH  18  20
ENDBRANCH   2  18
TORSDOF 3
ENDMDL
MODEL 4
REMARK VINA RESULT:      -8.0      1.188      1.812
REMARK  Name = 
REMARK  5 active torsions:
REMARK  status: ('A' for Active; 'I' for Inactive)
REMARK    1  A    between atoms: C_1  and  C_2
REMARK    2  A    between atoms: C_2  and  C_4
REMARK    3  A    between atoms: C_5  and  N_6
REMARK    4  A    between atoms: N_6  and  C_7
REMARK    5  A    between atoms: C_22  and  C_23
REMARK                            x       y       z     vdW  Elec       q    Type
REMARK                         _______ _______ _______ _____ _____    ______ ____
ROOT
ATOM      1  C   UNL     1       4.915   5.625  17.281  0.00  0.00    +0.000 A 
ATOM      2  C   UNL     1       5.389   4.360  17.156  0.00  0.00    +0.000 A 
ATOM      3  N   UNL     1       4.718   3.312  17.761  0.00  0.00    +0.000 N 
ATOM      4  C   UNL     1       3.605   3.460  18.600  0.00  0.00    +0.000 A 
ATOM      5  C   UNL     1       3.002   2.370  19.248  0.00  0.00    +0.000 A 
ATOM      6 CL   UNL     1       3.541   0.757  18.946  0.00  0.00    +0.000 Cl
ATOM      7  C   UNL     1       1.946   2.562  20.140  0.00  0.00    +0.000 A 
ATOM      8  C   UNL     1       1.491   3.850  20.423  0.00  0.00    +0.000 A 
ATOM      9  C   UNL     1       2.063   4.961  19.792  0.00  0.00    +0.000 A 
ATOM     10  C   UNL     1       1.566   6.338  20.149  0.00  0.00    +0.000 C 
ATOM     11  C   UNL     1       3.096   4.745  18.851  0.00  0.00    +0.000 A 
ATOM     12  C   UNL     1       3.657   5.845  18.038  0.00  0.00    +0.000 A 
ATOM     13  O   UNL     1       3.055   6.913  17.935  0.00  0.00    +0.000 OA
ATOM     14  H   UNL     1       5.039   2.377  17.530  0.00  0.00    +0.000 HD
ENDROOT
BRANCH   1  16
ATOM     15  C   UNL     1       6.809   7.373  17.486  0.00  0.00    +0.000 C 
ATOM     16  C   UNL     1       5.655   6.789  16.699  0.00  0.00    +0.000 C 
ATOM     17  O   UNL     1       5.387   7.206  15.569  0.00  0.00    +0.000 OA
ENDBRANCH   1  16
BRANCH   2  18
ATOM     18  N   UNL     1       6.504   4.064  16.376  0.00  0.00    +0.000 N 
ATOM     19  H   UNL     1       6.989   3.212  16.701  0.00  0.00    +0.000 HD
BRANCH  18  20
ATOM     20  C   UNL     1       6.571   4.099  14.956  0.00  0.00    +0.000 A 
ATOM     21  C   UNL     1       5.699   3.393  14.121  0.00  0.00    +0.000 A 
ATOM     22  C   UNL     1       5.796   3.532  12.736  0.00  0.00    +0.000 A 
ATOM     23  F   UNL     1       4.964   2.834  11.952  0.00  0.00    +0.000 F 
ATOM     24  C   UNL     1       6.736   4.384  12.166  0.00  0.00    +0.000 A 
ATOM     25  F   UNL     1       6.804   4.521  10.835  0.00  0.00    +0.000 F 
ATOM     26  C   UNL     1       7.608   5.103  12.969  0.00  0.00    +0.000 A 
ATOM     27  C   UNL     1       7.513   4.958  14.350  0.00  0.00    +0.000 A 
ATOM     28  F   UNL     1       8.359   5.657  15.123  0.00  0.00    +0.000 F 
ENDBRANCH  18  20
ENDBRANCH   2  18
TORSDOF 3
ENDMDL
MODEL 5
REMARK VINA RESULT:      -8.0      3.912      5.456
REMARK  Name = 
REMARK  5 active torsions:
REMARK  status: ('A' for Active; 'I' for Inactive)
REMARK    1  A    between atoms: C_1  and  C_2
REMARK    2  A    between atoms: C_2  and  C_4
REMARK    3  A    between atoms: C_5  and  N_6
REMARK    4  A    between atoms: N_6  and  C_7
REMARK    5  A    between atoms: C_22  and  C_23
REMARK                            x       y       z     vdW  Elec       q    Type
REMARK                         _______ _______ _______ _____ _____    ______ ____
ROOT
ATOM      1  C   UNL     1       2.494   6.685  18.925  0.00  0.00    +0.000 A 
ATOM      2  C   UNL     1       3.010   7.469  17.945  0.00  0.00    +0.000 A 
ATOM      3  N   UNL     1       2.769   8.831  17.958  0.00  0.00    +0.000 N 
ATOM      4  C   UNL     1       1.931   9.482  18.876  0.00  0.00    +0.000 A 
ATOM      5  C   UNL     1       1.664  10.858  18.803  0.00  0.00    +0.000 A 
ATOM      6 CL   UNL     1       2.457  11.851  17.632  0.00  0.00    +0.000 Cl
ATOM      7  C   UNL     1       0.761  11.459  19.682  0.00  0.00    +0.000 A 
ATOM      8  C   UNL     1       0.088  10.690  20.632  0.00  0.00    +0.000 A 
ATOM      9  C   UNL     1       0.334   9.316  20.738  0.00  0.00    +0.000 A 
ATOM     10  C   UNL     1      -0.437   8.516  21.755  0.00  0.00    +0.000 C 
ATOM     11  C   UNL     1       1.291   8.733  19.876  0.00  0.00    +0.000 A 
ATOM     12  C   UNL     1       1.712   7.323  20.014  0.00  0.00    +0.000 A 
ATOM     13  O   UNL     1       1.475   6.701  21.048  0.00  0.00    +0.000 OA
ATOM     14  H   UNL     1       3.282   9.387  17.281  0.00  0.00    +0.000 HD
ENDROOT
BRANCH   1  16
ATOM     15  C   UNL     1       1.759   4.377  18.021  0.00  0.00    +0.000 C 
ATOM     16  C   UNL     1       2.675   5.199  18.902  0.00  0.00    +0.000 C 
ATOM     17  O   UNL     1       3.603   4.667  19.517  0.00  0.00    +0.000 OA
ENDBRANCH   1  16
BRANCH   2  18
ATOM     18  N   UNL     1       3.838   6.957  16.950  0.00  0.00    +0.000 N 
ATOM     19  H   UNL     1       3.938   7.610  16.156  0.00  0.00    +0.000 HD
BRANCH  18  20
ATOM     20  C   UNL     1       5.084   6.301  17.148  0.00  0.00    +0.000 A 
ATOM     21  C   UNL     1       6.124   6.829  17.921  0.00  0.00    +0.000 A 
ATOM     22  C   UNL     1       7.292   6.091  18.112  0.00  0.00    +0.000 A 
ATOM     23  F   UNL     1       8.284   6.620  18.841  0.00  0.00    +0.000 F 
ATOM     24  C   UNL     1       7.435   4.820  17.564  0.00  0.00    +0.000 A 
ATOM     25  F   UNL     1       8.556   4.116  17.773  0.00  0.00    +0.000 F 
ATOM     26  C   UNL     1       6.418   4.269  16.800  0.00  0.00    +0.000 A 
ATOM     27  C   UNL     1       5.256   5.010  16.605  0.00  0.00    +0.000 A 
ATOM     28  F   UNL     1       4.274   4.470  15.866  0.00  0.00    +0.000 F 
ENDBRANCH  18  20
ENDBRANCH   2  18
TORSDOF 3
ENDMDL
MODEL 6
REMARK VINA RESULT:      -7.6      6.821      9.126
REMARK  Name = 
REMARK  5 active torsions:
REMARK  status: ('A' for Active; 'I' for Inactive)
REMARK    1  A    between atoms: C_1  and  C_2
REMARK    2  A    between atoms: C_2  and  C_4
REMARK    3  A    between atoms: C_5  and  N_6
REMARK    4  A    between atoms: N_6  and  C_7
REMARK    5  A    between atoms: C_22  and  C_23
REMARK                            x       y       z     vdW  Elec       q    Type
REMARK                         _______ _______ _______ _____ _____    ______ ____
ROOT
ATOM      1  C   UNL     1      -0.199  11.570  19.738  0.00  0.00    +0.000 A 
ATOM      2  C   UNL     1       0.096  10.745  18.702  0.00  0.00    +0.000 A 
ATOM      3  N   UNL     1      -0.860  10.489  17.736  0.00  0.00    +0.000 N 
ATOM      4  C   UNL     1      -2.184  10.947  17.785  0.00  0.00    +0.000 A 
ATOM      5  C   UNL     1      -3.136  10.600  16.814  0.00  0.00    +0.000 A 
ATOM      6 CL   UNL     1      -2.685   9.670  15.429  0.00  0.00    +0.000 Cl
ATOM      7  C   UNL     1      -4.466  11.007  16.937  0.00  0.00    +0.000 A 
ATOM      8  C   UNL     1      -4.874  11.745  18.048  0.00  0.00    +0.000 A 
ATOM      9  C   UNL     1      -3.952  12.116  19.034  0.00  0.00    +0.000 A 
ATOM     10  C   UNL     1      -4.438  12.885  20.234  0.00  0.00    +0.000 C 
ATOM     11  C   UNL     1      -2.599  11.741  18.866  0.00  0.00    +0.000 A 
ATOM     12  C   UNL     1      -1.538  12.210  19.784  0.00  0.00    +0.000 A 
ATOM     13  O   UNL     1      -1.740  13.163  20.535  0.00  0.00    +0.000 OA
ATOM     14  H   UNL     1      -0.549   9.973  16.918  0.00  0.00    +0.000 HD
ENDROOT
BRANCH   1  16
ATOM     15  C   UNL     1       1.792  12.932  20.668  0.00  0.00    +0.000 C 
ATOM     16  C   UNL     1       0.788  11.813  20.838  0.00  0.00    +0.000 C 
ATOM     17  O   UNL     1       0.726  11.175  21.893  0.00  0.00    +0.000 OA
ENDBRANCH   1  16
BRANCH   2  18
ATOM     18  N   UNL     1       1.364  10.193  18.537  0.00  0.00    +0.000 N 
ATOM     19  H   UNL     1       2.111  10.844  18.826  0.00  0.00    +0.000 HD
BRANCH  18  20
ATOM     20  C   UNL     1       1.759   8.874  18.892  0.00  0.00    +0.000 A 
ATOM     21  C   UNL     1       1.420   8.263  20.104  0.00  0.00    +0.000 A 
ATOM     22  C   UNL     1       1.798   6.943  20.347  0.00  0.00    +0.000 A 
ATOM     23  F   UNL     1       1.480   6.380  21.521  0.00  0.00    +0.000 F 
ATOM     24  C   UNL     1       2.493   6.208  19.391  0.00  0.00    +0.000 A 
ATOM     25  F   UNL     1       2.832   4.935  19.633  0.00  0.00    +0.000 F 
ATOM     26  C   UNL     1       2.835   6.786  18.179  0.00  0.00    +0.000 A 
ATOM     27  C   UNL     1       2.462   8.105  17.940  0.00  0.00    +0.000 A 
ATOM     28  F   UNL     1       2.795   8.658  16.763  0.00  0.00    +0.000 F 
ENDBRANCH  18  20
ENDBRANCH   2  18
TORSDOF 3
ENDMDL
MODEL 7
REMARK VINA RESULT:      -7.6     10.629     13.897
REMARK  Name = 
REMARK  5 active torsions:
REMARK  status: ('A' for Active; 'I' for Inactive)
REMARK    1  A    between atoms: C_1  and  C_2
REMARK    2  A    between atoms: C_2  and  C_4
REMARK    3  A    between atoms: C_5  and  N_6
REMARK    4  A    between atoms: N_6  and  C_7
REMARK    5  A    between atoms: C_22  and  C_23
REMARK                            x       y       z     vdW  Elec       q    Type
REMARK                         _______ _______ _______ _____ _____    ______ ____
ROOT
ATOM      1  C   UNL     1      -1.541  12.460  20.950  0.00  0.00    +0.000 A 
ATOM      2  C   UNL     1      -2.733  13.022  20.627  0.00  0.00    +0.000 A 
ATOM      3  N   UNL     1      -3.427  12.569  19.519  0.00  0.00    +0.000 N 
ATOM      4  C   UNL     1      -2.944  11.611  18.615  0.00  0.00    +0.000 A 
ATOM      5  C   UNL     1      -3.658  11.236  17.466  0.00  0.00    +0.000 A 
ATOM      6 CL   UNL     1      -5.240  11.863  17.166  0.00  0.00    +0.000 Cl
ATOM      7  C   UNL     1      -3.112  10.340  16.545  0.00  0.00    +0.000 A 
ATOM      8  C   UNL     1      -1.831   9.823  16.742  0.00  0.00    +0.000 A 
ATOM      9  C   UNL     1      -1.092  10.169  17.880  0.00  0.00    +0.000 A 
ATOM     10  C   UNL     1       0.299   9.616  18.040  0.00  0.00    +0.000 C 
ATOM     11  C   UNL     1      -1.681  11.035  18.829  0.00  0.00    +0.000 A 
ATOM     12  C   UNL     1      -1.030  11.339  20.121  0.00  0.00    +0.000 A 
ATOM     13  O   UNL     1      -0.115  10.632  20.539  0.00  0.00    +0.000 OA
ATOM     14  H   UNL     1      -4.368  12.930  19.396  0.00  0.00    +0.000 HD
ENDROOT
BRANCH   1  16
ATOM     15  C   UNL     1       0.345  14.001  21.819  0.00  0.00    +0.000 C 
ATOM     16  C   UNL     1      -0.731  12.974  22.100  0.00  0.00    +0.000 C 
ATOM     17  O   UNL     1      -0.993  12.635  23.257  0.00  0.00    +0.000 OA
ENDBRANCH   1  16
BRANCH   2  18
ATOM     18  N   UNL     1      -3.324  14.005  21.416  0.00  0.00    +0.000 N 
ATOM     19  H   UNL     1      -3.423  14.899  20.910  0.00  0.00    +0.000 HD
BRANCH  18  20
ATOM     20  C   UNL     1      -4.459  13.839  22.256  0.00  0.00    +0.000 A 
ATOM     21  C   UNL     1      -4.521  12.913  23.302  0.00  0.00    +0.000 A 
ATOM     22  C   UNL     1      -5.652  12.858  24.117  0.00  0.00    +0.000 A 
ATOM     23  F   UNL     1      -5.701  11.952  25.104  0.00  0.00    +0.000 F 
ATOM     24  C   UNL     1      -6.720  13.728  23.921  0.00  0.00    +0.000 A 
ATOM     25  F   UNL     1      -7.791  13.675  24.724  0.00  0.00    +0.000 F 
ATOM     26  C   UNL     1      -6.682  14.661  22.896  0.00  0.00    +0.000 A 
ATOM     27  C   UNL     1      -5.556  14.711  22.081  0.00  0.00    +0.000 A 
ATOM     28  F   UNL     1      -5.524  15.617  21.092  0.00  0.00    +0.000 F 
ENDBRANCH  18  20
ENDBRANCH   2  18
TORSDOF 3
ENDMDL
MODEL 8
REMARK VINA RESULT:      -7.6      9.723     12.239
REMARK  Name = 
REMARK  5 active torsions:
REMARK  status: ('A' for Active; 'I' for Inactive)
REMARK    1  A    between atoms: C_1  and  C_2
REMARK    2  A    between atoms: C_2  and  C_4
REMARK    3  A    between atoms: C_5  and  N_6
REMARK    4  A    between atoms: N_6  and  C_7
REMARK    5  A    between atoms: C_22  and  C_23
REMARK                            x       y       z     vdW  Elec       q    Type
REMARK                         _______ _______ _______ _____ _____    ______ ____
ROOT
ATOM      1  C   UNL     1      -2.951  12.870  22.074  0.00  0.00    +0.000 A 
ATOM      2  C   UNL     1      -2.900  13.038  20.729  0.00  0.00    +0.000 A 
ATOM      3  N   UNL     1      -4.067  13.263  20.021  0.00  0.00    +0.000 N 
ATOM      4  C   UNL     1      -5.353  13.237  20.580  0.00  0.00    +0.000 A 
ATOM      5  C   UNL     1      -6.512  13.401  19.804  0.00  0.00    +0.000 A 
ATOM      6 CL   UNL     1      -6.402  13.761  18.118  0.00  0.00    +0.000 Cl
ATOM      7  C   UNL     1      -7.779  13.288  20.379  0.00  0.00    +0.000 A 
ATOM      8  C   UNL     1      -7.912  12.982  21.733  0.00  0.00    +0.000 A 
ATOM      9  C   UNL     1      -6.780  12.818  22.539  0.00  0.00    +0.000 A 
ATOM     10  C   UNL     1      -6.964  12.456  23.990  0.00  0.00    +0.000 C 
ATOM     11  C   UNL     1      -5.504  12.988  21.953  0.00  0.00    +0.000 A 
ATOM     12  C   UNL     1      -4.264  12.972  22.759  0.00  0.00    +0.000 A 
ATOM     13  O   UNL     1      -4.314  13.107  23.981  0.00  0.00    +0.000 OA
ATOM     14  H   UNL     1      -3.961  13.510  19.042  0.00  0.00    +0.000 HD
ENDROOT
BRANCH   1  16
ATOM     15  C   UNL     1      -1.394  11.104  23.142  0.00  0.00    +0.000 C 
ATOM     16  C   UNL     1      -1.716  12.556  22.861  0.00  0.00    +0.000 C 
ATOM     17  O   UNL     1      -0.936  13.451  23.196  0.00  0.00    +0.000 OA
ENDBRANCH   1  16
BRANCH   2  18
ATOM     18  N   UNL     1      -1.694  13.060  20.033  0.00  0.00    +0.000 N 
ATOM     19  H   UNL     1      -0.974  13.615  20.523  0.00  0.00    +0.000 HD
BRANCH  18  20
ATOM     20  C   UNL     1      -1.057  11.947  19.419  0.00  0.00    +0.000 A 
ATOM     21  C   UNL     1      -1.643  11.180  18.407  0.00  0.00    +0.000 A 
ATOM     22  C   UNL     1      -0.924  10.140  17.817  0.00  0.00    +0.000 A 
ATOM     23  F   UNL     1      -1.508   9.405  16.861  0.00  0.00    +0.000 F 
ATOM     24  C   UNL     1       0.384   9.865  18.203  0.00  0.00    +0.000 A 
ATOM     25  F   UNL     1       1.068   8.875  17.613  0.00  0.00    +0.000 F 
ATOM     26  C   UNL     1       0.992  10.614  19.198  0.00  0.00    +0.000 A 
ATOM     27  C   UNL     1       0.271  11.646  19.790  0.00  0.00    +0.000 A 
ATOM     28  F   UNL     1       0.866  12.369  20.751  0.00  0.00    +0.000 F 
ENDBRANCH  18  20
ENDBRANCH   2  18
TORSDOF 3
ENDMDL
MODEL 9
REMARK VINA RESULT:      -7.6      5.425      7.981
REMARK  Name = 
REMARK  5 active torsions:
REMARK  status: ('A' for Active; 'I' for Inactive)
REMARK    1  A    between atoms: C_1  and  C_2
REMARK    2  A    between atoms: C_2  and  C_4
REMARK    3  A    between atoms: C_5  and  N_6
REMARK    4  A    between atoms: N_6  and  C_7
REMARK    5  A    between atoms: C_22  and  C_23
REMARK                            x       y       z     vdW  Elec       q    Type
REMARK                         _______ _______ _______ _____ _____    ______ ____
ROOT
ATOM      1  C   UNL     1       1.805   7.614  20.046  0.00  0.00    +0.000 A 
ATOM      2  C   UNL     1       2.271   8.343  19.001  0.00  0.00    +0.000 A 
ATOM      3  N   UNL     1       3.037   7.731  18.025  0.00  0.00    +0.000 N 
ATOM      4  C   UNL     1       3.466   6.396  18.071  0.00  0.00    +0.000 A 
ATOM      5  C   UNL     1       4.302   5.842  17.088  0.00  0.00    +0.000 A 
ATOM      6 CL   UNL     1       4.753   6.758  15.695  0.00  0.00    +0.000 Cl
ATOM      7  C   UNL     1       4.777   4.535  17.207  0.00  0.00    +0.000 A 
ATOM      8  C   UNL     1       4.450   3.768  18.325  0.00  0.00    +0.000 A 
ATOM      9  C   UNL     1       3.614   4.284  19.323  0.00  0.00    +0.000 A 
ATOM     10  C   UNL     1       3.310   3.436  20.529  0.00  0.00    +0.000 C 
ATOM     11  C   UNL     1       3.097   5.590  19.160  0.00  0.00    +0.000 A 
ATOM     12  C   UNL     1       2.100   6.159  20.091  0.00  0.00    +0.000 A 
ATOM     13  O   UNL     1       1.470   5.426  20.853  0.00  0.00    +0.000 OA
ATOM     14  H   UNL     1       3.249   8.287  17.203  0.00  0.00    +0.000 HD
ENDROOT
BRANCH   1  16
ATOM     15  C   UNL     1      -0.458   8.019  21.229  0.00  0.00    +0.000 C 
ATOM     16  C   UNL     1       1.035   8.259  21.157  0.00  0.00    +0.000 C 
ATOM     17  O   UNL     1       1.615   8.897  22.039  0.00  0.00    +0.000 OA
ENDBRANCH   1  16
BRANCH   2  18
ATOM     18  N   UNL     1       1.949   9.687  18.837  0.00  0.00    +0.000 N 
ATOM     19  H   UNL     1       2.608  10.169  18.205  0.00  0.00    +0.000 HD
BRANCH  18  20
ATOM     20  C   UNL     1       0.650  10.220  18.617  0.00  0.00    +0.000 A 
ATOM     21  C   UNL     1      -0.281   9.655  17.738  0.00  0.00    +0.000 A 
ATOM     22  C   UNL     1      -1.557  10.208  17.626  0.00  0.00    +0.000 A 
ATOM     23  F   UNL     1      -2.429   9.664  16.766  0.00  0.00    +0.000 F 
ATOM     24  C   UNL     1      -1.933  11.304  18.395  0.00  0.00    +0.000 A 
ATOM     25  F   UNL     1      -3.169  11.811  18.290  0.00  0.00    +0.000 F 
ATOM     26  C   UNL     1      -1.034  11.879  19.280  0.00  0.00    +0.000 A 
ATOM     27  C   UNL     1       0.240  11.331  19.385  0.00  0.00    +0.000 A 
ATOM     28  F   UNL     1       1.106  11.891  20.245  0.00  0.00    +0.000 F 
ENDBRANCH  18  20
ENDBRANCH   2  18
TORSDOF 3
ENDMDL
