MODEL 1
REMARK VINA RESULT:      -8.3      0.000      0.000
REMARK  Name = 
REMARK  7 active torsions:
REMARK  status: ('A' for Active; 'I' for Inactive)
REMARK    1  A    between atoms: C_1  and  C_2
REMARK    2  A    between atoms: C_2  and  C_3
REMARK    3  A    between atoms: C_2  and  C_4
REMARK    4  A    between atoms: C_2  and  N_5
REMARK    5  A    between atoms: C_6  and  C_8
REMARK    6  A    between atoms: N_11  and  C_12
REMARK    7  A    between atoms: C_21  and  C_22
REMARK                            x       y       z     vdW  Elec       q    Type
REMARK                         _______ _______ _______ _____ _____    ______ ____
ROOT
ATOM      1  C   UNL     1       6.696   4.383  15.804  0.00  0.00    +0.000 C 
ATOM      2  C   UNL     1       5.441   3.597  16.171  0.00  0.00    +0.000 C 
ATOM      3  C   UNL     1       4.182   4.476  16.198  0.00  0.00    +0.000 C 
ATOM      4  N   UNL     1       4.437   5.604  17.082  0.00  0.00    +0.000 N 
ATOM      5  C   UNL     1       5.429   6.527  16.527  0.00  0.00    +0.000 C 
ATOM      6  C   UNL     1       6.768   5.771  16.492  0.00  0.00    +0.000 C 
ENDROOT
BRANCH   4   7
ATOM      7  C   UNL     1       3.612   5.983  18.126  0.00  0.00    +0.000 A 
ATOM      8  N   UNL     1       3.105   7.250  18.092  0.00  0.00    +0.000 NA
ATOM      9  C   UNL     1       2.274   7.684  19.080  0.00  0.00    +0.000 A 
ATOM     10  C   UNL     1       1.751   8.982  19.119  0.00  0.00    +0.000 A 
ATOM     11  C   UNL     1       0.890   9.405  20.142  0.00  0.00    +0.000 A 
ATOM     12  C   UNL     1       0.532   8.523  21.152  0.00  0.00    +0.000 A 
ATOM     13  C   UNL     1       1.051   7.234  21.131  0.00  0.00    +0.000 A 
ATOM     14  C   UNL     1       1.912   6.820  20.124  0.00  0.00    +0.000 A 
ATOM     15  N   UNL     1       2.402   5.588  20.197  0.00  0.00    +0.000 NA
ATOM     16  C   UNL     1       3.291   5.176  19.229  0.00  0.00    +0.000 A 
BRANCH  16  17
ATOM     17  C   UNL     1       3.908   3.840  19.561  0.00  0.00    +0.000 C 
ATOM     18  F   UNL     1       5.256   3.734  19.539  0.00  0.00    +0.000 F 
ATOM     19  F   UNL     1       3.598   3.419  20.827  0.00  0.00    +0.000 F 
ATOM     20  F   UNL     1       3.475   2.846  18.729  0.00  0.00    +0.000 F 
ENDBRANCH  16  17
ENDBRANCH   4   7
BRANCH   1  22
ATOM     21  N   UNL     1       6.161   3.417  13.632  0.00  0.00    +0.000 N 
ATOM     22  C   UNL     1       6.792   4.450  14.302  0.00  0.00    +0.000 C 
ATOM     23  O   UNL     1       7.393   5.375  13.744  0.00  0.00    +0.000 OA
ATOM     24  H   UNL     1       5.662   2.717  14.157  0.00  0.00    +0.000 HD
BRANCH  21  26
ATOM     25  C   UNL     1       6.542   1.858  11.776  0.00  0.00    +0.000 C 
ATOM     26  C   UNL     1       6.169   3.296  12.166  0.00  0.00    +0.000 C 
ATOM     27  C   UNL     1       7.164   4.291  11.544  0.00  0.00    +0.000 C 
ATOM     28  C   UNL     1       4.763   3.588  11.611  0.00  0.00    +0.000 C 
ENDBRANCH  21  26
ENDBRANCH   1  22
TORSDOF 4
ENDMDL
MODEL 2
REMARK VINA RESULT:      -8.3      0.054      1.096
REMARK  Name = 
REMARK  7 active torsions:
REMARK  status: ('A' for Active; 'I' for Inactive)
REMARK    1  A    between atoms: C_1  and  C_2
REMARK    2  A    between atoms: C_2  and  C_3
REMARK    3  A    between atoms: C_2  and  C_4
REMARK    4  A    between atoms: C_2  and  N_5
REMARK    5  A    between atoms: C_6  and  C_8
REMARK    6  A    between atoms: N_11  and  C_12
REMARK    7  A    between atoms: C_21  and  C_22
REMARK                            x       y       z     vdW  Elec       q    Type
REMARK                         _______ _______ _______ _____ _____    ______ ____
ROOT
ATOM      1  C   UNL     1       6.668   4.365  15.799  0.00  0.00    +0.000 C 
ATOM      2  C   UNL     1       5.415   3.580  16.176  0.00  0.00    +0.000 C 
ATOM      3  C   UNL     1       4.156   4.459  16.210  0.00  0.00    +0.000 C 
ATOM      4  N   UNL     1       4.417   5.589  17.090  0.00  0.00    +0.000 N 
ATOM      5  C   UNL     1       5.405   6.511  16.528  0.00  0.00    +0.000 C 
ATOM      6  C   UNL     1       6.743   5.755  16.485  0.00  0.00    +0.000 C 
ENDROOT
BRANCH   4   7
ATOM      7  C   UNL     1       3.598   5.968  18.140  0.00  0.00    +0.000 A 
ATOM      8  N   UNL     1       3.091   7.235  18.108  0.00  0.00    +0.000 NA
ATOM      9  C   UNL     1       2.267   7.670  19.101  0.00  0.00    +0.000 A 
ATOM     10  C   UNL     1       1.744   8.969  19.141  0.00  0.00    +0.000 A 
ATOM     11  C   UNL     1       0.890   9.394  20.169  0.00  0.00    +0.000 A 
ATOM     12  C   UNL     1       0.538   8.512  21.183  0.00  0.00    +0.000 A 
ATOM     13  C   UNL     1       1.057   7.223  21.159  0.00  0.00    +0.000 A 
ATOM     14  C   UNL     1       1.911   6.808  20.148  0.00  0.00    +0.000 A 
ATOM     15  N   UNL     1       2.401   5.576  20.218  0.00  0.00    +0.000 NA
ATOM     16  C   UNL     1       3.284   5.163  19.245  0.00  0.00    +0.000 A 
BRANCH  16  17
ATOM     17  C   UNL     1       3.903   3.827  19.575  0.00  0.00    +0.000 C 
ATOM     18  F   UNL     1       3.625   2.776  18.769  0.00  0.00    +0.000 F 
ATOM     19  F   UNL     1       5.272   3.863  19.552  0.00  0.00    +0.000 F 
ATOM     20  F   UNL     1       3.570   3.394  20.828  0.00  0.00    +0.000 F 
ENDBRANCH  16  17
ENDBRANCH   4   7
BRANCH   1  22
ATOM     21  N   UNL     1       6.159   3.373  13.634  0.00  0.00    +0.000 N 
ATOM     22  C   UNL     1       6.754   4.431  14.297  0.00  0.00    +0.000 C 
ATOM     23  O   UNL     1       7.316   5.376  13.732  0.00  0.00    +0.000 OA
ATOM     24  H   UNL     1       5.689   2.656  14.163  0.00  0.00    +0.000 HD
BRANCH  21  26
ATOM     25  C   UNL     1       4.772   3.595  11.622  0.00  0.00    +0.000 C 
ATOM     26  C   UNL     1       6.164   3.246  12.168  0.00  0.00    +0.000 C 
ATOM     27  C   UNL     1       6.558   1.820  11.748  0.00  0.00    +0.000 C 
ATOM     28  C   UNL     1       7.173   4.239  11.562  0.00  0.00    +0.000 C 
ENDBRANCH  21  26
ENDBRANCH   1  22
TORSDOF 4
ENDMDL
MODEL 3
REMARK VINA RESULT:      -7.3      3.079      7.578
REMARK  Name = 
REMARK  7 active torsions:
REMARK  status: ('A' for Active; 'I' for Inactive)
REMARK    1  A    between atoms: C_1  and  C_2
REMARK    2  A    between atoms: C_2  and  C_3
REMARK    3  A    between atoms: C_2  and  C_4
REMARK    4  A    between atoms: C_2  and  N_5
REMARK    5  A    between atoms: C_6  and  C_8
REMARK    6  A    between atoms: N_11  and  C_12
REMARK    7  A    between atoms: C_21  and  C_22
REMARK                            x       y       z     vdW  Elec       q    Type
REMARK                         _______ _______ _______ _____ _____    ______ ____
ROOT
ATOM      1  C   UNL     1       3.593   5.850  19.707  0.00  0.00    +0.000 C 
ATOM      2  C   UNL     1       3.125   6.384  18.356  0.00  0.00    +0.000 C 
ATOM      3  C   UNL     1       3.352   5.381  17.215  0.00  0.00    +0.000 C 
ATOM      4  N   UNL     1       4.755   4.991  17.229  0.00  0.00    +0.000 N 
ATOM      5  C   UNL     1       5.093   4.184  18.402  0.00  0.00    +0.000 C 
ATOM      6  C   UNL     1       4.950   5.101  19.628  0.00  0.00    +0.000 C 
ENDROOT
BRANCH   4   7
ATOM      7  C   UNL     1       5.590   5.038  16.126  0.00  0.00    +0.000 A 
ATOM      8  N   UNL     1       5.295   4.207  15.084  0.00  0.00    +0.000 NA
ATOM      9  C   UNL     1       6.067   4.211  13.962  0.00  0.00    +0.000 A 
ATOM     10  C   UNL     1       5.835   3.358  12.877  0.00  0.00    +0.000 A 
ATOM     11  C   UNL     1       6.637   3.385  11.726  0.00  0.00    +0.000 A 
ATOM     12  C   UNL     1       7.695   4.281  11.644  0.00  0.00    +0.000 A 
ATOM     13  C   UNL     1       7.941   5.128  12.718  0.00  0.00    +0.000 A 
ATOM     14  C   UNL     1       7.154   5.092  13.860  0.00  0.00    +0.000 A 
ATOM     15  N   UNL     1       7.479   5.899  14.862  0.00  0.00    +0.000 NA
ATOM     16  C   UNL     1       6.733   5.846  16.019  0.00  0.00    +0.000 A 
BRANCH  16  17
ATOM     17  C   UNL     1       7.347   6.667  17.126  0.00  0.00    +0.000 C 
ATOM     18  F   UNL     1       8.278   7.591  16.795  0.00  0.00    +0.000 F 
ATOM     19  F   UNL     1       6.419   7.411  17.804  0.00  0.00    +0.000 F 
ATOM     20  F   UNL     1       7.957   5.892  18.072  0.00  0.00    +0.000 F 
ENDBRANCH  16  17
ENDBRANCH   4   7
BRANCH   1  22
ATOM     21  N   UNL     1       2.500   3.687  19.947  0.00  0.00    +0.000 N 
ATOM     22  C   UNL     1       2.483   5.023  20.302  0.00  0.00    +0.000 C 
ATOM     23  O   UNL     1       1.642   5.534  21.051  0.00  0.00    +0.000 OA
ATOM     24  H   UNL     1       3.240   3.338  19.359  0.00  0.00    +0.000 HD
BRANCH  21  26
ATOM     25  C   UNL     1       0.089   3.233  20.005  0.00  0.00    +0.000 C 
ATOM     26  C   UNL     1       1.483   2.728  20.406  0.00  0.00    +0.000 C 
ATOM     27  C   UNL     1       1.561   2.542  21.931  0.00  0.00    +0.000 C 
ATOM     28  C   UNL     1       1.706   1.364  19.728  0.00  0.00    +0.000 C 
ENDBRANCH  21  26
ENDBRANCH   1  22
TORSDOF 4
ENDMDL
MODEL 4
REMARK VINA RESULT:      -7.2      3.510      8.563
REMARK  Name = 
REMARK  7 active torsions:
REMARK  status: ('A' for Active; 'I' for Inactive)
REMARK    1  A    between atoms: C_1  and  C_2
REMARK    2  A    between atoms: C_2  and  C_3
REMARK    3  A    between atoms: C_2  and  C_4
REMARK    4  A    between atoms: C_2  and  N_5
REMARK    5  A    between atoms: C_6  and  C_8
REMARK    6  A    between atoms: N_11  and  C_12
REMARK    7  A    between atoms: C_21  and  C_22
REMARK                            x       y       z     vdW  Elec       q    Type
REMARK                         _______ _______ _______ _____ _____    ______ ____
ROOT
ATOM      1  C   UNL     1      -0.234   9.504  20.525  0.00  0.00    +0.000 C 
ATOM      2  C   UNL     1       0.480   8.429  21.339  0.00  0.00    +0.000 C 
ATOM      3  C   UNL     1       1.953   8.264  20.932  0.00  0.00    +0.000 C 
ATOM      4  N   UNL     1       2.002   8.032  19.496  0.00  0.00    +0.000 N 
ATOM      5  C   UNL     1       1.617   9.218  18.730  0.00  0.00    +0.000 C 
ATOM      6  C   UNL     1       0.126   9.466  19.017  0.00  0.00    +0.000 C 
ENDROOT
BRANCH   4   7
ATOM      7  C   UNL     1       2.670   6.978  18.897  0.00  0.00    +0.000 A 
ATOM      8  N   UNL     1       3.453   7.269  17.818  0.00  0.00    +0.000 NA
ATOM      9  C   UNL     1       4.149   6.282  17.188  0.00  0.00    +0.000 A 
ATOM     10  C   UNL     1       4.940   6.513  16.056  0.00  0.00    +0.000 A 
ATOM     11  C   UNL     1       5.657   5.484  15.428  0.00  0.00    +0.000 A 
ATOM     12  C   UNL     1       5.594   4.192  15.933  0.00  0.00    +0.000 A 
ATOM     13  C   UNL     1       4.806   3.947  17.052  0.00  0.00    +0.000 A 
ATOM     14  C   UNL     1       4.089   4.965  17.665  0.00  0.00    +0.000 A 
ATOM     15  N   UNL     1       3.323   4.645  18.701  0.00  0.00    +0.000 NA
ATOM     16  C   UNL     1       2.571   5.635  19.294  0.00  0.00    +0.000 A 
BRANCH  16  17
ATOM     17  C   UNL     1       1.609   5.079  20.315  0.00  0.00    +0.000 C 
ATOM     18  F   UNL     1       0.412   5.692  20.466  0.00  0.00    +0.000 F 
ATOM     19  F   UNL     1       1.248   3.786  20.045  0.00  0.00    +0.000 F 
ATOM     20  F   UNL     1       2.142   5.055  21.573  0.00  0.00    +0.000 F 
ENDBRANCH  16  17
ENDBRANCH   4   7
BRANCH   1  22
ATOM     21  N   UNL     1      -0.185  11.933  20.350  0.00  0.00    +0.000 N 
ATOM     22  C   UNL     1       0.024  10.840  21.171  0.00  0.00    +0.000 C 
ATOM     23  O   UNL     1       0.390  10.916  22.350  0.00  0.00    +0.000 OA
ATOM     24  H   UNL     1      -0.517  11.792  19.410  0.00  0.00    +0.000 HD
BRANCH  21  26
ATOM     25  C   UNL     1       1.550  13.561  20.954  0.00  0.00    +0.000 C 
ATOM     26  C   UNL     1       0.042  13.318  20.794  0.00  0.00    +0.000 C 
ATOM     27  C   UNL     1      -0.685  13.588  22.122  0.00  0.00    +0.000 C 
ATOM     28  C   UNL     1      -0.486  14.299  19.732  0.00  0.00    +0.000 C 
ENDBRANCH  21  26
ENDBRANCH   1  22
TORSDOF 4
ENDMDL
MODEL 5
REMARK VINA RESULT:      -7.0      3.451      8.493
REMARK  Name = 
REMARK  7 active torsions:
REMARK  status: ('A' for Active; 'I' for Inactive)
REMARK    1  A    between atoms: C_1  and  C_2
REMARK    2  A    between atoms: C_2  and  C_3
REMARK    3  A    between atoms: C_2  and  C_4
REMARK    4  A    between atoms: C_2  and  N_5
REMARK    5  A    between atoms: C_6  and  C_8
REMARK    6  A    between atoms: N_11  and  C_12
REMARK    7  A    between atoms: C_21  and  C_22
REMARK                            x       y       z     vdW  Elec       q    Type
REMARK                         _______ _______ _______ _____ _____    ______ ____
ROOT
ATOM      1  C   UNL     1      -0.133   9.405  20.473  0.00  0.00    +0.000 C 
ATOM      2  C   UNL     1       0.554   8.305  21.276  0.00  0.00    +0.000 C 
ATOM      3  C   UNL     1       2.031   8.128  20.890  0.00  0.00    +0.000 C 
ATOM      4  N   UNL     1       2.101   7.924  19.451  0.00  0.00    +0.000 N 
ATOM      5  C   UNL     1       1.745   9.131  18.703  0.00  0.00    +0.000 C 
ATOM      6  C   UNL     1       0.253   9.393  18.970  0.00  0.00    +0.000 C 
ENDROOT
BRANCH   4   7
ATOM      7  C   UNL     1       2.766   6.874  18.841  0.00  0.00    +0.000 A 
ATOM      8  N   UNL     1       3.536   7.171  17.754  0.00  0.00    +0.000 NA
ATOM      9  C   UNL     1       4.227   6.188  17.114  0.00  0.00    +0.000 A 
ATOM     10  C   UNL     1       5.005   6.425  15.973  0.00  0.00    +0.000 A 
ATOM     11  C   UNL     1       5.718   5.399  15.335  0.00  0.00    +0.000 A 
ATOM     12  C   UNL     1       5.664   4.105  15.837  0.00  0.00    +0.000 A 
ATOM     13  C   UNL     1       4.889   3.855  16.963  0.00  0.00    +0.000 A 
ATOM     14  C   UNL     1       4.176   4.869  17.587  0.00  0.00    +0.000 A 
ATOM     15  N   UNL     1       3.422   4.544  18.630  0.00  0.00    +0.000 NA
ATOM     16  C   UNL     1       2.675   5.530  19.235  0.00  0.00    +0.000 A 
BRANCH  16  17
ATOM     17  C   UNL     1       1.725   4.968  20.264  0.00  0.00    +0.000 C 
ATOM     18  F   UNL     1       1.975   5.220  21.570  0.00  0.00    +0.000 F 
ATOM     19  F   UNL     1       0.448   5.438  20.111  0.00  0.00    +0.000 F 
ATOM     20  F   UNL     1       1.625   3.607  20.192  0.00  0.00    +0.000 F 
ENDBRANCH  16  17
ENDBRANCH   4   7
BRANCH   1  22
ATOM     21  N   UNL     1      -0.095  11.839  20.364  0.00  0.00    +0.000 N 
ATOM     22  C   UNL     1       0.133  10.724  21.151  0.00  0.00    +0.000 C 
ATOM     23  O   UNL     1       0.519  10.769  22.324  0.00  0.00    +0.000 OA
ATOM     24  H   UNL     1      -0.444  11.722  19.426  0.00  0.00    +0.000 HD
BRANCH  21  26
ATOM     25  C   UNL     1      -0.504  14.205  19.860  0.00  0.00    +0.000 C 
ATOM     26  C   UNL     1       0.134  13.211  20.841  0.00  0.00    +0.000 C 
ATOM     27  C   UNL     1       1.640  13.493  20.980  0.00  0.00    +0.000 C 
ATOM     28  C   UNL     1      -0.536  13.406  22.214  0.00  0.00    +0.000 C 
ENDBRANCH  21  26
ENDBRANCH   1  22
TORSDOF 4
ENDMDL
MODEL 6
REMARK VINA RESULT:      -6.9      5.362      7.427
REMARK  Name = 
REMARK  7 active torsions:
REMARK  status: ('A' for Active; 'I' for Inactive)
REMARK    1  A    between atoms: C_1  and  C_2
REMARK    2  A    between atoms: C_2  and  C_3
REMARK    3  A    between atoms: C_2  and  C_4
REMARK    4  A    between atoms: C_2  and  N_5
REMARK    5  A    between atoms: C_6  and  C_8
REMARK    6  A    between atoms: N_11  and  C_12
REMARK    7  A    between atoms: C_21  and  C_22
REMARK                            x       y       z     vdW  Elec       q    Type
REMARK                         _______ _______ _______ _____ _____    ______ ____
ROOT
ATOM      1  C   UNL     1       2.887   7.194  19.279  0.00  0.00    +0.000 C 
ATOM      2  C   UNL     1       2.116   7.842  20.425  0.00  0.00    +0.000 C 
ATOM      3  C   UNL     1       0.804   8.492  19.959  0.00  0.00    +0.000 C 
ATOM      4  N   UNL     1       1.116   9.414  18.878  0.00  0.00    +0.000 N 
ATOM      5  C   UNL     1       1.546   8.718  17.664  0.00  0.00    +0.000 C 
ATOM      6  C   UNL     1       2.895   8.054  17.988  0.00  0.00    +0.000 C 
ENDROOT
BRANCH   4   7
ATOM      7  C   UNL     1       0.718  10.740  18.840  0.00  0.00    +0.000 A 
ATOM      8  N   UNL     1       1.587  11.665  19.343  0.00  0.00    +0.000 NA
ATOM      9  C   UNL     1       1.265  12.989  19.325  0.00  0.00    +0.000 A 
ATOM     10  C   UNL     1       2.098  13.981  19.857  0.00  0.00    +0.000 A 
ATOM     11  C   UNL     1       1.752  15.339  19.820  0.00  0.00    +0.000 A 
ATOM     12  C   UNL     1       0.553  15.730  19.240  0.00  0.00    +0.000 A 
ATOM     13  C   UNL     1      -0.287  14.755  18.716  0.00  0.00    +0.000 A 
ATOM     14  C   UNL     1       0.051  13.410  18.763  0.00  0.00    +0.000 A 
ATOM     15  N   UNL     1      -0.823  12.534  18.283  0.00  0.00    +0.000 NA
ATOM     16  C   UNL     1      -0.520  11.193  18.361  0.00  0.00    +0.000 A 
BRANCH  16  17
ATOM     17  C   UNL     1      -1.690  10.326  17.965  0.00  0.00    +0.000 C 
ATOM     18  F   UNL     1      -2.146   9.418  18.859  0.00  0.00    +0.000 F 
ATOM     19  F   UNL     1      -2.814  11.057  17.686  0.00  0.00    +0.000 F 
ATOM     20  F   UNL     1      -1.439   9.597  16.836  0.00  0.00    +0.000 F 
ENDBRANCH  16  17
ENDBRANCH   4   7
BRANCH   1  22
ATOM     21  N   UNL     1       2.459   4.967  20.168  0.00  0.00    +0.000 N 
ATOM     22  C   UNL     1       2.349   5.802  19.071  0.00  0.00    +0.000 C 
ATOM     23  O   UNL     1       1.849   5.469  17.991  0.00  0.00    +0.000 OA
ATOM     24  H   UNL     1       2.847   5.323  21.027  0.00  0.00    +0.000 HD
BRANCH  21  26
ATOM     25  C   UNL     1       2.914   2.758  19.201  0.00  0.00    +0.000 C 
ATOM     26  C   UNL     1       2.014   3.564  20.149  0.00  0.00    +0.000 C 
ATOM     27  C   UNL     1       0.546   3.466  19.699  0.00  0.00    +0.000 C 
ATOM     28  C   UNL     1       2.143   2.956  21.557  0.00  0.00    +0.000 C 
ENDBRANCH  21  26
ENDBRANCH   1  22
TORSDOF 4
ENDMDL
MODEL 7
REMARK VINA RESULT:      -6.7      5.525     10.092
REMARK  Name = 
REMARK  7 active torsions:
REMARK  status: ('A' for Active; 'I' for Inactive)
REMARK    1  A    between atoms: C_1  and  C_2
REMARK    2  A    between atoms: C_2  and  C_3
REMARK    3  A    between atoms: C_2  and  C_4
REMARK    4  A    between atoms: C_2  and  N_5
REMARK    5  A    between atoms: C_6  and  C_8
REMARK    6  A    between atoms: N_11  and  C_12
REMARK    7  A    between atoms: C_21  and  C_22
REMARK                            x       y       z     vdW  Elec       q    Type
REMARK                         _______ _______ _______ _____ _____    ______ ____
ROOT
ATOM      1  C   UNL     1      -0.673  13.456  20.263  0.00  0.00    +0.000 C 
ATOM      2  C   UNL     1       0.581  13.046  21.030  0.00  0.00    +0.000 C 
ATOM      3  C   UNL     1       1.524  12.168  20.193  0.00  0.00    +0.000 C 
ATOM      4  N   UNL     1       0.760  11.038  19.687  0.00  0.00    +0.000 N 
ATOM      5  C   UNL     1      -0.230  11.443  18.688  0.00  0.00    +0.000 C 
ATOM      6  C   UNL     1      -1.275  12.301  19.420  0.00  0.00    +0.000 C 
ENDROOT
BRANCH   4   7
ATOM      7  C   UNL     1       1.137   9.713  19.827  0.00  0.00    +0.000 A 
ATOM      8  N   UNL     1       1.828   9.150  18.793  0.00  0.00    +0.000 NA
ATOM      9  C   UNL     1       2.242   7.855  18.869  0.00  0.00    +0.000 A 
ATOM     10  C   UNL     1       2.923   7.212  17.828  0.00  0.00    +0.000 A 
ATOM     11  C   UNL     1       3.349   5.880  17.931  0.00  0.00    +0.000 A 
ATOM     12  C   UNL     1       3.099   5.163  19.094  0.00  0.00    +0.000 A 
ATOM     13  C   UNL     1       2.417   5.787  20.131  0.00  0.00    +0.000 A 
ATOM     14  C   UNL     1       1.986   7.101  20.024  0.00  0.00    +0.000 A 
ATOM     15  N   UNL     1       1.301   7.614  21.039  0.00  0.00    +0.000 NA
ATOM     16  C   UNL     1       0.829   8.903  20.930  0.00  0.00    +0.000 A 
BRANCH  16  17
ATOM     17  C   UNL     1      -0.095   9.264  22.067  0.00  0.00    +0.000 C 
ATOM     18  F   UNL     1      -0.952  10.295  21.892  0.00  0.00    +0.000 F 
ATOM     19  F   UNL     1      -0.932   8.237  22.410  0.00  0.00    +0.000 F 
ATOM     20  F   UNL     1       0.586   9.577  23.211  0.00  0.00    +0.000 F 
ENDBRANCH  16  17
ENDBRANCH   4   7
BRANCH   1  22
ATOM     21  N   UNL     1      -0.061  15.813  20.202  0.00  0.00    +0.000 N 
ATOM     22  C   UNL     1      -0.353  14.687  19.454  0.00  0.00    +0.000 C 
ATOM     23  O   UNL     1      -0.357  14.654  18.219  0.00  0.00    +0.000 OA
ATOM     24  H   UNL     1      -0.044  15.751  21.207  0.00  0.00    +0.000 HD
BRANCH  21  26
ATOM     25  C   UNL     1      -0.874  17.502  18.618  0.00  0.00    +0.000 C 
ATOM     26  C   UNL     1       0.249  17.115  19.592  0.00  0.00    +0.000 C 
ATOM     27  C   UNL     1       1.597  17.063  18.854  0.00  0.00    +0.000 C 
ATOM     28  C   UNL     1       0.323  18.199  20.683  0.00  0.00    +0.000 C 
ENDBRANCH  21  26
ENDBRANCH   1  22
TORSDOF 4
ENDMDL
MODEL 8
REMARK VINA RESULT:      -6.7      5.571     10.009
REMARK  Name = 
REMARK  7 active torsions:
REMARK  status: ('A' for Active; 'I' for Inactive)
REMARK    1  A    between atoms: C_1  and  C_2
REMARK    2  A    between atoms: C_2  and  C_3
REMARK    3  A    between atoms: C_2  and  C_4
REMARK    4  A    between atoms: C_2  and  N_5
REMARK    5  A    between atoms: C_6  and  C_8
REMARK    6  A    between atoms: N_11  and  C_12
REMARK    7  A    between atoms: C_21  and  C_22
REMARK                            x       y       z     vdW  Elec       q    Type
REMARK                         _______ _______ _______ _____ _____    ______ ____
ROOT
ATOM      1  C   UNL     1      -0.508  13.683  20.309  0.00  0.00    +0.000 C 
ATOM      2  C   UNL     1       0.668  13.191  21.149  0.00  0.00    +0.000 C 
ATOM      3  C   UNL     1       1.622  12.288  20.353  0.00  0.00    +0.000 C 
ATOM      4  N   UNL     1       0.840  11.210  19.766  0.00  0.00    +0.000 N 
ATOM      5  C   UNL     1      -0.057  11.689  18.713  0.00  0.00    +0.000 C 
ATOM      6  C   UNL     1      -1.107  12.581  19.396  0.00  0.00    +0.000 C 
ENDROOT
BRANCH   4   7
ATOM      7  C   UNL     1       1.141   9.865  19.894  0.00  0.00    +0.000 A 
ATOM      8  N   UNL     1       1.804   9.273  18.857  0.00  0.00    +0.000 NA
ATOM      9  C   UNL     1       2.143   7.956  18.922  0.00  0.00    +0.000 A 
ATOM     10  C   UNL     1       2.792   7.286  17.878  0.00  0.00    +0.000 A 
ATOM     11  C   UNL     1       3.141   5.931  17.969  0.00  0.00    +0.000 A 
ATOM     12  C   UNL     1       2.846   5.218  19.124  0.00  0.00    +0.000 A 
ATOM     13  C   UNL     1       2.195   5.869  20.165  0.00  0.00    +0.000 A 
ATOM     14  C   UNL     1       1.840   7.207  20.068  0.00  0.00    +0.000 A 
ATOM     15  N   UNL     1       1.180   7.748  21.086  0.00  0.00    +0.000 NA
ATOM     16  C   UNL     1       0.783   9.063  20.988  0.00  0.00    +0.000 A 
BRANCH  16  17
ATOM     17  C   UNL     1      -0.124   9.465  22.125  0.00  0.00    +0.000 C 
ATOM     18  F   UNL     1      -0.988  10.486  21.923  0.00  0.00    +0.000 F 
ATOM     19  F   UNL     1      -0.953   8.449  22.519  0.00  0.00    +0.000 F 
ATOM     20  F   UNL     1       0.573   9.824  23.245  0.00  0.00    +0.000 F 
ENDBRANCH  16  17
ENDBRANCH   4   7
BRANCH   1  22
ATOM     21  N   UNL     1       0.899  15.668  20.192  0.00  0.00    +0.000 N 
ATOM     22  C   UNL     1      -0.074  14.915  19.559  0.00  0.00    +0.000 C 
ATOM     23  O   UNL     1      -0.567  15.198  18.461  0.00  0.00    +0.000 OA
ATOM     24  H   UNL     1       1.277  15.353  21.071  0.00  0.00    +0.000 HD
BRANCH  21  26
ATOM     25  C   UNL     1       2.475  17.507  20.588  0.00  0.00    +0.000 C 
ATOM     26  C   UNL     1       1.430  16.919  19.628  0.00  0.00    +0.000 C 
ATOM     27  C   UNL     1       0.296  17.932  19.392  0.00  0.00    +0.000 C 
ATOM     28  C   UNL     1       2.127  16.633  18.286  0.00  0.00    +0.000 C 
ENDBRANCH  21  26
ENDBRANCH   1  22
TORSDOF 4
ENDMDL
MODEL 9
REMARK VINA RESULT:      -6.6      8.912     10.750
REMARK  Name = 
REMARK  7 active torsions:
REMARK  status: ('A' for Active; 'I' for Inactive)
REMARK    1  A    between atoms: C_1  and  C_2
REMARK    2  A    between atoms: C_2  and  C_3
REMARK    3  A    between atoms: C_2  and  C_4
REMARK    4  A    between atoms: C_2  and  N_5
REMARK    5  A    between atoms: C_6  and  C_8
REMARK    6  A    between atoms: N_11  and  C_12
REMARK    7  A    between atoms: C_21  and  C_22
REMARK                            x       y       z     vdW  Elec       q    Type
REMARK                         _______ _______ _______ _____ _____    ______ ____
ROOT
ATOM      1  C   UNL     1       1.508  12.460  19.211  0.00  0.00    +0.000 C 
ATOM      2  C   UNL     1       0.581  13.223  18.270  0.00  0.00    +0.000 C 
ATOM      3  C   UNL     1      -0.702  13.703  18.967  0.00  0.00    +0.000 C 
ATOM      4  N   UNL     1      -1.334  12.551  19.594  0.00  0.00    +0.000 N 
ATOM      5  C   UNL     1      -0.557  12.042  20.725  0.00  0.00    +0.000 C 
ATOM      6  C   UNL     1       0.752  11.479  20.147  0.00  0.00    +0.000 C 
ENDROOT
BRANCH   4   7
ATOM      7  C   UNL     1      -2.658  12.192  19.414  0.00  0.00    +0.000 A 
ATOM      8  N   UNL     1      -3.551  12.608  20.360  0.00  0.00    +0.000 NA
ATOM      9  C   UNL     1      -4.872  12.302  20.239  0.00  0.00    +0.000 A 
ATOM     10  C   UNL     1      -5.828  12.670  21.193  0.00  0.00    +0.000 A 
ATOM     11  C   UNL     1      -7.186  12.353  21.044  0.00  0.00    +0.000 A 
ATOM     12  C   UNL     1      -7.613  11.655  19.922  0.00  0.00    +0.000 A 
ATOM     13  C   UNL     1      -6.673  11.277  18.971  0.00  0.00    +0.000 A 
ATOM     14  C   UNL     1      -5.328  11.582  19.126  0.00  0.00    +0.000 A 
ATOM     15  N   UNL     1      -4.484  11.147  18.198  0.00  0.00    +0.000 NA
ATOM     16  C   UNL     1      -3.141  11.404  18.358  0.00  0.00    +0.000 A 
BRANCH  16  17
ATOM     17  C   UNL     1      -2.300  10.676  17.338  0.00  0.00    +0.000 C 
ATOM     18  F   UNL     1      -1.153  10.092  17.754  0.00  0.00    +0.000 F 
ATOM     19  F   UNL     1      -2.969   9.632  16.755  0.00  0.00    +0.000 F 
ATOM     20  F   UNL     1      -1.917  11.486  16.306  0.00  0.00    +0.000 F 
ENDBRANCH  16  17
ENDBRANCH   4   7
BRANCH   1  22
ATOM     21  N   UNL     1       2.882  14.471  19.164  0.00  0.00    +0.000 N 
ATOM     22  C   UNL     1       2.362  13.458  19.949  0.00  0.00    +0.000 C 
ATOM     23  O   UNL     1       2.558  13.351  21.165  0.00  0.00    +0.000 OA
ATOM     24  H   UNL     1       2.648  14.510  18.185  0.00  0.00    +0.000 HD
BRANCH  21  26
ATOM     25  C   UNL     1       2.988  16.355  20.733  0.00  0.00    +0.000 C 
ATOM     26  C   UNL     1       3.761  15.522  19.700  0.00  0.00    +0.000 C 
ATOM     27  C   UNL     1       4.278  16.426  18.567  0.00  0.00    +0.000 C 
ATOM     28  C   UNL     1       4.966  14.882  20.413  0.00  0.00    +0.000 C 
ENDBRANCH  21  26
ENDBRANCH   1  22
TORSDOF 4
ENDMDL
