MODEL 1
REMARK VINA RESULT:      -7.8      0.000      0.000
REMARK  Name = 
REMARK  7 active torsions:
REMARK  status: ('A' for Active; 'I' for Inactive)
REMARK    1  A    between atoms: C_2  and  C_3
REMARK    2  A    between atoms: C_4  and  C_5
REMARK    3  A    between atoms: N_11  and  C_12
REMARK    4  A    between atoms: C_12  and  C_13
REMARK    5  A    between atoms: C_13  and  S_14
REMARK    6  A    between atoms: S_14  and  N_17
REMARK    7  A    between atoms: N_20  and  C_21
REMARK                            x       y       z     vdW  Elec       q    Type
REMARK                         _______ _______ _______ _____ _____    ______ ____
ROOT
ATOM      1  S   UNL     1       4.286   4.024  19.085  0.00  0.00    +0.000 S 
ATOM      2  O   UNL     1       4.256   2.611  19.405  0.00  0.00    +0.000 OA
ATOM      3  O   UNL     1       4.724   4.977  20.082  0.00  0.00    +0.000 OA
ENDROOT
BRANCH   1   4
ATOM      4  N   UNL     1       2.730   4.435  18.582  0.00  0.00    +0.000 NA
ATOM      5  C   UNL     1       1.785   4.541  19.759  0.00  0.00    +0.000 C 
ATOM      6  C   UNL     1       2.047   5.819  20.576  0.00  0.00    +0.000 C 
ATOM      7  N   UNL     1       1.948   6.998  19.701  0.00  0.00    +0.000 N 
ATOM      8  C   UNL     1       2.718   6.978  18.448  0.00  0.00    +0.000 C 
ATOM      9  C   UNL     1       2.522   5.638  17.706  0.00  0.00    +0.000 C 
BRANCH   7  10
ATOM     10  C   UNL     1       1.376   8.151  20.205  0.00  0.00    +0.000 A 
ATOM     11  C   UNL     1       1.161   9.281  19.398  0.00  0.00    +0.000 A 
ATOM     12  C   UNL     1       0.793  10.513  19.942  0.00  0.00    +0.000 A 
ATOM     13  C   UNL     1       0.610  10.633  21.314  0.00  0.00    +0.000 A 
ATOM     14  C   UNL     1       0.750   9.513  22.127  0.00  0.00    +0.000 A 
ATOM     15  C   UNL     1       1.115   8.282  21.573  0.00  0.00    +0.000 A 
ENDBRANCH   7  10
ENDBRANCH   1   4
BRANCH   1  16
ATOM     16  C   UNL     1       5.354   4.241  17.670  0.00  0.00    +0.000 C 
BRANCH  16  17
ATOM     17  C   UNL     1       6.684   4.796  18.170  0.00  0.00    +0.000 C 
BRANCH  17  20
ATOM     18  O   UNL     1       7.684   6.534  16.155  0.00  0.00    +0.000 OA
ATOM     19  C   UNL     1       7.306   6.997  17.218  0.00  0.00    +0.000 C 
ATOM     20  N   UNL     1       6.706   6.256  18.209  0.00  0.00    +0.000 N 
ATOM     21  H   UNL     1       6.588   6.705  19.116  0.00  0.00    +0.000 HD
BRANCH  19  22
ATOM     22  C   UNL     1       7.481   8.422  17.601  0.00  0.00    +0.000 C 
ATOM     23  C   UNL     1       8.615   8.819  18.196  0.00  0.00    +0.000 C 
BRANCH  23  24
ATOM     24  C   UNL     1       8.875  10.196  18.652  0.00  0.00    +0.000 A 
ATOM     25  C   UNL     1       9.333  10.393  19.964  0.00  0.00    +0.000 A 
ATOM     26  C   UNL     1       9.581  11.681  20.448  0.00  0.00    +0.000 A 
ATOM     27  C   UNL     1       9.387  12.786  19.624  0.00  0.00    +0.000 A 
ATOM     28  C   UNL     1       8.963  12.604  18.311  0.00  0.00    +0.000 A 
ATOM     29  C   UNL     1       8.715  11.316  17.826  0.00  0.00    +0.000 A 
ENDBRANCH  23  24
ENDBRANCH  19  22
ENDBRANCH  17  20
ENDBRANCH  16  17
ENDBRANCH   1  16
TORSDOF 7
ENDMDL
MODEL 2
REMARK VINA RESULT:      -7.7      0.955      1.411
REMARK  Name = 
REMARK  7 active torsions:
REMARK  status: ('A' for Active; 'I' for Inactive)
REMARK    1  A    between atoms: C_2  and  C_3
REMARK    2  A    between atoms: C_4  and  C_5
REMARK    3  A    between atoms: N_11  and  C_12
REMARK    4  A    between atoms: C_12  and  C_13
REMARK    5  A    between atoms: C_13  and  S_14
REMARK    6  A    between atoms: S_14  and  N_17
REMARK    7  A    between atoms: N_20  and  C_21
REMARK                            x       y       z     vdW  Elec       q    Type
REMARK                         _______ _______ _______ _____ _____    ______ ____
ROOT
ATOM      1  S   UNL     1       4.093   3.561  18.747  0.00  0.00    +0.000 S 
ATOM      2  O   UNL     1       4.632   3.192  17.454  0.00  0.00    +0.000 OA
ATOM      3  O   UNL     1       4.103   2.599  19.830  0.00  0.00    +0.000 OA
ENDROOT
BRANCH   1   4
ATOM      4  N   UNL     1       2.508   4.068  18.481  0.00  0.00    +0.000 NA
ATOM      5  C   UNL     1       1.776   4.284  19.788  0.00  0.00    +0.000 C 
ATOM      6  C   UNL     1       2.252   5.567  20.493  0.00  0.00    +0.000 C 
ATOM      7  N   UNL     1       2.091   6.719  19.592  0.00  0.00    +0.000 N 
ATOM      8  C   UNL     1       2.643   6.599  18.234  0.00  0.00    +0.000 C 
ATOM      9  C   UNL     1       2.241   5.252  17.596  0.00  0.00    +0.000 C 
BRANCH   7  10
ATOM     10  C   UNL     1       1.687   7.927  20.128  0.00  0.00    +0.000 A 
ATOM     11  C   UNL     1       1.372   8.061  21.490  0.00  0.00    +0.000 A 
ATOM     12  C   UNL     1       0.757   9.210  21.993  0.00  0.00    +0.000 A 
ATOM     13  C   UNL     1       0.465  10.265  21.136  0.00  0.00    +0.000 A 
ATOM     14  C   UNL     1       0.829  10.185  19.797  0.00  0.00    +0.000 A 
ATOM     15  C   UNL     1       1.448   9.032  19.303  0.00  0.00    +0.000 A 
ENDBRANCH   7  10
ENDBRANCH   1   4
BRANCH   1  16
ATOM     16  C   UNL     1       4.995   4.989  19.328  0.00  0.00    +0.000 C 
BRANCH  16  17
ATOM     17  C   UNL     1       6.220   5.164  18.434  0.00  0.00    +0.000 C 
BRANCH  17  20
ATOM     18  O   UNL     1       7.120   7.222  16.692  0.00  0.00    +0.000 OA
ATOM     19  C   UNL     1       7.488   7.211  17.855  0.00  0.00    +0.000 C 
ATOM     20  N   UNL     1       7.024   6.327  18.801  0.00  0.00    +0.000 N 
ATOM     21  H   UNL     1       7.521   6.295  19.688  0.00  0.00    +0.000 HD
BRANCH  19  22
ATOM     22  C   UNL     1       8.522   8.131  18.396  0.00  0.00    +0.000 C 
ATOM     23  C   UNL     1       8.376   9.455  18.257  0.00  0.00    +0.000 C 
BRANCH  23  24
ATOM     24  C   UNL     1       9.358  10.453  18.717  0.00  0.00    +0.000 A 
ATOM     25  C   UNL     1       9.420  10.752  20.087  0.00  0.00    +0.000 A 
ATOM     26  C   UNL     1      10.325  11.701  20.570  0.00  0.00    +0.000 A 
ATOM     27  C   UNL     1      11.188  12.354  19.694  0.00  0.00    +0.000 A 
ATOM     28  C   UNL     1      11.159  12.044  18.338  0.00  0.00    +0.000 A 
ATOM     29  C   UNL     1      10.255  11.095  17.853  0.00  0.00    +0.000 A 
ENDBRANCH  23  24
ENDBRANCH  19  22
ENDBRANCH  17  20
ENDBRANCH  16  17
ENDBRANCH   1  16
TORSDOF 7
ENDMDL
MODEL 3
REMARK VINA RESULT:      -7.6      2.971      4.688
REMARK  Name = 
REMARK  7 active torsions:
REMARK  status: ('A' for Active; 'I' for Inactive)
REMARK    1  A    between atoms: C_2  and  C_3
REMARK    2  A    between atoms: C_4  and  C_5
REMARK    3  A    between atoms: N_11  and  C_12
REMARK    4  A    between atoms: C_12  and  C_13
REMARK    5  A    between atoms: C_13  and  S_14
REMARK    6  A    between atoms: S_14  and  N_17
REMARK    7  A    between atoms: N_20  and  C_21
REMARK                            x       y       z     vdW  Elec       q    Type
REMARK                         _______ _______ _______ _____ _____    ______ ____
ROOT
ATOM      1  S   UNL     1       6.953   5.928  16.808  0.00  0.00    +0.000 S 
ATOM      2  O   UNL     1       7.717   6.035  15.581  0.00  0.00    +0.000 OA
ATOM      3  O   UNL     1       7.451   5.111  17.894  0.00  0.00    +0.000 OA
ENDROOT
BRANCH   1   4
ATOM      4  N   UNL     1       5.419   5.383  16.373  0.00  0.00    +0.000 NA
ATOM      5  C   UNL     1       5.230   3.928  16.742  0.00  0.00    +0.000 C 
ATOM      6  C   UNL     1       5.052   3.753  18.262  0.00  0.00    +0.000 C 
ATOM      7  N   UNL     1       3.924   4.575  18.728  0.00  0.00    +0.000 N 
ATOM      8  C   UNL     1       3.908   5.992  18.331  0.00  0.00    +0.000 C 
ATOM      9  C   UNL     1       4.202   6.141  16.822  0.00  0.00    +0.000 C 
BRANCH   7  10
ATOM     10  C   UNL     1       3.100   4.070  19.716  0.00  0.00    +0.000 A 
ATOM     11  C   UNL     1       3.518   3.031  20.564  0.00  0.00    +0.000 A 
ATOM     12  C   UNL     1       2.625   2.369  21.410  0.00  0.00    +0.000 A 
ATOM     13  C   UNL     1       1.291   2.756  21.440  0.00  0.00    +0.000 A 
ATOM     14  C   UNL     1       0.867   3.827  20.662  0.00  0.00    +0.000 A 
ATOM     15  C   UNL     1       1.769   4.486  19.820  0.00  0.00    +0.000 A 
ENDBRANCH   7  10
ENDBRANCH   1   4
BRANCH   1  16
ATOM     16  C   UNL     1       6.743   7.575  17.466  0.00  0.00    +0.000 C 
BRANCH  16  17
ATOM     17  C   UNL     1       8.079   8.017  18.056  0.00  0.00    +0.000 C 
BRANCH  17  20
ATOM     18  O   UNL     1       9.484   9.936  19.612  0.00  0.00    +0.000 OA
ATOM     19  C   UNL     1       9.052  10.247  18.515  0.00  0.00    +0.000 C 
ATOM     20  N   UNL     1       8.459   9.365  17.643  0.00  0.00    +0.000 N 
ATOM     21  H   UNL     1       7.984   9.762  16.835  0.00  0.00    +0.000 HD
BRANCH  19  22
ATOM     22  C   UNL     1       9.075  11.638  17.989  0.00  0.00    +0.000 C 
ATOM     23  C   UNL     1      10.031  12.487  18.388  0.00  0.00    +0.000 C 
BRANCH  23  24
ATOM     24  C   UNL     1      10.122  13.894  17.963  0.00  0.00    +0.000 A 
ATOM     25  C   UNL     1       9.162  14.802  18.434  0.00  0.00    +0.000 A 
ATOM     26  C   UNL     1       9.199  16.145  18.048  0.00  0.00    +0.000 A 
ATOM     27  C   UNL     1      10.202  16.601  17.197  0.00  0.00    +0.000 A 
ATOM     28  C   UNL     1      11.179  15.718  16.747  0.00  0.00    +0.000 A 
ATOM     29  C   UNL     1      11.144  14.376  17.133  0.00  0.00    +0.000 A 
ENDBRANCH  23  24
ENDBRANCH  19  22
ENDBRANCH  17  20
ENDBRANCH  16  17
ENDBRANCH   1  16
TORSDOF 7
ENDMDL
MODEL 4
REMARK VINA RESULT:      -7.5      0.754      1.476
REMARK  Name = 
REMARK  7 active torsions:
REMARK  status: ('A' for Active; 'I' for Inactive)
REMARK    1  A    between atoms: C_2  and  C_3
REMARK    2  A    between atoms: C_4  and  C_5
REMARK    3  A    between atoms: N_11  and  C_12
REMARK    4  A    between atoms: C_12  and  C_13
REMARK    5  A    between atoms: C_13  and  S_14
REMARK    6  A    between atoms: S_14  and  N_17
REMARK    7  A    between atoms: N_20  and  C_21
REMARK                            x       y       z     vdW  Elec       q    Type
REMARK                         _______ _______ _______ _____ _____    ______ ____
ROOT
ATOM      1  S   UNL     1       3.737   3.222  18.960  0.00  0.00    +0.000 S 
ATOM      2  O   UNL     1       3.719   1.841  18.522  0.00  0.00    +0.000 OA
ATOM      3  O   UNL     1       4.179   3.544  20.301  0.00  0.00    +0.000 OA
ENDROOT
BRANCH   1   4
ATOM      4  N   UNL     1       2.174   3.816  18.743  0.00  0.00    +0.000 NA
ATOM      5  C   UNL     1       1.542   4.188  20.066  0.00  0.00    +0.000 C 
ATOM      6  C   UNL     1       2.144   5.487  20.631  0.00  0.00    +0.000 C 
ATOM      7  N   UNL     1       2.002   6.571  19.646  0.00  0.00    +0.000 N 
ATOM      8  C   UNL     1       2.458   6.303  18.274  0.00  0.00    +0.000 C 
ATOM      9  C   UNL     1       1.930   4.940  17.777  0.00  0.00    +0.000 C 
BRANCH   7  10
ATOM     10  C   UNL     1       1.712   7.844  20.099  0.00  0.00    +0.000 A 
ATOM     11  C   UNL     1       1.537   8.119  21.465  0.00  0.00    +0.000 A 
ATOM     12  C   UNL     1       1.032   9.342  21.911  0.00  0.00    +0.000 A 
ATOM     13  C   UNL     1       0.711  10.330  20.988  0.00  0.00    +0.000 A 
ATOM     14  C   UNL     1       0.940  10.109  19.635  0.00  0.00    +0.000 A 
ATOM     15  C   UNL     1       1.450   8.882  19.198  0.00  0.00    +0.000 A 
ENDBRANCH   7  10
ENDBRANCH   1   4
BRANCH   1  16
ATOM     16  C   UNL     1       4.790   4.136  17.844  0.00  0.00    +0.000 C 
BRANCH  16  17
ATOM     17  C   UNL     1       5.965   4.680  18.651  0.00  0.00    +0.000 C 
BRANCH  17  20
ATOM     18  O   UNL     1       7.549   5.620  16.486  0.00  0.00    +0.000 OA
ATOM     19  C   UNL     1       7.132   6.410  17.316  0.00  0.00    +0.000 C 
ATOM     20  N   UNL     1       6.270   6.073  18.334  0.00  0.00    +0.000 N 
ATOM     21  H   UNL     1       6.124   6.766  19.065  0.00  0.00    +0.000 HD
BRANCH  19  22
ATOM     22  C   UNL     1       7.534   7.840  17.361  0.00  0.00    +0.000 C 
ATOM     23  C   UNL     1       8.300   8.287  18.366  0.00  0.00    +0.000 C 
BRANCH  23  24
ATOM     24  C   UNL     1       8.720   9.689  18.530  0.00  0.00    +0.000 A 
ATOM     25  C   UNL     1       8.196  10.654  17.657  0.00  0.00    +0.000 A 
ATOM     26  C   UNL     1       8.575  11.996  17.764  0.00  0.00    +0.000 A 
ATOM     27  C   UNL     1       9.473  12.391  18.751  0.00  0.00    +0.000 A 
ATOM     28  C   UNL     1       9.977  11.450  19.644  0.00  0.00    +0.000 A 
ATOM     29  C   UNL     1       9.598  10.109  19.538  0.00  0.00    +0.000 A 
ENDBRANCH  23  24
ENDBRANCH  19  22
ENDBRANCH  17  20
ENDBRANCH  16  17
ENDBRANCH   1  16
TORSDOF 7
ENDMDL
MODEL 5
REMARK VINA RESULT:      -7.5      0.930      1.310
REMARK  Name = 
REMARK  7 active torsions:
REMARK  status: ('A' for Active; 'I' for Inactive)
REMARK    1  A    between atoms: C_2  and  C_3
REMARK    2  A    between atoms: C_4  and  C_5
REMARK    3  A    between atoms: N_11  and  C_12
REMARK    4  A    between atoms: C_12  and  C_13
REMARK    5  A    between atoms: C_13  and  S_14
REMARK    6  A    between atoms: S_14  and  N_17
REMARK    7  A    between atoms: N_20  and  C_21
REMARK                            x       y       z     vdW  Elec       q    Type
REMARK                         _______ _______ _______ _____ _____    ______ ____
ROOT
ATOM      1  S   UNL     1       4.314   4.656  18.620  0.00  0.00    +0.000 S 
ATOM      2  O   UNL     1       4.378   3.272  19.044  0.00  0.00    +0.000 OA
ATOM      3  O   UNL     1       4.898   5.689  19.451  0.00  0.00    +0.000 OA
ENDROOT
BRANCH   1   4
ATOM      4  N   UNL     1       2.685   5.009  18.374  0.00  0.00    +0.000 NA
ATOM      5  C   UNL     1       1.907   4.937  19.670  0.00  0.00    +0.000 C 
ATOM      6  C   UNL     1       2.212   6.144  20.576  0.00  0.00    +0.000 C 
ATOM      7  N   UNL     1       1.929   7.393  19.851  0.00  0.00    +0.000 N 
ATOM      8  C   UNL     1       2.518   7.547  18.512  0.00  0.00    +0.000 C 
ATOM      9  C   UNL     1       2.293   6.275  17.666  0.00  0.00    +0.000 C 
BRANCH   7  10
ATOM     10  C   UNL     1       1.372   8.450  20.546  0.00  0.00    +0.000 A 
ATOM     11  C   UNL     1       1.197   8.407  21.939  0.00  0.00    +0.000 A 
ATOM     12  C   UNL     1       0.442   9.367  22.615  0.00  0.00    +0.000 A 
ATOM     13  C   UNL     1      -0.138  10.411  21.905  0.00  0.00    +0.000 A 
ATOM     14  C   UNL     1       0.077  10.515  20.535  0.00  0.00    +0.000 A 
ATOM     15  C   UNL     1       0.839   9.551  19.867  0.00  0.00    +0.000 A 
ENDBRANCH   7  10
ENDBRANCH   1   4
BRANCH   1  16
ATOM     16  C   UNL     1       5.110   4.777  17.025  0.00  0.00    +0.000 C 
BRANCH  16  17
ATOM     17  C   UNL     1       6.614   4.878  17.260  0.00  0.00    +0.000 C 
BRANCH  17  20
ATOM     18  O   UNL     1       8.251   6.245  19.139  0.00  0.00    +0.000 OA
ATOM     19  C   UNL     1       7.816   6.843  18.170  0.00  0.00    +0.000 C 
ATOM     20  N   UNL     1       7.111   6.247  17.151  0.00  0.00    +0.000 N 
ATOM     21  H   UNL     1       6.650   6.864  16.484  0.00  0.00    +0.000 HD
BRANCH  19  22
ATOM     22  C   UNL     1       7.956   8.311  17.982  0.00  0.00    +0.000 C 
ATOM     23  C   UNL     1       8.836   8.998  18.723  0.00  0.00    +0.000 C 
BRANCH  23  24
ATOM     24  C   UNL     1       9.026  10.457  18.647  0.00  0.00    +0.000 A 
ATOM     25  C   UNL     1       9.851  11.078  19.597  0.00  0.00    +0.000 A 
ATOM     26  C   UNL     1      10.051  12.461  19.575  0.00  0.00    +0.000 A 
ATOM     27  C   UNL     1       9.440  13.240  18.596  0.00  0.00    +0.000 A 
ATOM     28  C   UNL     1       8.644  12.634  17.628  0.00  0.00    +0.000 A 
ATOM     29  C   UNL     1       8.444  11.251  17.649  0.00  0.00    +0.000 A 
ENDBRANCH  23  24
ENDBRANCH  19  22
ENDBRANCH  17  20
ENDBRANCH  16  17
ENDBRANCH   1  16
TORSDOF 7
ENDMDL
MODEL 6
REMARK VINA RESULT:      -7.5      2.842      4.883
REMARK  Name = 
REMARK  7 active torsions:
REMARK  status: ('A' for Active; 'I' for Inactive)
REMARK    1  A    between atoms: C_2  and  C_3
REMARK    2  A    between atoms: C_4  and  C_5
REMARK    3  A    between atoms: N_11  and  C_12
REMARK    4  A    between atoms: C_12  and  C_13
REMARK    5  A    between atoms: C_13  and  S_14
REMARK    6  A    between atoms: S_14  and  N_17
REMARK    7  A    between atoms: N_20  and  C_21
REMARK                            x       y       z     vdW  Elec       q    Type
REMARK                         _______ _______ _______ _____ _____    ______ ____
ROOT
ATOM      1  S   UNL     1       6.890   6.779  17.281  0.00  0.00    +0.000 S 
ATOM      2  O   UNL     1       7.828   6.266  16.303  0.00  0.00    +0.000 OA
ATOM      3  O   UNL     1       6.870   6.223  18.617  0.00  0.00    +0.000 OA
ENDROOT
BRANCH   1   4
ATOM      4  N   UNL     1       5.355   6.623  16.602  0.00  0.00    +0.000 NA
ATOM      5  C   UNL     1       5.057   5.182  16.248  0.00  0.00    +0.000 C 
ATOM      6  C   UNL     1       4.777   4.341  17.506  0.00  0.00    +0.000 C 
ATOM      7  N   UNL     1       3.674   4.943  18.271  0.00  0.00    +0.000 N 
ATOM      8  C   UNL     1       3.767   6.379  18.578  0.00  0.00    +0.000 C 
ATOM      9  C   UNL     1       4.160   7.183  17.320  0.00  0.00    +0.000 C 
BRANCH   7  10
ATOM     10  C   UNL     1       2.762   4.108  18.889  0.00  0.00    +0.000 A 
ATOM     11  C   UNL     1       1.953   3.226  18.153  0.00  0.00    +0.000 A 
ATOM     12  C   UNL     1       0.885   2.545  18.740  0.00  0.00    +0.000 A 
ATOM     13  C   UNL     1       0.619   2.718  20.093  0.00  0.00    +0.000 A 
ATOM     14  C   UNL     1       1.447   3.532  20.859  0.00  0.00    +0.000 A 
ATOM     15  C   UNL     1       2.517   4.207  20.263  0.00  0.00    +0.000 A 
ENDBRANCH   7  10
ENDBRANCH   1   4
BRANCH   1  16
ATOM     16  C   UNL     1       7.193   8.530  17.462  0.00  0.00    +0.000 C 
BRANCH  16  17
ATOM     17  C   UNL     1       8.451   8.701  18.308  0.00  0.00    +0.000 C 
BRANCH  17  20
ATOM     18  O   UNL     1       9.311  10.216  20.554  0.00  0.00    +0.000 OA
ATOM     19  C   UNL     1       9.253  10.744  19.456  0.00  0.00    +0.000 C 
ATOM     20  N   UNL     1       8.957  10.071  18.294  0.00  0.00    +0.000 N 
ATOM     21  H   UNL     1       8.767  10.635  17.468  0.00  0.00    +0.000 HD
BRANCH  19  22
ATOM     22  C   UNL     1       9.455  12.199  19.234  0.00  0.00    +0.000 C 
ATOM     23  C   UNL     1       9.733  12.655  18.005  0.00  0.00    +0.000 C 
BRANCH  23  24
ATOM     24  C   UNL     1       9.992  14.069  17.682  0.00  0.00    +0.000 A 
ATOM     25  C   UNL     1       9.036  15.028  18.048  0.00  0.00    +0.000 A 
ATOM     26  C   UNL     1       9.231  16.380  17.751  0.00  0.00    +0.000 A 
ATOM     27  C   UNL     1      10.388  16.793  17.097  0.00  0.00    +0.000 A 
ATOM     28  C   UNL     1      11.360  15.856  16.756  0.00  0.00    +0.000 A 
ATOM     29  C   UNL     1      11.167  14.504  17.053  0.00  0.00    +0.000 A 
ENDBRANCH  23  24
ENDBRANCH  19  22
ENDBRANCH  17  20
ENDBRANCH  16  17
ENDBRANCH   1  16
TORSDOF 7
ENDMDL
MODEL 7
REMARK VINA RESULT:      -7.4      0.876      1.636
REMARK  Name = 
REMARK  7 active torsions:
REMARK  status: ('A' for Active; 'I' for Inactive)
REMARK    1  A    between atoms: C_2  and  C_3
REMARK    2  A    between atoms: C_4  and  C_5
REMARK    3  A    between atoms: N_11  and  C_12
REMARK    4  A    between atoms: C_12  and  C_13
REMARK    5  A    between atoms: C_13  and  S_14
REMARK    6  A    between atoms: S_14  and  N_17
REMARK    7  A    between atoms: N_20  and  C_21
REMARK                            x       y       z     vdW  Elec       q    Type
REMARK                         _______ _______ _______ _____ _____    ______ ____
ROOT
ATOM      1  S   UNL     1       4.037   4.374  19.203  0.00  0.00    +0.000 S 
ATOM      2  O   UNL     1       3.799   3.238  20.071  0.00  0.00    +0.000 OA
ATOM      3  O   UNL     1       4.795   5.506  19.694  0.00  0.00    +0.000 OA
ENDROOT
BRANCH   1   4
ATOM      4  N   UNL     1       2.525   4.911  18.687  0.00  0.00    +0.000 NA
ATOM      5  C   UNL     1       1.529   4.917  19.826  0.00  0.00    +0.000 C 
ATOM      6  C   UNL     1       1.801   6.076  20.803  0.00  0.00    +0.000 C 
ATOM      7  N   UNL     1       1.790   7.354  20.074  0.00  0.00    +0.000 N 
ATOM      8  C   UNL     1       2.618   7.450  18.862  0.00  0.00    +0.000 C 
ATOM      9  C   UNL     1       2.406   6.218  17.956  0.00  0.00    +0.000 C 
BRANCH   7  10
ATOM     10  C   UNL     1       1.240   8.463  20.689  0.00  0.00    +0.000 A 
ATOM     11  C   UNL     1       1.179   8.575  22.088  0.00  0.00    +0.000 A 
ATOM     12  C   UNL     1       0.435   9.577  22.713  0.00  0.00    +0.000 A 
ATOM     13  C   UNL     1      -0.250  10.509  21.942  0.00  0.00    +0.000 A 
ATOM     14  C   UNL     1      -0.149  10.461  20.556  0.00  0.00    +0.000 A 
ATOM     15  C   UNL     1       0.602   9.456  19.938  0.00  0.00    +0.000 A 
ENDBRANCH   7  10
ENDBRANCH   1   4
BRANCH   1  16
ATOM     16  C   UNL     1       4.892   3.782  17.750  0.00  0.00    +0.000 C 
BRANCH  16  17
ATOM     17  C   UNL     1       4.935   4.921  16.736  0.00  0.00    +0.000 C 
BRANCH  17  20
ATOM     18  O   UNL     1       7.777   4.969  16.742  0.00  0.00    +0.000 OA
ATOM     19  C   UNL     1       7.156   5.903  17.221  0.00  0.00    +0.000 C 
ATOM     20  N   UNL     1       5.788   6.026  17.167  0.00  0.00    +0.000 N 
ATOM     21  H   UNL     1       5.365   6.751  17.743  0.00  0.00    +0.000 HD
BRANCH  19  22
ATOM     22  C   UNL     1       7.798   7.019  17.964  0.00  0.00    +0.000 C 
ATOM     23  C   UNL     1       7.735   8.267  17.480  0.00  0.00    +0.000 C 
BRANCH  23  24
ATOM     24  C   UNL     1       8.370   9.436  18.113  0.00  0.00    +0.000 A 
ATOM     25  C   UNL     1       8.252  10.686  17.486  0.00  0.00    +0.000 A 
ATOM     26  C   UNL     1       8.849  11.822  18.041  0.00  0.00    +0.000 A 
ATOM     27  C   UNL     1       9.560  11.726  19.234  0.00  0.00    +0.000 A 
ATOM     28  C   UNL     1       9.659  10.499  19.883  0.00  0.00    +0.000 A 
ATOM     29  C   UNL     1       9.062   9.363  19.330  0.00  0.00    +0.000 A 
ENDBRANCH  23  24
ENDBRANCH  19  22
ENDBRANCH  17  20
ENDBRANCH  16  17
ENDBRANCH   1  16
TORSDOF 7
ENDMDL
MODEL 8
REMARK VINA RESULT:      -7.4      3.622      6.800
REMARK  Name = 
REMARK  7 active torsions:
REMARK  status: ('A' for Active; 'I' for Inactive)
REMARK    1  A    between atoms: C_2  and  C_3
REMARK    2  A    between atoms: C_4  and  C_5
REMARK    3  A    between atoms: N_11  and  C_12
REMARK    4  A    between atoms: C_12  and  C_13
REMARK    5  A    between atoms: C_13  and  S_14
REMARK    6  A    between atoms: S_14  and  N_17
REMARK    7  A    between atoms: N_20  and  C_21
REMARK                            x       y       z     vdW  Elec       q    Type
REMARK                         _______ _______ _______ _____ _____    ______ ____
ROOT
ATOM      1  S   UNL     1       6.159   6.206  16.341  0.00  0.00    +0.000 S 
ATOM      2  O   UNL     1       5.354   6.293  15.139  0.00  0.00    +0.000 OA
ATOM      3  O   UNL     1       7.507   6.736  16.342  0.00  0.00    +0.000 OA
ENDROOT
BRANCH   1   4
ATOM      4  N   UNL     1       6.213   4.577  16.768  0.00  0.00    +0.000 NA
ATOM      5  C   UNL     1       6.396   4.407  18.260  0.00  0.00    +0.000 C 
ATOM      6  C   UNL     1       5.104   4.745  19.026  0.00  0.00    +0.000 C 
ATOM      7  N   UNL     1       3.997   3.915  18.525  0.00  0.00    +0.000 N 
ATOM      8  C   UNL     1       3.782   3.880  17.070  0.00  0.00    +0.000 C 
ATOM      9  C   UNL     1       5.115   3.652  16.324  0.00  0.00    +0.000 C 
BRANCH   7  10
ATOM     10  C   UNL     1       3.064   3.440  19.427  0.00  0.00    +0.000 A 
ATOM     11  C   UNL     1       1.696   3.732  19.295  0.00  0.00    +0.000 A 
ATOM     12  C   UNL     1       0.782   3.446  20.311  0.00  0.00    +0.000 A 
ATOM     13  C   UNL     1       1.222   2.835  21.480  0.00  0.00    +0.000 A 
ATOM     14  C   UNL     1       2.558   2.473  21.606  0.00  0.00    +0.000 A 
ATOM     15  C   UNL     1       3.466   2.760  20.581  0.00  0.00    +0.000 A 
ENDBRANCH   7  10
ENDBRANCH   1   4
BRANCH   1  16
ATOM     16  C   UNL     1       5.281   7.048  17.649  0.00  0.00    +0.000 C 
BRANCH  16  17
ATOM     17  C   UNL     1       3.825   7.192  17.216  0.00  0.00    +0.000 C 
BRANCH  17  20
ATOM     18  O   UNL     1       2.200   9.522  17.132  0.00  0.00    +0.000 OA
ATOM     19  C   UNL     1       2.298   8.892  18.171  0.00  0.00    +0.000 C 
ATOM     20  N   UNL     1       2.967   7.696  18.285  0.00  0.00    +0.000 N 
ATOM     21  H   UNL     1       3.133   7.346  19.227  0.00  0.00    +0.000 HD
BRANCH  19  22
ATOM     22  C   UNL     1       1.739   9.357  19.468  0.00  0.00    +0.000 C 
ATOM     23  C   UNL     1       0.438   9.660  19.564  0.00  0.00    +0.000 C 
BRANCH  23  24
ATOM     24  C   UNL     1      -0.209  10.168  20.786  0.00  0.00    +0.000 A 
ATOM     25  C   UNL     1      -0.135   9.397  21.955  0.00  0.00    +0.000 A 
ATOM     26  C   UNL     1      -0.745   9.830  23.137  0.00  0.00    +0.000 A 
ATOM     27  C   UNL     1      -1.426  11.044  23.167  0.00  0.00    +0.000 A 
ATOM     28  C   UNL     1      -1.482  11.833  22.023  0.00  0.00    +0.000 A 
ATOM     29  C   UNL     1      -0.872  11.402  20.842  0.00  0.00    +0.000 A 
ENDBRANCH  23  24
ENDBRANCH  19  22
ENDBRANCH  17  20
ENDBRANCH  16  17
ENDBRANCH   1  16
TORSDOF 7
ENDMDL
MODEL 9
REMARK VINA RESULT:      -7.3      3.787      8.838
REMARK  Name = 
REMARK  7 active torsions:
REMARK  status: ('A' for Active; 'I' for Inactive)
REMARK    1  A    between atoms: C_2  and  C_3
REMARK    2  A    between atoms: C_4  and  C_5
REMARK    3  A    between atoms: N_11  and  C_12
REMARK    4  A    between atoms: C_12  and  C_13
REMARK    5  A    between atoms: C_13  and  S_14
REMARK    6  A    between atoms: S_14  and  N_17
REMARK    7  A    between atoms: N_20  and  C_21
REMARK                            x       y       z     vdW  Elec       q    Type
REMARK                         _______ _______ _______ _____ _____    ______ ____
ROOT
ATOM      1  S   UNL     1       2.597   5.936  18.326  0.00  0.00    +0.000 S 
ATOM      2  O   UNL     1       1.926   4.736  17.869  0.00  0.00    +0.000 OA
ATOM      3  O   UNL     1       2.445   7.170  17.585  0.00  0.00    +0.000 OA
ENDROOT
BRANCH   1   4
ATOM      4  N   UNL     1       4.236   5.560  18.430  0.00  0.00    +0.000 NA
ATOM      5  C   UNL     1       4.505   4.147  17.961  0.00  0.00    +0.000 C 
ATOM      6  C   UNL     1       4.397   4.033  16.430  0.00  0.00    +0.000 C 
ATOM      7  N   UNL     1       5.316   4.992  15.795  0.00  0.00    +0.000 N 
ATOM      8  C   UNL     1       5.257   6.390  16.249  0.00  0.00    +0.000 C 
ATOM      9  C   UNL     1       5.252   6.464  17.791  0.00  0.00    +0.000 C 
BRANCH   7  10
ATOM     10  C   UNL     1       5.978   4.611  14.643  0.00  0.00    +0.000 A 
ATOM     11  C   UNL     1       7.190   5.208  14.258  0.00  0.00    +0.000 A 
ATOM     12  C   UNL     1       7.749   4.990  12.998  0.00  0.00    +0.000 A 
ATOM     13  C   UNL     1       7.111   4.144  12.099  0.00  0.00    +0.000 A 
ATOM     14  C   UNL     1       5.946   3.487  12.480  0.00  0.00    +0.000 A 
ATOM     15  C   UNL     1       5.396   3.708  13.747  0.00  0.00    +0.000 A 
ENDBRANCH   7  10
ENDBRANCH   1   4
BRANCH   1  16
ATOM     16  C   UNL     1       2.043   6.272  19.991  0.00  0.00    +0.000 C 
BRANCH  16  17
ATOM     17  C   UNL     1       2.229   7.763  20.254  0.00  0.00    +0.000 C 
BRANCH  17  20
ATOM     18  O   UNL     1       1.093  10.126  21.352  0.00  0.00    +0.000 OA
ATOM     19  C   UNL     1       0.623   9.647  20.333  0.00  0.00    +0.000 C 
ATOM     20  N   UNL     1       1.168   8.576  19.665  0.00  0.00    +0.000 N 
ATOM     21  H   UNL     1       0.603   8.153  18.930  0.00  0.00    +0.000 HD
BRANCH  19  22
ATOM     22  C   UNL     1      -0.629  10.136  19.699  0.00  0.00    +0.000 C 
ATOM     23  C   UNL     1      -0.869   9.874  18.407  0.00  0.00    +0.000 C 
BRANCH  23  24
ATOM     24  C   UNL     1      -2.055  10.345  17.670  0.00  0.00    +0.000 A 
ATOM     25  C   UNL     1      -2.968  11.182  18.330  0.00  0.00    +0.000 A 
ATOM     26  C   UNL     1      -4.115  11.643  17.678  0.00  0.00    +0.000 A 
ATOM     27  C   UNL     1      -4.357  11.286  16.355  0.00  0.00    +0.000 A 
ATOM     28  C   UNL     1      -3.445  10.482  15.678  0.00  0.00    +0.000 A 
ATOM     29  C   UNL     1      -2.298  10.021  16.329  0.00  0.00    +0.000 A 
ENDBRANCH  23  24
ENDBRANCH  19  22
ENDBRANCH  17  20
ENDBRANCH  16  17
ENDBRANCH   1  16
TORSDOF 7
ENDMDL
