MODEL 1
REMARK VINA RESULT:      -7.9      0.000      0.000
REMARK  Name = 
REMARK  6 active torsions:
REMARK  status: ('A' for Active; 'I' for Inactive)
REMARK    1  A    between atoms: C_1  and  O_2
REMARK    2  A    between atoms: O_2  and  C_3
REMARK    3  A    between atoms: C_8  and  C_9
REMARK    4  A    between atoms: C_9  and  N_10
REMARK    5  A    between atoms: C_11  and  C_13
REMARK    6  A    between atoms: N_15  and  C_16
REMARK                            x       y       z     vdW  Elec       q    Type
REMARK                         _______ _______ _______ _____ _____    ______ ____
ROOT
ATOM      1  C   UNL     1       2.071   8.116  19.256  0.00  0.00    +0.000 A 
ATOM      2  N   UNL     1       2.154   8.797  18.087  0.00  0.00    +0.000 NA
ATOM      3  N   UNL     1       1.676  10.024  18.404  0.00  0.00    +0.000 N 
ATOM      4  C   UNL     1       2.303  11.205  17.848  0.00  0.00    +0.000 C 
ATOM      5  C   UNL     1       0.972   9.994  19.582  0.00  0.00    +0.000 A 
ATOM      6  C   UNL     1       1.620   8.994  20.280  0.00  0.00    +0.000 A 
ATOM      7  C   UNL     1       1.599   8.927  21.752  0.00  0.00    +0.000 C 
ATOM      8  S   UNL     1       0.003   9.350  22.416  0.00  0.00    +0.000 S 
ATOM      9  O   UNL     1       0.203   9.943  23.727  0.00  0.00    +0.000 OA
ATOM     10  O   UNL     1      -0.903   8.235  22.223  0.00  0.00    +0.000 OA
ATOM     11  C   UNL     1      -0.607  10.671  21.364  0.00  0.00    +0.000 A 
ATOM     12  C   UNL     1      -1.666  11.437  21.861  0.00  0.00    +0.000 A 
ATOM     13  C   UNL     1      -2.275  12.368  21.035  0.00  0.00    +0.000 A 
ATOM     14  C   UNL     1      -1.849  12.511  19.711  0.00  0.00    +0.000 A 
ATOM     15  C   UNL     1      -0.770  11.757  19.232  0.00  0.00    +0.000 A 
ATOM     16  C   UNL     1      -0.100  10.854  20.066  0.00  0.00    +0.000 A 
ENDROOT
BRANCH   1  18
ATOM     17  N   UNL     1       3.302   6.248  18.435  0.00  0.00    +0.000 N 
ATOM     18  C   UNL     1       2.352   6.667  19.340  0.00  0.00    +0.000 C 
ATOM     19  O   UNL     1       1.725   5.919  20.084  0.00  0.00    +0.000 OA
ATOM     20  H   UNL     1       3.707   6.974  17.853  0.00  0.00    +0.000 HD
BRANCH  17  21
ATOM     21  C   UNL     1       3.551   4.865  18.107  0.00  0.00    +0.000 C 
BRANCH  21  27
ATOM     22  C   UNL     1       6.094   4.897  17.811  0.00  0.00    +0.000 A 
ATOM     23  C   UNL     1       7.210   4.746  16.976  0.00  0.00    +0.000 A 
ATOM     24  C   UNL     1       7.059   4.335  15.650  0.00  0.00    +0.000 A 
ATOM     25  C   UNL     1       5.792   4.073  15.145  0.00  0.00    +0.000 A 
ATOM     26  C   UNL     1       4.674   4.240  15.960  0.00  0.00    +0.000 A 
ATOM     27  C   UNL     1       4.806   4.671  17.292  0.00  0.00    +0.000 A 
BRANCH  22  29
ATOM     28  C   UNL     1       7.477   5.714  19.549  0.00  0.00    +0.000 C 
ATOM     29  O   UNL     1       6.181   5.302  19.120  0.00  0.00    +0.000 OA
ENDBRANCH  22  29
ENDBRANCH  21  27
ENDBRANCH  17  21
ENDBRANCH   1  18
TORSDOF 4
ENDMDL
MODEL 2
REMARK VINA RESULT:      -7.9      2.597      3.625
REMARK  Name = 
REMARK  6 active torsions:
REMARK  status: ('A' for Active; 'I' for Inactive)
REMARK    1  A    between atoms: C_1  and  O_2
REMARK    2  A    between atoms: O_2  and  C_3
REMARK    3  A    between atoms: C_8  and  C_9
REMARK    4  A    between atoms: C_9  and  N_10
REMARK    5  A    between atoms: C_11  and  C_13
REMARK    6  A    between atoms: N_15  and  C_16
REMARK                            x       y       z     vdW  Elec       q    Type
REMARK                         _______ _______ _______ _____ _____    ______ ____
ROOT
ATOM      1  C   UNL     1       0.913   9.431  19.773  0.00  0.00    +0.000 A 
ATOM      2  N   UNL     1       1.372   9.298  21.042  0.00  0.00    +0.000 NA
ATOM      3  N   UNL     1       0.432   9.933  21.782  0.00  0.00    +0.000 N 
ATOM      4  C   UNL     1       0.027   9.379  23.058  0.00  0.00    +0.000 C 
ATOM      5  C   UNL     1      -0.349  10.748  21.002  0.00  0.00    +0.000 A 
ATOM      6  C   UNL     1      -0.354  10.076  19.796  0.00  0.00    +0.000 A 
ATOM      7  C   UNL     1      -1.437  10.243  18.811  0.00  0.00    +0.000 C 
ATOM      8  S   UNL     1      -1.975  11.935  18.693  0.00  0.00    +0.000 S 
ATOM      9  O   UNL     1      -3.380  11.936  18.324  0.00  0.00    +0.000 OA
ATOM     10  O   UNL     1      -0.997  12.693  17.939  0.00  0.00    +0.000 OA
ATOM     11  C   UNL     1      -1.905  12.567  20.372  0.00  0.00    +0.000 A 
ATOM     12  C   UNL     1      -2.608  13.747  20.633  0.00  0.00    +0.000 A 
ATOM     13  C   UNL     1      -2.468  14.361  21.867  0.00  0.00    +0.000 A 
ATOM     14  C   UNL     1      -1.606  13.817  22.824  0.00  0.00    +0.000 A 
ATOM     15  C   UNL     1      -0.926  12.620  22.561  0.00  0.00    +0.000 A 
ATOM     16  C   UNL     1      -1.099  11.949  21.344  0.00  0.00    +0.000 A 
ENDROOT
BRANCH   1  18
ATOM     17  N   UNL     1       2.269   7.758  18.752  0.00  0.00    +0.000 N 
ATOM     18  C   UNL     1       1.714   9.009  18.604  0.00  0.00    +0.000 C 
ATOM     19  O   UNL     1       1.922   9.751  17.649  0.00  0.00    +0.000 OA
ATOM     20  H   UNL     1       2.043   7.274  19.615  0.00  0.00    +0.000 HD
BRANCH  17  21
ATOM     21  C   UNL     1       3.313   7.231  17.906  0.00  0.00    +0.000 C 
BRANCH  21  27
ATOM     22  C   UNL     1       4.345   4.954  17.355  0.00  0.00    +0.000 A 
ATOM     23  C   UNL     1       4.186   3.572  17.177  0.00  0.00    +0.000 A 
ATOM     24  C   UNL     1       2.957   2.958  17.424  0.00  0.00    +0.000 A 
ATOM     25  C   UNL     1       1.874   3.717  17.848  0.00  0.00    +0.000 A 
ATOM     26  C   UNL     1       2.014   5.094  18.008  0.00  0.00    +0.000 A 
ATOM     27  C   UNL     1       3.240   5.732  17.746  0.00  0.00    +0.000 A 
BRANCH  22  29
ATOM     28  C   UNL     1       6.687   4.786  17.059  0.00  0.00    +0.000 C 
ATOM     29  O   UNL     1       5.527   5.613  17.124  0.00  0.00    +0.000 OA
ENDBRANCH  22  29
ENDBRANCH  21  27
ENDBRANCH  17  21
ENDBRANCH   1  18
TORSDOF 4
ENDMDL
MODEL 3
REMARK VINA RESULT:      -7.9      2.415      8.360
REMARK  Name = 
REMARK  6 active torsions:
REMARK  status: ('A' for Active; 'I' for Inactive)
REMARK    1  A    between atoms: C_1  and  O_2
REMARK    2  A    between atoms: O_2  and  C_3
REMARK    3  A    between atoms: C_8  and  C_9
REMARK    4  A    between atoms: C_9  and  N_10
REMARK    5  A    between atoms: C_11  and  C_13
REMARK    6  A    between atoms: N_15  and  C_16
REMARK                            x       y       z     vdW  Elec       q    Type
REMARK                         _______ _______ _______ _____ _____    ______ ____
ROOT
ATOM      1  C   UNL     1       3.264   4.288  19.469  0.00  0.00    +0.000 A 
ATOM      2  N   UNL     1       2.698   3.205  18.881  0.00  0.00    +0.000 NA
ATOM      3  N   UNL     1       3.629   2.819  17.977  0.00  0.00    +0.000 N 
ATOM      4  C   UNL     1       3.885   1.408  17.767  0.00  0.00    +0.000 C 
ATOM      5  C   UNL     1       4.536   3.820  17.737  0.00  0.00    +0.000 A 
ATOM      6  C   UNL     1       4.576   4.471  18.954  0.00  0.00    +0.000 A 
ATOM      7  C   UNL     1       5.743   5.265  19.379  0.00  0.00    +0.000 C 
ATOM      8  S   UNL     1       6.434   6.207  18.036  0.00  0.00    +0.000 S 
ATOM      9  O   UNL     1       7.858   6.359  18.279  0.00  0.00    +0.000 OA
ATOM     10  O   UNL     1       5.586   7.353  17.775  0.00  0.00    +0.000 OA
ATOM     11  C   UNL     1       6.289   5.145  16.596  0.00  0.00    +0.000 A 
ATOM     12  C   UNL     1       7.069   5.477  15.484  0.00  0.00    +0.000 A 
ATOM     13  C   UNL     1       6.887   4.786  14.298  0.00  0.00    +0.000 A 
ATOM     14  C   UNL     1       5.910   3.791  14.211  0.00  0.00    +0.000 A 
ATOM     15  C   UNL     1       5.151   3.448  15.338  0.00  0.00    +0.000 A 
ATOM     16  C   UNL     1       5.359   4.091  16.566  0.00  0.00    +0.000 A 
ENDROOT
BRANCH   1  18
ATOM     17  N   UNL     1       2.370   6.433  20.000  0.00  0.00    +0.000 N 
ATOM     18  C   UNL     1       2.523   5.133  20.429  0.00  0.00    +0.000 C 
ATOM     19  O   UNL     1       2.169   4.720  21.530  0.00  0.00    +0.000 OA
ATOM     20  H   UNL     1       2.751   6.642  19.083  0.00  0.00    +0.000 HD
BRANCH  17  21
ATOM     21  C   UNL     1       1.950   7.521  20.850  0.00  0.00    +0.000 C 
BRANCH  21  27
ATOM     22  C   UNL     1       0.120   9.301  20.669  0.00  0.00    +0.000 A 
ATOM     23  C   UNL     1      -0.566  10.246  19.893  0.00  0.00    +0.000 A 
ATOM     24  C   UNL     1      -0.166  10.521  18.584  0.00  0.00    +0.000 A 
ATOM     25  C   UNL     1       0.921   9.852  18.035  0.00  0.00    +0.000 A 
ATOM     26  C   UNL     1       1.596   8.895  18.789  0.00  0.00    +0.000 A 
ATOM     27  C   UNL     1       1.196   8.593  20.104  0.00  0.00    +0.000 A 
BRANCH  22  29
ATOM     28  C   UNL     1      -0.379  10.098  22.841  0.00  0.00    +0.000 C 
ATOM     29  O   UNL     1      -0.230   8.987  21.958  0.00  0.00    +0.000 OA
ENDBRANCH  22  29
ENDBRANCH  21  27
ENDBRANCH  17  21
ENDBRANCH   1  18
TORSDOF 4
ENDMDL
MODEL 4
REMARK VINA RESULT:      -7.9      1.875      3.215
REMARK  Name = 
REMARK  6 active torsions:
REMARK  status: ('A' for Active; 'I' for Inactive)
REMARK    1  A    between atoms: C_1  and  O_2
REMARK    2  A    between atoms: O_2  and  C_3
REMARK    3  A    between atoms: C_8  and  C_9
REMARK    4  A    between atoms: C_9  and  N_10
REMARK    5  A    between atoms: C_11  and  C_13
REMARK    6  A    between atoms: N_15  and  C_16
REMARK                            x       y       z     vdW  Elec       q    Type
REMARK                         _______ _______ _______ _____ _____    ______ ____
ROOT
ATOM      1  C   UNL     1       1.538   9.486  19.125  0.00  0.00    +0.000 A 
ATOM      2  N   UNL     1       1.338  10.479  18.223  0.00  0.00    +0.000 NA
ATOM      3  N   UNL     1       0.808  11.477  18.969  0.00  0.00    +0.000 N 
ATOM      4  C   UNL     1       1.203  12.848  18.719  0.00  0.00    +0.000 C 
ATOM      5  C   UNL     1       0.339  11.006  20.170  0.00  0.00    +0.000 A 
ATOM      6  C   UNL     1       1.199   9.955  20.424  0.00  0.00    +0.000 A 
ATOM      7  C   UNL     1       1.455   9.467  21.790  0.00  0.00    +0.000 C 
ATOM      8  S   UNL     1      -0.026   9.438  22.777  0.00  0.00    +0.000 S 
ATOM      9  O   UNL     1       0.352   9.653  24.163  0.00  0.00    +0.000 OA
ATOM     10  O   UNL     1      -0.838   8.304  22.383  0.00  0.00    +0.000 OA
ATOM     11  C   UNL     1      -0.946  10.900  22.283  0.00  0.00    +0.000 A 
ATOM     12  C   UNL     1      -1.966  11.324  23.140  0.00  0.00    +0.000 A 
ATOM     13  C   UNL     1      -2.805  12.351  22.739  0.00  0.00    +0.000 A 
ATOM     14  C   UNL     1      -2.645  12.930  21.477  0.00  0.00    +0.000 A 
ATOM     15  C   UNL     1      -1.603  12.515  20.637  0.00  0.00    +0.000 A 
ATOM     16  C   UNL     1      -0.706  11.520  21.045  0.00  0.00    +0.000 A 
ENDROOT
BRANCH   1  18
ATOM     17  N   UNL     1       2.537   7.413  19.746  0.00  0.00    +0.000 N 
ATOM     18  C   UNL     1       1.971   8.133  18.716  0.00  0.00    +0.000 C 
ATOM     19  O   UNL     1       1.906   7.746  17.554  0.00  0.00    +0.000 OA
ATOM     20  H   UNL     1       2.561   7.877  20.648  0.00  0.00    +0.000 HD
BRANCH  17  21
ATOM     21  C   UNL     1       3.293   6.198  19.562  0.00  0.00    +0.000 C 
BRANCH  21  27
ATOM     22  C   UNL     1       2.373   4.173  18.295  0.00  0.00    +0.000 A 
ATOM     23  C   UNL     1       1.497   3.079  18.249  0.00  0.00    +0.000 A 
ATOM     24  C   UNL     1       0.704   2.753  19.351  0.00  0.00    +0.000 A 
ATOM     25  C   UNL     1       0.777   3.517  20.509  0.00  0.00    +0.000 A 
ATOM     26  C   UNL     1       1.628   4.618  20.558  0.00  0.00    +0.000 A 
ATOM     27  C   UNL     1       2.421   4.973  19.451  0.00  0.00    +0.000 A 
BRANCH  22  29
ATOM     28  C   UNL     1       4.299   3.703  17.003  0.00  0.00    +0.000 C 
ATOM     29  O   UNL     1       3.172   4.543  17.243  0.00  0.00    +0.000 OA
ENDBRANCH  22  29
ENDBRANCH  21  27
ENDBRANCH  17  21
ENDBRANCH   1  18
TORSDOF 4
ENDMDL
MODEL 5
REMARK VINA RESULT:      -7.6      1.147      1.796
REMARK  Name = 
REMARK  6 active torsions:
REMARK  status: ('A' for Active; 'I' for Inactive)
REMARK    1  A    between atoms: C_1  and  O_2
REMARK    2  A    between atoms: O_2  and  C_3
REMARK    3  A    between atoms: C_8  and  C_9
REMARK    4  A    between atoms: C_9  and  N_10
REMARK    5  A    between atoms: C_11  and  C_13
REMARK    6  A    between atoms: N_15  and  C_16
REMARK                            x       y       z     vdW  Elec       q    Type
REMARK                         _______ _______ _______ _____ _____    ______ ____
ROOT
ATOM      1  C   UNL     1       2.062   8.154  18.954  0.00  0.00    +0.000 A 
ATOM      2  N   UNL     1       2.162   8.923  17.841  0.00  0.00    +0.000 NA
ATOM      3  N   UNL     1       1.745  10.140  18.263  0.00  0.00    +0.000 N 
ATOM      4  C   UNL     1       2.420  11.333  17.794  0.00  0.00    +0.000 C 
ATOM      5  C   UNL     1       1.055  10.047  19.446  0.00  0.00    +0.000 A 
ATOM      6  C   UNL     1       1.664   8.966  20.051  0.00  0.00    +0.000 A 
ATOM      7  C   UNL     1       1.657   8.781  21.513  0.00  0.00    +0.000 C 
ATOM      8  S   UNL     1       0.090   9.221  22.234  0.00  0.00    +0.000 S 
ATOM      9  O   UNL     1       0.333   9.696  23.585  0.00  0.00    +0.000 OA
ATOM     10  O   UNL     1      -0.868   8.167  21.966  0.00  0.00    +0.000 OA
ATOM     11  C   UNL     1      -0.470  10.649  21.300  0.00  0.00    +0.000 A 
ATOM     12  C   UNL     1      -1.487  11.419  21.873  0.00  0.00    +0.000 A 
ATOM     13  C   UNL     1      -2.061  12.440  21.134  0.00  0.00    +0.000 A 
ATOM     14  C   UNL     1      -1.645  12.671  19.820  0.00  0.00    +0.000 A 
ATOM     15  C   UNL     1      -0.608  11.910  19.265  0.00  0.00    +0.000 A 
ATOM     16  C   UNL     1       0.030  10.912  20.013  0.00  0.00    +0.000 A 
ENDROOT
BRANCH   1  18
ATOM     17  N   UNL     1       3.232   6.263  19.811  0.00  0.00    +0.000 N 
ATOM     18  C   UNL     1       2.276   6.692  18.916  0.00  0.00    +0.000 C 
ATOM     19  O   UNL     1       1.715   5.966  18.101  0.00  0.00    +0.000 OA
ATOM     20  H   UNL     1       3.643   6.983  20.396  0.00  0.00    +0.000 HD
BRANCH  17  21
ATOM     21  C   UNL     1       3.835   4.953  19.783  0.00  0.00    +0.000 C 
BRANCH  21  27
ATOM     22  C   UNL     1       4.905   4.189  17.587  0.00  0.00    +0.000 A 
ATOM     23  C   UNL     1       6.040   4.099  16.769  0.00  0.00    +0.000 A 
ATOM     24  C   UNL     1       7.242   4.701  17.147  0.00  0.00    +0.000 A 
ATOM     25  C   UNL     1       7.322   5.396  18.347  0.00  0.00    +0.000 A 
ATOM     26  C   UNL     1       6.207   5.474  19.177  0.00  0.00    +0.000 A 
ATOM     27  C   UNL     1       4.993   4.859  18.821  0.00  0.00    +0.000 A 
BRANCH  22  29
ATOM     28  C   UNL     1       3.527   2.268  17.705  0.00  0.00    +0.000 C 
ATOM     29  O   UNL     1       3.699   3.615  17.269  0.00  0.00    +0.000 OA
ENDBRANCH  22  29
ENDBRANCH  21  27
ENDBRANCH  17  21
ENDBRANCH   1  18
TORSDOF 4
ENDMDL
MODEL 6
REMARK VINA RESULT:      -7.5      2.229      8.437
REMARK  Name = 
REMARK  6 active torsions:
REMARK  status: ('A' for Active; 'I' for Inactive)
REMARK    1  A    between atoms: C_1  and  O_2
REMARK    2  A    between atoms: O_2  and  C_3
REMARK    3  A    between atoms: C_8  and  C_9
REMARK    4  A    between atoms: C_9  and  N_10
REMARK    5  A    between atoms: C_11  and  C_13
REMARK    6  A    between atoms: N_15  and  C_16
REMARK                            x       y       z     vdW  Elec       q    Type
REMARK                         _______ _______ _______ _____ _____    ______ ____
ROOT
ATOM      1  C   UNL     1       2.711   5.428  18.866  0.00  0.00    +0.000 A 
ATOM      2  N   UNL     1       1.925   4.574  18.166  0.00  0.00    +0.000 NA
ATOM      3  N   UNL     1       2.810   3.883  17.410  0.00  0.00    +0.000 N 
ATOM      4  C   UNL     1       2.622   2.461  17.203  0.00  0.00    +0.000 C 
ATOM      5  C   UNL     1       4.019   4.528  17.344  0.00  0.00    +0.000 A 
ATOM      6  C   UNL     1       4.076   5.160  18.570  0.00  0.00    +0.000 A 
ATOM      7  C   UNL     1       5.354   5.541  19.197  0.00  0.00    +0.000 C 
ATOM      8  S   UNL     1       6.517   6.172  18.007  0.00  0.00    +0.000 S 
ATOM      9  O   UNL     1       7.856   5.859  18.476  0.00  0.00    +0.000 OA
ATOM     10  O   UNL     1       6.142   7.526  17.647  0.00  0.00    +0.000 OA
ATOM     11  C   UNL     1       6.265   5.180  16.532  0.00  0.00    +0.000 A 
ATOM     12  C   UNL     1       7.276   5.212  15.567  0.00  0.00    +0.000 A 
ATOM     13  C   UNL     1       7.070   4.589  14.348  0.00  0.00    +0.000 A 
ATOM     14  C   UNL     1       5.848   3.964  14.080  0.00  0.00    +0.000 A 
ATOM     15  C   UNL     1       4.851   3.916  15.063  0.00  0.00    +0.000 A 
ATOM     16  C   UNL     1       5.060   4.486  16.326  0.00  0.00    +0.000 A 
ENDROOT
BRANCH   1  18
ATOM     17  N   UNL     1       2.134   7.727  19.113  0.00  0.00    +0.000 N 
ATOM     18  C   UNL     1       2.143   6.492  19.722  0.00  0.00    +0.000 C 
ATOM     19  O   UNL     1       1.805   6.289  20.884  0.00  0.00    +0.000 OA
ATOM     20  H   UNL     1       2.483   7.752  18.160  0.00  0.00    +0.000 HD
BRANCH  17  21
ATOM     21  C   UNL     1       1.908   8.970  19.810  0.00  0.00    +0.000 C 
BRANCH  21  27
ATOM     22  C   UNL     1      -0.074  10.542  20.199  0.00  0.00    +0.000 A 
ATOM     23  C   UNL     1      -1.261  11.121  19.727  0.00  0.00    +0.000 A 
ATOM     24  C   UNL     1      -1.704  10.881  18.425  0.00  0.00    +0.000 A 
ATOM     25  C   UNL     1      -0.968  10.058  17.582  0.00  0.00    +0.000 A 
ATOM     26  C   UNL     1       0.201   9.460  18.047  0.00  0.00    +0.000 A 
ATOM     27  C   UNL     1       0.653   9.677  19.361  0.00  0.00    +0.000 A 
BRANCH  22  29
ATOM     28  C   UNL     1      -0.455  10.319  22.524  0.00  0.00    +0.000 C 
ATOM     29  O   UNL     1       0.408  10.738  21.469  0.00  0.00    +0.000 OA
ENDBRANCH  22  29
ENDBRANCH  21  27
ENDBRANCH  17  21
ENDBRANCH   1  18
TORSDOF 4
ENDMDL
MODEL 7
REMARK VINA RESULT:      -7.4      2.646      3.584
REMARK  Name = 
REMARK  6 active torsions:
REMARK  status: ('A' for Active; 'I' for Inactive)
REMARK    1  A    between atoms: C_1  and  O_2
REMARK    2  A    between atoms: O_2  and  C_3
REMARK    3  A    between atoms: C_8  and  C_9
REMARK    4  A    between atoms: C_9  and  N_10
REMARK    5  A    between atoms: C_11  and  C_13
REMARK    6  A    between atoms: N_15  and  C_16
REMARK                            x       y       z     vdW  Elec       q    Type
REMARK                         _______ _______ _______ _____ _____    ______ ____
ROOT
ATOM      1  C   UNL     1       0.894   9.532  19.702  0.00  0.00    +0.000 A 
ATOM      2  N   UNL     1       1.339   9.365  20.972  0.00  0.00    +0.000 NA
ATOM      3  N   UNL     1       0.351   9.909  21.722  0.00  0.00    +0.000 N 
ATOM      4  C   UNL     1      -0.042   9.272  22.963  0.00  0.00    +0.000 C 
ATOM      5  C   UNL     1      -0.463  10.714  20.966  0.00  0.00    +0.000 A 
ATOM      6  C   UNL     1      -0.408  10.101  19.730  0.00  0.00    +0.000 A 
ATOM      7  C   UNL     1      -1.483  10.252  18.733  0.00  0.00    +0.000 C 
ATOM      8  S   UNL     1      -2.117  11.914  18.684  0.00  0.00    +0.000 S 
ATOM      9  O   UNL     1      -3.513  11.852  18.288  0.00  0.00    +0.000 OA
ATOM     10  O   UNL     1      -1.172  12.763  17.986  0.00  0.00    +0.000 OA
ATOM     11  C   UNL     1      -2.113  12.468  20.392  0.00  0.00    +0.000 A 
ATOM     12  C   UNL     1      -2.888  13.592  20.695  0.00  0.00    +0.000 A 
ATOM     13  C   UNL     1      -2.804  14.153  21.958  0.00  0.00    +0.000 A 
ATOM     14  C   UNL     1      -1.928  13.614  22.905  0.00  0.00    +0.000 A 
ATOM     15  C   UNL     1      -1.175  12.473  22.600  0.00  0.00    +0.000 A 
ATOM     16  C   UNL     1      -1.288  11.852  21.349  0.00  0.00    +0.000 A 
ENDROOT
BRANCH   1  18
ATOM     17  N   UNL     1       2.226   7.926  18.550  0.00  0.00    +0.000 N 
ATOM     18  C   UNL     1       1.738   9.214  18.530  0.00  0.00    +0.000 C 
ATOM     19  O   UNL     1       2.033  10.054  17.686  0.00  0.00    +0.000 OA
ATOM     20  H   UNL     1       1.931   7.354  19.334  0.00  0.00    +0.000 HD
BRANCH  17  21
ATOM     21  C   UNL     1       3.290   7.452  17.697  0.00  0.00    +0.000 C 
BRANCH  21  27
ATOM     22  C   UNL     1       5.261   5.848  18.000  0.00  0.00    +0.000 A 
ATOM     23  C   UNL     1       5.745   4.605  18.432  0.00  0.00    +0.000 A 
ATOM     24  C   UNL     1       4.904   3.696  19.077  0.00  0.00    +0.000 A 
ATOM     25  C   UNL     1       3.570   4.018  19.293  0.00  0.00    +0.000 A 
ATOM     26  C   UNL     1       3.073   5.241  18.849  0.00  0.00    +0.000 A 
ATOM     27  C   UNL     1       3.902   6.162  18.182  0.00  0.00    +0.000 A 
BRANCH  22  29
ATOM     28  C   UNL     1       7.418   6.783  17.726  0.00  0.00    +0.000 C 
ATOM     29  O   UNL     1       6.039   6.778  17.358  0.00  0.00    +0.000 OA
ENDBRANCH  22  29
ENDBRANCH  21  27
ENDBRANCH  17  21
ENDBRANCH   1  18
TORSDOF 4
ENDMDL
MODEL 8
REMARK VINA RESULT:      -7.4      2.566      3.711
REMARK  Name = 
REMARK  6 active torsions:
REMARK  status: ('A' for Active; 'I' for Inactive)
REMARK    1  A    between atoms: C_1  and  O_2
REMARK    2  A    between atoms: O_2  and  C_3
REMARK    3  A    between atoms: C_8  and  C_9
REMARK    4  A    between atoms: C_9  and  N_10
REMARK    5  A    between atoms: C_11  and  C_13
REMARK    6  A    between atoms: N_15  and  C_16
REMARK                            x       y       z     vdW  Elec       q    Type
REMARK                         _______ _______ _______ _____ _____    ______ ____
ROOT
ATOM      1  C   UNL     1       0.902   9.406  19.674  0.00  0.00    +0.000 A 
ATOM      2  N   UNL     1       1.331   9.237  20.949  0.00  0.00    +0.000 NA
ATOM      3  N   UNL     1       0.355   9.815  21.687  0.00  0.00    +0.000 N 
ATOM      4  C   UNL     1      -0.067   9.199  22.929  0.00  0.00    +0.000 C 
ATOM      5  C   UNL     1      -0.429  10.638  20.918  0.00  0.00    +0.000 A 
ATOM      6  C   UNL     1      -0.384  10.014  19.687  0.00  0.00    +0.000 A 
ATOM      7  C   UNL     1      -1.446  10.189  18.681  0.00  0.00    +0.000 C 
ATOM      8  S   UNL     1      -2.030  11.869  18.614  0.00  0.00    +0.000 S 
ATOM      9  O   UNL     1      -3.425  11.845  18.208  0.00  0.00    +0.000 OA
ATOM     10  O   UNL     1      -1.055  12.684  17.917  0.00  0.00    +0.000 OA
ATOM     11  C   UNL     1      -2.022  12.436  20.318  0.00  0.00    +0.000 A 
ATOM     12  C   UNL     1      -2.766  13.584  20.606  0.00  0.00    +0.000 A 
ATOM     13  C   UNL     1      -2.675  14.152  21.866  0.00  0.00    +0.000 A 
ATOM     14  C   UNL     1      -1.823  13.595  22.824  0.00  0.00    +0.000 A 
ATOM     15  C   UNL     1      -1.101  12.430  22.533  0.00  0.00    +0.000 A 
ATOM     16  C   UNL     1      -1.223  11.803  21.286  0.00  0.00    +0.000 A 
ENDROOT
BRANCH   1  18
ATOM     17  N   UNL     1       2.390   7.846  18.657  0.00  0.00    +0.000 N 
ATOM     18  C   UNL     1       1.744   9.054  18.511  0.00  0.00    +0.000 C 
ATOM     19  O   UNL     1       1.908   9.817  17.564  0.00  0.00    +0.000 OA
ATOM     20  H   UNL     1       2.191   7.341  19.514  0.00  0.00    +0.000 HD
BRANCH  17  21
ATOM     21  C   UNL     1       3.479   7.405  17.819  0.00  0.00    +0.000 C 
BRANCH  21  27
ATOM     22  C   UNL     1       3.036   5.065  18.757  0.00  0.00    +0.000 A 
ATOM     23  C   UNL     1       3.273   3.684  18.705  0.00  0.00    +0.000 A 
ATOM     24  C   UNL     1       4.060   3.131  17.693  0.00  0.00    +0.000 A 
ATOM     25  C   UNL     1       4.622   3.953  16.725  0.00  0.00    +0.000 A 
ATOM     26  C   UNL     1       4.412   5.330  16.779  0.00  0.00    +0.000 A 
ATOM     27  C   UNL     1       3.636   5.905  17.801  0.00  0.00    +0.000 A 
BRANCH  22  29
ATOM     28  C   UNL     1       1.883   4.817  20.809  0.00  0.00    +0.000 C 
ATOM     29  O   UNL     1       2.275   5.663  19.729  0.00  0.00    +0.000 OA
ENDBRANCH  22  29
ENDBRANCH  21  27
ENDBRANCH  17  21
ENDBRANCH   1  18
TORSDOF 4
ENDMDL
MODEL 9
REMARK VINA RESULT:      -7.3      2.635      3.795
REMARK  Name = 
REMARK  6 active torsions:
REMARK  status: ('A' for Active; 'I' for Inactive)
REMARK    1  A    between atoms: C_1  and  O_2
REMARK    2  A    between atoms: O_2  and  C_3
REMARK    3  A    between atoms: C_8  and  C_9
REMARK    4  A    between atoms: C_9  and  N_10
REMARK    5  A    between atoms: C_11  and  C_13
REMARK    6  A    between atoms: N_15  and  C_16
REMARK                            x       y       z     vdW  Elec       q    Type
REMARK                         _______ _______ _______ _____ _____    ______ ____
ROOT
ATOM      1  C   UNL     1       0.942   9.452  19.497  0.00  0.00    +0.000 A 
ATOM      2  N   UNL     1       1.374   9.188  20.755  0.00  0.00    +0.000 NA
ATOM      3  N   UNL     1       0.384   9.682  21.535  0.00  0.00    +0.000 N 
ATOM      4  C   UNL     1      -0.026   8.958  22.721  0.00  0.00    +0.000 C 
ATOM      5  C   UNL     1      -0.417  10.549  20.834  0.00  0.00    +0.000 A 
ATOM      6  C   UNL     1      -0.356  10.029  19.556  0.00  0.00    +0.000 A 
ATOM      7  C   UNL     1      -1.420  10.264  18.564  0.00  0.00    +0.000 C 
ATOM      8  S   UNL     1      -2.041  11.930  18.634  0.00  0.00    +0.000 S 
ATOM      9  O   UNL     1      -3.434  11.910  18.223  0.00  0.00    +0.000 OA
ATOM     10  O   UNL     1      -1.083  12.821  18.009  0.00  0.00    +0.000 OA
ATOM     11  C   UNL     1      -2.047  12.356  20.379  0.00  0.00    +0.000 A 
ATOM     12  C   UNL     1      -2.815  13.460  20.758  0.00  0.00    +0.000 A 
ATOM     13  C   UNL     1      -2.738  13.925  22.060  0.00  0.00    +0.000 A 
ATOM     14  C   UNL     1      -1.875  13.309  22.972  0.00  0.00    +0.000 A 
ATOM     15  C   UNL     1      -1.129  12.187  22.588  0.00  0.00    +0.000 A 
ATOM     16  C   UNL     1      -1.236  11.662  21.294  0.00  0.00    +0.000 A 
ENDROOT
BRANCH   1  18
ATOM     17  N   UNL     1       2.225   7.911  18.209  0.00  0.00    +0.000 N 
ATOM     18  C   UNL     1       1.793   9.215  18.311  0.00  0.00    +0.000 C 
ATOM     19  O   UNL     1       2.141  10.121  17.560  0.00  0.00    +0.000 OA
ATOM     20  H   UNL     1       1.891   7.278  18.927  0.00  0.00    +0.000 HD
BRANCH  17  21
ATOM     21  C   UNL     1       3.283   7.477  17.328  0.00  0.00    +0.000 C 
BRANCH  21  27
ATOM     22  C   UNL     1       3.372   5.113  18.305  0.00  0.00    +0.000 A 
ATOM     23  C   UNL     1       4.130   4.054  18.826  0.00  0.00    +0.000 A 
ATOM     24  C   UNL     1       5.524   4.123  18.860  0.00  0.00    +0.000 A 
ATOM     25  C   UNL     1       6.175   5.251  18.377  0.00  0.00    +0.000 A 
ATOM     26  C   UNL     1       5.432   6.318  17.877  0.00  0.00    +0.000 A 
ATOM     27  C   UNL     1       4.026   6.273  17.851  0.00  0.00    +0.000 A 
BRANCH  22  29
ATOM     28  C   UNL     1       1.404   3.818  18.085  0.00  0.00    +0.000 C 
ATOM     29  O   UNL     1       2.001   5.102  18.249  0.00  0.00    +0.000 OA
ENDBRANCH  22  29
ENDBRANCH  21  27
ENDBRANCH  17  21
ENDBRANCH   1  18
TORSDOF 4
ENDMDL
