MODEL 1
REMARK VINA RESULT:      -7.8      0.000      0.000
REMARK  Name = 
REMARK  7 active torsions:
REMARK  status: ('A' for Active; 'I' for Inactive)
REMARK    1  A    between atoms: C_1  and  C_2
REMARK    2  A    between atoms: C_2  and  C_3
REMARK    3  A    between atoms: C_2  and  C_4
REMARK    4  A    between atoms: C_2  and  C_5
REMARK    5  A    between atoms: C_8  and  C_9
REMARK    6  A    between atoms: C_12  and  C_13
REMARK    7  A    between atoms: C_13  and  N_14
REMARK                            x       y       z     vdW  Elec       q    Type
REMARK                         _______ _______ _______ _____ _____    ______ ____
ROOT
ATOM      1  C   UNL     1       3.573   6.440  17.638  0.00  0.00    +0.000 A 
ATOM      2  C   UNL     1       4.653   6.858  16.841  0.00  0.00    +0.000 A 
ATOM      3  C   UNL     1       5.423   5.950  16.108  0.00  0.00    +0.000 A 
ATOM      4  C   UNL     1       5.143   4.583  16.158  0.00  0.00    +0.000 A 
ATOM      5  C   UNL     1       4.095   4.141  16.974  0.00  0.00    +0.000 A 
ATOM      6  C   UNL     1       3.316   5.058  17.693  0.00  0.00    +0.000 A 
ENDROOT
BRANCH   1  10
ATOM      7  C   UNL     1       1.075   9.337  19.722  0.00  0.00    +0.000 A 
ATOM      8  C   UNL     1       1.475   9.524  18.393  0.00  0.00    +0.000 A 
ATOM      9  C   UNL     1       2.274   8.585  17.731  0.00  0.00    +0.000 A 
ATOM     10  C   UNL     1       2.732   7.421  18.366  0.00  0.00    +0.000 A 
ATOM     11  C   UNL     1       2.348   7.241  19.701  0.00  0.00    +0.000 A 
ATOM     12  C   UNL     1       1.532   8.173  20.364  0.00  0.00    +0.000 A 
BRANCH   7  14
ATOM     13  C   UNL     1       0.876  11.669  20.787  0.00  0.00    +0.000 C 
ATOM     14  C   UNL     1       0.163  10.338  20.453  0.00  0.00    +0.000 C 
ATOM     15  C   UNL     1      -0.333   9.737  21.785  0.00  0.00    +0.000 C 
ATOM     16  C   UNL     1      -1.059  10.677  19.573  0.00  0.00    +0.000 C 
ENDBRANCH   7  14
ENDBRANCH   1  10
BRANCH   4  17
ATOM     17  C   UNL     1       5.967   3.613  15.351  0.00  0.00    +0.000 C 
BRANCH  17  18
ATOM     18  N   UNL     1       6.702   4.312  14.322  0.00  0.00    +0.000 N 
ATOM     19  C   UNL     1       6.700   3.939  13.026  0.00  0.00    +0.000 C 
ATOM     20  N   UNL     1       6.158   2.912  12.491  0.00  0.00    +0.000 NA
ATOM     21  N   UNL     1       7.400   4.794  12.256  0.00  0.00    +0.000 N 
ATOM     22  H   UNL     1       6.708   5.320  14.441  0.00  0.00    +0.000 HD
ATOM     23  H   UNL     1       5.667   2.365  13.196  0.00  0.00    +0.000 HD
ATOM     24  H   UNL     1       8.293   5.039  12.663  0.00  0.00    +0.000 HD
ATOM     25  H   UNL     1       7.528   4.382  11.338  0.00  0.00    +0.000 HD
ENDBRANCH  17  18
ENDBRANCH   4  17
TORSDOF 4
ENDMDL
MODEL 2
REMARK VINA RESULT:      -7.8      0.166      1.055
REMARK  Name = 
REMARK  7 active torsions:
REMARK  status: ('A' for Active; 'I' for Inactive)
REMARK    1  A    between atoms: C_1  and  C_2
REMARK    2  A    between atoms: C_2  and  C_3
REMARK    3  A    between atoms: C_2  and  C_4
REMARK    4  A    between atoms: C_2  and  C_5
REMARK    5  A    between atoms: C_8  and  C_9
REMARK    6  A    between atoms: C_12  and  C_13
REMARK    7  A    between atoms: C_13  and  N_14
REMARK                            x       y       z     vdW  Elec       q    Type
REMARK                         _______ _______ _______ _____ _____    ______ ____
ROOT
ATOM      1  C   UNL     1       3.490   6.521  17.698  0.00  0.00    +0.000 A 
ATOM      2  C   UNL     1       4.607   6.928  16.947  0.00  0.00    +0.000 A 
ATOM      3  C   UNL     1       5.397   6.012  16.247  0.00  0.00    +0.000 A 
ATOM      4  C   UNL     1       5.101   4.647  16.284  0.00  0.00    +0.000 A 
ATOM      5  C   UNL     1       4.015   4.217  17.054  0.00  0.00    +0.000 A 
ATOM      6  C   UNL     1       3.216   5.142  17.740  0.00  0.00    +0.000 A 
ENDROOT
BRANCH   1  10
ATOM      7  C   UNL     1       0.994   9.418  19.785  0.00  0.00    +0.000 A 
ATOM      8  C   UNL     1       1.454   8.252  20.408  0.00  0.00    +0.000 A 
ATOM      9  C   UNL     1       2.260   7.329  19.730  0.00  0.00    +0.000 A 
ATOM     10  C   UNL     1       2.631   7.512  18.390  0.00  0.00    +0.000 A 
ATOM     11  C   UNL     1       2.156   8.669  17.759  0.00  0.00    +0.000 A 
ATOM     12  C   UNL     1       1.362   9.606  18.441  0.00  0.00    +0.000 A 
BRANCH   7  14
ATOM     13  C   UNL     1       0.896  11.792  20.769  0.00  0.00    +0.000 C 
ATOM     14  C   UNL     1       0.142  10.463  20.526  0.00  0.00    +0.000 C 
ATOM     15  C   UNL     1      -0.291   9.923  21.904  0.00  0.00    +0.000 C 
ATOM     16  C   UNL     1      -1.120  10.793  19.700  0.00  0.00    +0.000 C 
ENDBRANCH   7  14
ENDBRANCH   1  10
BRANCH   4  17
ATOM     17  C   UNL     1       5.947   3.669  15.511  0.00  0.00    +0.000 C 
BRANCH  17  18
ATOM     18  N   UNL     1       6.737   4.360  14.519  0.00  0.00    +0.000 N 
ATOM     19  C   UNL     1       6.726   4.040  13.208  0.00  0.00    +0.000 C 
ATOM     20  N   UNL     1       6.127   3.072  12.627  0.00  0.00    +0.000 NA
ATOM     21  N   UNL     1       7.487   4.880  12.480  0.00  0.00    +0.000 N 
ATOM     22  H   UNL     1       6.804   5.360  14.678  0.00  0.00    +0.000 HD
ATOM     23  H   UNL     1       5.594   2.529  13.304  0.00  0.00    +0.000 HD
ATOM     24  H   UNL     1       8.389   5.052  12.905  0.00  0.00    +0.000 HD
ATOM     25  H   UNL     1       7.601   4.498  11.547  0.00  0.00    +0.000 HD
ENDBRANCH  17  18
ENDBRANCH   4  17
TORSDOF 4
ENDMDL
MODEL 3
REMARK VINA RESULT:      -7.8      6.670     10.281
REMARK  Name = 
REMARK  7 active torsions:
REMARK  status: ('A' for Active; 'I' for Inactive)
REMARK    1  A    between atoms: C_1  and  C_2
REMARK    2  A    between atoms: C_2  and  C_3
REMARK    3  A    between atoms: C_2  and  C_4
REMARK    4  A    between atoms: C_2  and  C_5
REMARK    5  A    between atoms: C_8  and  C_9
REMARK    6  A    between atoms: C_12  and  C_13
REMARK    7  A    between atoms: C_13  and  N_14
REMARK                            x       y       z     vdW  Elec       q    Type
REMARK                         _______ _______ _______ _____ _____    ______ ____
ROOT
ATOM      1  C   UNL     1       0.294   9.542  21.020  0.00  0.00    +0.000 A 
ATOM      2  C   UNL     1      -0.266  10.654  20.365  0.00  0.00    +0.000 A 
ATOM      3  C   UNL     1      -1.030  11.603  21.049  0.00  0.00    +0.000 A 
ATOM      4  C   UNL     1      -1.269  11.466  22.419  0.00  0.00    +0.000 A 
ATOM      5  C   UNL     1      -0.752  10.349  23.083  0.00  0.00    +0.000 A 
ATOM      6  C   UNL     1       0.028   9.408  22.394  0.00  0.00    +0.000 A 
ENDROOT
BRANCH   1  10
ATOM      7  C   UNL     1       2.831   6.743  18.851  0.00  0.00    +0.000 A 
ATOM      8  C   UNL     1       2.471   7.985  18.314  0.00  0.00    +0.000 A 
ATOM      9  C   UNL     1       1.659   8.880  19.021  0.00  0.00    +0.000 A 
ATOM     10  C   UNL     1       1.147   8.573  20.290  0.00  0.00    +0.000 A 
ATOM     11  C   UNL     1       1.491   7.323  20.821  0.00  0.00    +0.000 A 
ATOM     12  C   UNL     1       2.320   6.429  20.122  0.00  0.00    +0.000 A 
BRANCH   7  14
ATOM     13  C   UNL     1       4.482   6.415  16.906  0.00  0.00    +0.000 C 
ATOM     14  C   UNL     1       3.756   5.764  18.106  0.00  0.00    +0.000 C 
ATOM     15  C   UNL     1       2.944   4.571  17.559  0.00  0.00    +0.000 C 
ATOM     16  C   UNL     1       4.840   5.231  19.067  0.00  0.00    +0.000 C 
ENDBRANCH   7  14
ENDBRANCH   1  10
BRANCH   4  17
ATOM     17  C   UNL     1      -2.079  12.505  23.151  0.00  0.00    +0.000 C 
BRANCH  17  18
ATOM     18  N   UNL     1      -3.319  11.935  23.625  0.00  0.00    +0.000 N 
ATOM     19  C   UNL     1      -4.151  12.572  24.475  0.00  0.00    +0.000 C 
ATOM     20  N   UNL     1      -3.985  13.693  25.065  0.00  0.00    +0.000 NA
ATOM     21  N   UNL     1      -5.273  11.863  24.704  0.00  0.00    +0.000 N 
ATOM     22  H   UNL     1      -3.813  11.397  22.921  0.00  0.00    +0.000 HD
ATOM     23  H   UNL     1      -3.095  14.107  24.792  0.00  0.00    +0.000 HD
ATOM     24  H   UNL     1      -5.083  10.887  24.891  0.00  0.00    +0.000 HD
ATOM     25  H   UNL     1      -5.775  12.282  25.480  0.00  0.00    +0.000 HD
ENDBRANCH  17  18
ENDBRANCH   4  17
TORSDOF 4
ENDMDL
MODEL 4
REMARK VINA RESULT:      -7.7      1.815      2.670
REMARK  Name = 
REMARK  7 active torsions:
REMARK  status: ('A' for Active; 'I' for Inactive)
REMARK    1  A    between atoms: C_1  and  C_2
REMARK    2  A    between atoms: C_2  and  C_3
REMARK    3  A    between atoms: C_2  and  C_4
REMARK    4  A    between atoms: C_2  and  C_5
REMARK    5  A    between atoms: C_8  and  C_9
REMARK    6  A    between atoms: C_12  and  C_13
REMARK    7  A    between atoms: C_13  and  N_14
REMARK                            x       y       z     vdW  Elec       q    Type
REMARK                         _______ _______ _______ _____ _____    ______ ____
ROOT
ATOM      1  C   UNL     1       2.481   7.326  18.664  0.00  0.00    +0.000 A 
ATOM      2  C   UNL     1       2.283   5.974  18.997  0.00  0.00    +0.000 A 
ATOM      3  C   UNL     1       3.018   4.951  18.391  0.00  0.00    +0.000 A 
ATOM      4  C   UNL     1       3.974   5.247  17.417  0.00  0.00    +0.000 A 
ATOM      5  C   UNL     1       4.161   6.583  17.044  0.00  0.00    +0.000 A 
ATOM      6  C   UNL     1       3.433   7.606  17.667  0.00  0.00    +0.000 A 
ENDROOT
BRANCH   1  10
ATOM      7  C   UNL     1       0.250  10.502  20.641  0.00  0.00    +0.000 A 
ATOM      8  C   UNL     1       0.607  10.579  19.289  0.00  0.00    +0.000 A 
ATOM      9  C   UNL     1       1.319   9.550  18.662  0.00  0.00    +0.000 A 
ATOM     10  C   UNL     1       1.732   8.403  19.355  0.00  0.00    +0.000 A 
ATOM     11  C   UNL     1       1.392   8.333  20.713  0.00  0.00    +0.000 A 
ATOM     12  C   UNL     1       0.662   9.355  21.342  0.00  0.00    +0.000 A 
BRANCH   7  14
ATOM     13  C   UNL     1       0.231  12.911  21.540  0.00  0.00    +0.000 C 
ATOM     14  C   UNL     1      -0.568  11.603  21.338  0.00  0.00    +0.000 C 
ATOM     15  C   UNL     1      -1.030  11.128  22.731  0.00  0.00    +0.000 C 
ATOM     16  C   UNL     1      -1.812  11.949  20.492  0.00  0.00    +0.000 C 
ENDBRANCH   7  14
ENDBRANCH   1  10
BRANCH   4  17
ATOM     17  C   UNL     1       4.773   4.139  16.782  0.00  0.00    +0.000 C 
BRANCH  17  18
ATOM     18  N   UNL     1       6.043   3.986  17.454  0.00  0.00    +0.000 N 
ATOM     19  C   UNL     1       7.210   4.436  16.947  0.00  0.00    +0.000 C 
ATOM     20  N   UNL     1       7.432   4.973  15.809  0.00  0.00    +0.000 NA
ATOM     21  N   UNL     1       8.235   4.238  17.797  0.00  0.00    +0.000 N 
ATOM     22  H   UNL     1       5.985   4.094  18.461  0.00  0.00    +0.000 HD
ATOM     23  H   UNL     1       6.563   5.057  15.283  0.00  0.00    +0.000 HD
ATOM     24  H   UNL     1       8.235   3.308  18.195  0.00  0.00    +0.000 HD
ATOM     25  H   UNL     1       9.107   4.415  17.309  0.00  0.00    +0.000 HD
ENDBRANCH  17  18
ENDBRANCH   4  17
TORSDOF 4
ENDMDL
MODEL 5
REMARK VINA RESULT:      -7.7      1.802      2.762
REMARK  Name = 
REMARK  7 active torsions:
REMARK  status: ('A' for Active; 'I' for Inactive)
REMARK    1  A    between atoms: C_1  and  C_2
REMARK    2  A    between atoms: C_2  and  C_3
REMARK    3  A    between atoms: C_2  and  C_4
REMARK    4  A    between atoms: C_2  and  C_5
REMARK    5  A    between atoms: C_8  and  C_9
REMARK    6  A    between atoms: C_12  and  C_13
REMARK    7  A    between atoms: C_13  and  N_14
REMARK                            x       y       z     vdW  Elec       q    Type
REMARK                         _______ _______ _______ _____ _____    ______ ____
ROOT
ATOM      1  C   UNL     1       2.516   7.308  18.356  0.00  0.00    +0.000 A 
ATOM      2  C   UNL     1       2.114   5.962  18.443  0.00  0.00    +0.000 A 
ATOM      3  C   UNL     1       2.860   4.932  17.864  0.00  0.00    +0.000 A 
ATOM      4  C   UNL     1       4.036   5.215  17.164  0.00  0.00    +0.000 A 
ATOM      5  C   UNL     1       4.434   6.550  17.035  0.00  0.00    +0.000 A 
ATOM      6  C   UNL     1       3.691   7.578  17.632  0.00  0.00    +0.000 A 
ENDROOT
BRANCH   1  10
ATOM      7  C   UNL     1       0.278  10.458  20.365  0.00  0.00    +0.000 A 
ATOM      8  C   UNL     1       0.782   9.351  21.058  0.00  0.00    +0.000 A 
ATOM      9  C   UNL     1       1.504   8.346  20.404  0.00  0.00    +0.000 A 
ATOM     10  C   UNL     1       1.742   8.383  19.022  0.00  0.00    +0.000 A 
ATOM     11  C   UNL     1       1.223   9.481  18.324  0.00  0.00    +0.000 A 
ATOM     12  C   UNL     1       0.512  10.500  18.979  0.00  0.00    +0.000 A 
BRANCH   7  14
ATOM     13  C   UNL     1       0.364  12.876  21.236  0.00  0.00    +0.000 C 
ATOM     14  C   UNL     1      -0.483  11.593  21.073  0.00  0.00    +0.000 C 
ATOM     15  C   UNL     1      -0.918  11.148  22.485  0.00  0.00    +0.000 C 
ATOM     16  C   UNL     1      -1.740  11.970  20.260  0.00  0.00    +0.000 C 
ENDBRANCH   7  14
ENDBRANCH   1  10
BRANCH   4  17
ATOM     17  C   UNL     1       4.843   4.096  16.559  0.00  0.00    +0.000 C 
BRANCH  17  18
ATOM     18  N   UNL     1       6.083   3.923  17.278  0.00  0.00    +0.000 N 
ATOM     19  C   UNL     1       7.260   4.434  16.861  0.00  0.00    +0.000 C 
ATOM     20  N   UNL     1       7.521   5.056  15.775  0.00  0.00    +0.000 NA
ATOM     21  N   UNL     1       8.250   4.199  17.743  0.00  0.00    +0.000 N 
ATOM     22  H   UNL     1       5.975   3.959  18.287  0.00  0.00    +0.000 HD
ATOM     23  H   UNL     1       6.677   5.157  15.215  0.00  0.00    +0.000 HD
ATOM     24  H   UNL     1       8.255   3.243  18.075  0.00  0.00    +0.000 HD
ATOM     25  H   UNL     1       9.139   4.429  17.311  0.00  0.00    +0.000 HD
ENDBRANCH  17  18
ENDBRANCH   4  17
TORSDOF 4
ENDMDL
MODEL 6
REMARK VINA RESULT:      -7.7      1.867      2.667
REMARK  Name = 
REMARK  7 active torsions:
REMARK  status: ('A' for Active; 'I' for Inactive)
REMARK    1  A    between atoms: C_1  and  C_2
REMARK    2  A    between atoms: C_2  and  C_3
REMARK    3  A    between atoms: C_2  and  C_4
REMARK    4  A    between atoms: C_2  and  C_5
REMARK    5  A    between atoms: C_8  and  C_9
REMARK    6  A    between atoms: C_12  and  C_13
REMARK    7  A    between atoms: C_13  and  N_14
REMARK                            x       y       z     vdW  Elec       q    Type
REMARK                         _______ _______ _______ _____ _____    ______ ____
ROOT
ATOM      1  C   UNL     1       2.504   7.374  18.776  0.00  0.00    +0.000 A 
ATOM      2  C   UNL     1       3.345   7.676  17.690  0.00  0.00    +0.000 A 
ATOM      3  C   UNL     1       4.049   6.681  17.004  0.00  0.00    +0.000 A 
ATOM      4  C   UNL     1       3.942   5.344  17.392  0.00  0.00    +0.000 A 
ATOM      5  C   UNL     1       3.139   5.025  18.493  0.00  0.00    +0.000 A 
ATOM      6  C   UNL     1       2.423   6.025  19.166  0.00  0.00    +0.000 A 
ENDROOT
BRANCH   1  10
ATOM      7  C   UNL     1       0.181  10.502  20.724  0.00  0.00    +0.000 A 
ATOM      8  C   UNL     1       0.587  10.604  19.388  0.00  0.00    +0.000 A 
ATOM      9  C   UNL     1       1.329   9.591  18.770  0.00  0.00    +0.000 A 
ATOM     10  C   UNL     1       1.723   8.434  19.457  0.00  0.00    +0.000 A 
ATOM     11  C   UNL     1       1.333   8.338  20.800  0.00  0.00    +0.000 A 
ATOM     12  C   UNL     1       0.573   9.344  21.419  0.00  0.00    +0.000 A 
BRANCH   7  14
ATOM     13  C   UNL     1      -1.141  11.177  22.824  0.00  0.00    +0.000 C 
ATOM     14  C   UNL     1      -0.670  11.585  21.409  0.00  0.00    +0.000 C 
ATOM     15  C   UNL     1      -1.933  11.883  20.573  0.00  0.00    +0.000 C 
ATOM     16  C   UNL     1       0.150  12.885  21.553  0.00  0.00    +0.000 C 
ENDBRANCH   7  14
ENDBRANCH   1  10
BRANCH   4  17
ATOM     17  C   UNL     1       4.690   4.276  16.636  0.00  0.00    +0.000 C 
BRANCH  17  18
ATOM     18  N   UNL     1       5.959   4.006  17.270  0.00  0.00    +0.000 N 
ATOM     19  C   UNL     1       7.113   4.603  16.905  0.00  0.00    +0.000 C 
ATOM     20  N   UNL     1       7.324   5.408  15.935  0.00  0.00    +0.000 NA
ATOM     21  N   UNL     1       8.139   4.238  17.697  0.00  0.00    +0.000 N 
ATOM     22  H   UNL     1       5.890   3.864  18.272  0.00  0.00    +0.000 HD
ATOM     23  H   UNL     1       6.457   5.588  15.431  0.00  0.00    +0.000 HD
ATOM     24  H   UNL     1       8.169   3.240  17.858  0.00  0.00    +0.000 HD
ATOM     25  H   UNL     1       9.007   4.557  17.280  0.00  0.00    +0.000 HD
ENDBRANCH  17  18
ENDBRANCH   4  17
TORSDOF 4
ENDMDL
MODEL 7
REMARK VINA RESULT:      -7.7      1.823      2.876
REMARK  Name = 
REMARK  7 active torsions:
REMARK  status: ('A' for Active; 'I' for Inactive)
REMARK    1  A    between atoms: C_1  and  C_2
REMARK    2  A    between atoms: C_2  and  C_3
REMARK    3  A    between atoms: C_2  and  C_4
REMARK    4  A    between atoms: C_2  and  C_5
REMARK    5  A    between atoms: C_8  and  C_9
REMARK    6  A    between atoms: C_12  and  C_13
REMARK    7  A    between atoms: C_13  and  N_14
REMARK                            x       y       z     vdW  Elec       q    Type
REMARK                         _______ _______ _______ _____ _____    ______ ____
ROOT
ATOM      1  C   UNL     1       2.480   7.378  18.783  0.00  0.00    +0.000 A 
ATOM      2  C   UNL     1       3.370   7.646  17.727  0.00  0.00    +0.000 A 
ATOM      3  C   UNL     1       4.092   6.629  17.096  0.00  0.00    +0.000 A 
ATOM      4  C   UNL     1       3.956   5.302  17.510  0.00  0.00    +0.000 A 
ATOM      5  C   UNL     1       3.104   5.018  18.583  0.00  0.00    +0.000 A 
ATOM      6  C   UNL     1       2.369   6.040  19.200  0.00  0.00    +0.000 A 
ENDROOT
BRANCH   1  10
ATOM      7  C   UNL     1       0.160  10.548  20.664  0.00  0.00    +0.000 A 
ATOM      8  C   UNL     1       0.544   9.397  21.363  0.00  0.00    +0.000 A 
ATOM      9  C   UNL     1       1.294   8.386  20.751  0.00  0.00    +0.000 A 
ATOM     10  C   UNL     1       1.681   8.461  19.404  0.00  0.00    +0.000 A 
ATOM     11  C   UNL     1       1.281   9.604  18.698  0.00  0.00    +0.000 A 
ATOM     12  C   UNL     1       0.544  10.628  19.314  0.00  0.00    +0.000 A 
BRANCH   7  14
ATOM     13  C   UNL     1      -1.093  11.342  22.765  0.00  0.00    +0.000 C 
ATOM     14  C   UNL     1      -0.629  11.688  21.331  0.00  0.00    +0.000 C 
ATOM     15  C   UNL     1      -1.891  12.020  20.508  0.00  0.00    +0.000 C 
ATOM     16  C   UNL     1       0.252  12.953  21.424  0.00  0.00    +0.000 C 
ENDBRANCH   7  14
ENDBRANCH   1  10
BRANCH   4  17
ATOM     17  C   UNL     1       4.725   4.211  16.813  0.00  0.00    +0.000 C 
BRANCH  17  18
ATOM     18  N   UNL     1       6.005   4.008  17.452  0.00  0.00    +0.000 N 
ATOM     19  C   UNL     1       7.167   4.475  16.950  0.00  0.00    +0.000 C 
ATOM     20  N   UNL     1       7.375   5.073  15.840  0.00  0.00    +0.000 NA
ATOM     21  N   UNL     1       8.205   4.221  17.769  0.00  0.00    +0.000 N 
ATOM     22  H   UNL     1       5.965   4.061  18.465  0.00  0.00    +0.000 HD
ATOM     23  H   UNL     1       6.498   5.194  15.335  0.00  0.00    +0.000 HD
ATOM     24  H   UNL     1       8.203   3.271  18.115  0.00  0.00    +0.000 HD
ATOM     25  H   UNL     1       9.070   4.417  17.276  0.00  0.00    +0.000 HD
ENDBRANCH  17  18
ENDBRANCH   4  17
TORSDOF 4
ENDMDL
MODEL 8
REMARK VINA RESULT:      -7.7      6.724     10.387
REMARK  Name = 
REMARK  7 active torsions:
REMARK  status: ('A' for Active; 'I' for Inactive)
REMARK    1  A    between atoms: C_1  and  C_2
REMARK    2  A    between atoms: C_2  and  C_3
REMARK    3  A    between atoms: C_2  and  C_4
REMARK    4  A    between atoms: C_2  and  C_5
REMARK    5  A    between atoms: C_8  and  C_9
REMARK    6  A    between atoms: C_12  and  C_13
REMARK    7  A    between atoms: C_13  and  N_14
REMARK                            x       y       z     vdW  Elec       q    Type
REMARK                         _______ _______ _______ _____ _____    ______ ____
ROOT
ATOM      1  C   UNL     1       0.306   9.786  21.086  0.00  0.00    +0.000 A 
ATOM      2  C   UNL     1      -0.153   9.587  22.400  0.00  0.00    +0.000 A 
ATOM      3  C   UNL     1      -0.939  10.537  23.058  0.00  0.00    +0.000 A 
ATOM      4  C   UNL     1      -1.287  11.731  22.423  0.00  0.00    +0.000 A 
ATOM      5  C   UNL     1      -0.811  11.966  21.128  0.00  0.00    +0.000 A 
ATOM      6  C   UNL     1      -0.037  11.002  20.467  0.00  0.00    +0.000 A 
ENDROOT
BRANCH   1  10
ATOM      7  C   UNL     1       2.651   6.772  18.991  0.00  0.00    +0.000 A 
ATOM      8  C   UNL     1       2.315   7.994  18.396  0.00  0.00    +0.000 A 
ATOM      9  C   UNL     1       1.565   8.958  19.079  0.00  0.00    +0.000 A 
ATOM     10  C   UNL     1       1.093   8.745  20.383  0.00  0.00    +0.000 A 
ATOM     11  C   UNL     1       1.412   7.515  20.973  0.00  0.00    +0.000 A 
ATOM     12  C   UNL     1       2.179   6.552  20.297  0.00  0.00    +0.000 A 
BRANCH   7  14
ATOM     13  C   UNL     1       4.340   6.307  17.108  0.00  0.00    +0.000 C 
ATOM     14  C   UNL     1       3.508   5.717  18.271  0.00  0.00    +0.000 C 
ATOM     15  C   UNL     1       2.611   4.610  17.678  0.00  0.00    +0.000 C 
ATOM     16  C   UNL     1       4.499   5.075  19.267  0.00  0.00    +0.000 C 
ENDBRANCH   7  14
ENDBRANCH   1  10
BRANCH   4  17
ATOM     17  C   UNL     1      -2.149  12.741  23.133  0.00  0.00    +0.000 C 
BRANCH  17  18
ATOM     18  N   UNL     1      -3.337  12.109  23.659  0.00  0.00    +0.000 N 
ATOM     19  C   UNL     1      -4.127  12.675  24.595  0.00  0.00    +0.000 C 
ATOM     20  N   UNL     1      -3.954  13.770  25.230  0.00  0.00    +0.000 NA
ATOM     21  N   UNL     1      -5.209  11.920  24.861  0.00  0.00    +0.000 N 
ATOM     22  H   UNL     1      -3.863  11.591  22.962  0.00  0.00    +0.000 HD
ATOM     23  H   UNL     1      -3.097  14.226  24.920  0.00  0.00    +0.000 HD
ATOM     24  H   UNL     1      -4.980  10.942  24.983  0.00  0.00    +0.000 HD
ATOM     25  H   UNL     1      -5.670  12.283  25.690  0.00  0.00    +0.000 HD
ENDBRANCH  17  18
ENDBRANCH   4  17
TORSDOF 4
ENDMDL
MODEL 9
REMARK VINA RESULT:      -7.7      0.177      1.062
REMARK  Name = 
REMARK  7 active torsions:
REMARK  status: ('A' for Active; 'I' for Inactive)
REMARK    1  A    between atoms: C_1  and  C_2
REMARK    2  A    between atoms: C_2  and  C_3
REMARK    3  A    between atoms: C_2  and  C_4
REMARK    4  A    between atoms: C_2  and  C_5
REMARK    5  A    between atoms: C_8  and  C_9
REMARK    6  A    between atoms: C_12  and  C_13
REMARK    7  A    between atoms: C_13  and  N_14
REMARK                            x       y       z     vdW  Elec       q    Type
REMARK                         _______ _______ _______ _____ _____    ______ ____
ROOT
ATOM      1  C   UNL     1       3.472   6.560  17.629  0.00  0.00    +0.000 A 
ATOM      2  C   UNL     1       3.253   5.175  17.738  0.00  0.00    +0.000 A 
ATOM      3  C   UNL     1       4.055   4.247  17.067  0.00  0.00    +0.000 A 
ATOM      4  C   UNL     1       5.103   4.677  16.250  0.00  0.00    +0.000 A 
ATOM      5  C   UNL     1       5.316   6.052  16.098  0.00  0.00    +0.000 A 
ATOM      6  C   UNL     1       4.519   6.977  16.787  0.00  0.00    +0.000 A 
ENDROOT
BRANCH   1  10
ATOM      7  C   UNL     1       1.018   9.421  19.812  0.00  0.00    +0.000 A 
ATOM      8  C   UNL     1       1.410   9.642  18.487  0.00  0.00    +0.000 A 
ATOM      9  C   UNL     1       2.195   8.714  17.792  0.00  0.00    +0.000 A 
ATOM     10  C   UNL     1       2.647   7.529  18.390  0.00  0.00    +0.000 A 
ATOM     11  C   UNL     1       2.270   7.314  19.722  0.00  0.00    +0.000 A 
ATOM     12  C   UNL     1       1.468   8.234  20.417  0.00  0.00    +0.000 A 
BRANCH   7  14
ATOM     13  C   UNL     1       0.830  11.748  20.890  0.00  0.00    +0.000 C 
ATOM     14  C   UNL     1       0.122  10.409  20.579  0.00  0.00    +0.000 C 
ATOM     15  C   UNL     1      -0.319   9.800  21.926  0.00  0.00    +0.000 C 
ATOM     16  C   UNL     1      -1.135  10.736  19.744  0.00  0.00    +0.000 C 
ENDBRANCH   7  14
ENDBRANCH   1  10
BRANCH   4  17
ATOM     17  C   UNL     1       5.973   3.670  15.545  0.00  0.00    +0.000 C 
BRANCH  17  18
ATOM     18  N   UNL     1       6.787   4.319  14.544  0.00  0.00    +0.000 N 
ATOM     19  C   UNL     1       6.720   4.026  13.229  0.00  0.00    +0.000 C 
ATOM     20  N   UNL     1       6.038   3.115  12.647  0.00  0.00    +0.000 NA
ATOM     21  N   UNL     1       7.523   4.820  12.495  0.00  0.00    +0.000 N 
ATOM     22  H   UNL     1       6.931   5.309  14.718  0.00  0.00    +0.000 HD
ATOM     23  H   UNL     1       5.483   2.600  13.329  0.00  0.00    +0.000 HD
ATOM     24  H   UNL     1       8.445   4.918  12.899  0.00  0.00    +0.000 HD
ATOM     25  H   UNL     1       7.585   4.449  11.553  0.00  0.00    +0.000 HD
ENDBRANCH  17  18
ENDBRANCH   4  17
TORSDOF 4
ENDMDL
