MODEL 1
REMARK VINA RESULT:      -9.0      0.000      0.000
REMARK  Name = 
REMARK  4 active torsions:
REMARK  status: ('A' for Active; 'I' for Inactive)
REMARK    1  A    between atoms: C_4  and  N_5
REMARK    2  A    between atoms: N_5  and  C_6
REMARK    3  A    between atoms: N_9  and  C_10
REMARK    4  A    between atoms: C_10  and  C_11
REMARK                            x       y       z     vdW  Elec       q    Type
REMARK                         _______ _______ _______ _____ _____    ______ ____
ROOT
ATOM      1  O   UNL     1       3.134   8.104  16.829  0.00  0.00    +0.000 OA
ATOM      2  C   UNL     1       2.620   8.092  17.932  0.00  0.00    +0.000 A 
ATOM      3  C   UNL     1       2.718   6.917  18.795  0.00  0.00    +0.000 A 
ATOM      4  C   UNL     1       2.214   6.812  20.033  0.00  0.00    +0.000 A 
ATOM      5  C   UNL     1       1.374   7.957  20.497  0.00  0.00    +0.000 A 
ATOM      6  C   UNL     1       0.628   7.984  21.683  0.00  0.00    +0.000 A 
ATOM      7  C   UNL     1      -0.174   9.096  22.019  0.00  0.00    +0.000 A 
ATOM      8  C   UNL     1      -0.251  10.235  21.190  0.00  0.00    +0.000 A 
ATOM      9  C   UNL     1      -1.044  11.357  21.508  0.00  0.00    +0.000 A 
ATOM     10  C   UNL     1      -1.100  12.470  20.656  0.00  0.00    +0.000 A 
ATOM     11  C   UNL     1      -0.367  12.475  19.477  0.00  0.00    +0.000 A 
ATOM     12  C   UNL     1       0.419  11.374  19.153  0.00  0.00    +0.000 A 
ATOM     13  C   UNL     1       0.493  10.241  19.999  0.00  0.00    +0.000 A 
ATOM     14  C   UNL     1       1.275   9.103  19.687  0.00  0.00    +0.000 A 
ATOM     15  O   UNL     1       1.959   9.176  18.451  0.00  0.00    +0.000 OA
ENDROOT
BRANCH   4  16
ATOM     16  N   UNL     1       2.442   5.702  20.851  0.00  0.00    +0.000 N 
ATOM     17  H   UNL     1       2.977   5.907  21.690  0.00  0.00    +0.000 HD
BRANCH  16  18
ATOM     18  C   UNL     1       1.614   4.476  20.944  0.00  0.00    +0.000 C 
ATOM     19  C   UNL     1       2.436   3.257  21.371  0.00  0.00    +0.000 C 
ATOM     20  C   UNL     1       3.429   2.824  20.291  0.00  0.00    +0.000 C 
ATOM     21  N   UNL     1       2.875   2.684  18.943  0.00  0.00    +0.000 NA
ATOM     22  C   UNL     1       1.915   3.712  18.547  0.00  0.00    +0.000 C 
ATOM     23  C   UNL     1       0.920   4.091  19.635  0.00  0.00    +0.000 C 
BRANCH  21  24
ATOM     24  C   UNL     1       3.920   2.497  17.910  0.00  0.00    +0.000 C 
BRANCH  24  25
ATOM     25  C   UNL     1       4.686   3.740  17.472  0.00  0.00    +0.000 A 
ATOM     26  C   UNL     1       5.501   4.424  18.390  0.00  0.00    +0.000 A 
ATOM     27  C   UNL     1       6.190   5.579  18.017  0.00  0.00    +0.000 A 
ATOM     28  C   UNL     1       6.091   6.059  16.713  0.00  0.00    +0.000 A 
ATOM     29  C   UNL     1       5.291   5.390  15.788  0.00  0.00    +0.000 A 
ATOM     30  C   UNL     1       4.593   4.239  16.165  0.00  0.00    +0.000 A 
ENDBRANCH  24  25
ENDBRANCH  21  24
ENDBRANCH  16  18
ENDBRANCH   4  16
TORSDOF 4
ENDMDL
MODEL 2
REMARK VINA RESULT:      -8.7      0.920      1.062
REMARK  Name = 
REMARK  4 active torsions:
REMARK  status: ('A' for Active; 'I' for Inactive)
REMARK    1  A    between atoms: C_4  and  N_5
REMARK    2  A    between atoms: N_5  and  C_6
REMARK    3  A    between atoms: N_9  and  C_10
REMARK    4  A    between atoms: C_10  and  C_11
REMARK                            x       y       z     vdW  Elec       q    Type
REMARK                         _______ _______ _______ _____ _____    ______ ____
ROOT
ATOM      1  O   UNL     1       2.250   9.270  17.051  0.00  0.00    +0.000 OA
ATOM      2  C   UNL     1       1.936   9.044  18.205  0.00  0.00    +0.000 A 
ATOM      3  C   UNL     1       2.246   7.762  18.833  0.00  0.00    +0.000 A 
ATOM      4  C   UNL     1       1.970   7.425  20.100  0.00  0.00    +0.000 A 
ATOM      5  C   UNL     1       1.162   8.411  20.880  0.00  0.00    +0.000 A 
ATOM      6  C   UNL     1       0.632   8.192  22.158  0.00  0.00    +0.000 A 
ATOM      7  C   UNL     1      -0.159   9.169  22.800  0.00  0.00    +0.000 A 
ATOM      8  C   UNL     1      -0.440  10.412  22.196  0.00  0.00    +0.000 A 
ATOM      9  C   UNL     1      -1.226  11.403  22.821  0.00  0.00    +0.000 A 
ATOM     10  C   UNL     1      -1.490  12.626  22.188  0.00  0.00    +0.000 A 
ATOM     11  C   UNL     1      -0.973  12.875  20.923  0.00  0.00    +0.000 A 
ATOM     12  C   UNL     1      -0.196  11.905  20.297  0.00  0.00    +0.000 A 
ATOM     13  C   UNL     1       0.084  10.665  20.919  0.00  0.00    +0.000 A 
ATOM     14  C   UNL     1       0.862   9.657  20.299  0.00  0.00    +0.000 A 
ATOM     15  O   UNL     1       1.317   9.977  18.998  0.00  0.00    +0.000 OA
ENDROOT
BRANCH   4  16
ATOM     16  N   UNL     1       2.397   6.224  20.674  0.00  0.00    +0.000 N 
ATOM     17  H   UNL     1       3.048   6.340  21.446  0.00  0.00    +0.000 HD
BRANCH  16  18
ATOM     18  C   UNL     1       1.673   4.931  20.681  0.00  0.00    +0.000 C 
ATOM     19  C   UNL     1       2.581   3.764  21.078  0.00  0.00    +0.000 C 
ATOM     20  C   UNL     1       3.639   3.468  20.014  0.00  0.00    +0.000 C 
ATOM     21  N   UNL     1       3.140   3.350  18.643  0.00  0.00    +0.000 NA
ATOM     22  C   UNL     1       2.109   4.314  18.262  0.00  0.00    +0.000 C 
ATOM     23  C   UNL     1       1.054   4.555  19.332  0.00  0.00    +0.000 C 
BRANCH  21  24
ATOM     24  C   UNL     1       4.228   3.302  17.639  0.00  0.00    +0.000 C 
BRANCH  24  25
ATOM     25  C   UNL     1       5.105   4.541  17.513  0.00  0.00    +0.000 A 
ATOM     26  C   UNL     1       6.364   4.579  18.136  0.00  0.00    +0.000 A 
ATOM     27  C   UNL     1       7.173   5.714  18.056  0.00  0.00    +0.000 A 
ATOM     28  C   UNL     1       6.743   6.825  17.334  0.00  0.00    +0.000 A 
ATOM     29  C   UNL     1       5.499   6.804  16.706  0.00  0.00    +0.000 A 
ATOM     30  C   UNL     1       4.686   5.671  16.795  0.00  0.00    +0.000 A 
ENDBRANCH  24  25
ENDBRANCH  21  24
ENDBRANCH  16  18
ENDBRANCH   4  16
TORSDOF 4
ENDMDL
MODEL 3
REMARK VINA RESULT:      -8.3      2.284      8.145
REMARK  Name = 
REMARK  4 active torsions:
REMARK  status: ('A' for Active; 'I' for Inactive)
REMARK    1  A    between atoms: C_4  and  N_5
REMARK    2  A    between atoms: N_5  and  C_6
REMARK    3  A    between atoms: N_9  and  C_10
REMARK    4  A    between atoms: C_10  and  C_11
REMARK                            x       y       z     vdW  Elec       q    Type
REMARK                         _______ _______ _______ _____ _____    ______ ____
ROOT
ATOM      1  O   UNL     1       8.282   7.229  18.541  0.00  0.00    +0.000 OA
ATOM      2  C   UNL     1       7.431   6.535  18.016  0.00  0.00    +0.000 A 
ATOM      3  C   UNL     1       6.307   6.009  18.786  0.00  0.00    +0.000 A 
ATOM      4  C   UNL     1       5.306   5.262  18.299  0.00  0.00    +0.000 A 
ATOM      5  C   UNL     1       5.440   4.838  16.873  0.00  0.00    +0.000 A 
ATOM      6  C   UNL     1       4.597   3.933  16.215  0.00  0.00    +0.000 A 
ATOM      7  C   UNL     1       4.828   3.556  14.874  0.00  0.00    +0.000 A 
ATOM      8  C   UNL     1       5.906   4.082  14.130  0.00  0.00    +0.000 A 
ATOM      9  C   UNL     1       6.153   3.720  12.790  0.00  0.00    +0.000 A 
ATOM     10  C   UNL     1       7.238   4.260  12.081  0.00  0.00    +0.000 A 
ATOM     11  C   UNL     1       8.088   5.164  12.705  0.00  0.00    +0.000 A 
ATOM     12  C   UNL     1       7.853   5.528  14.027  0.00  0.00    +0.000 A 
ATOM     13  C   UNL     1       6.763   4.998  14.759  0.00  0.00    +0.000 A 
ATOM     14  C   UNL     1       6.509   5.343  16.109  0.00  0.00    +0.000 A 
ATOM     15  O   UNL     1       7.445   6.239  16.677  0.00  0.00    +0.000 OA
ENDROOT
BRANCH   4  16
ATOM     16  N   UNL     1       4.200   4.888  19.065  0.00  0.00    +0.000 N 
ATOM     17  H   UNL     1       4.345   4.959  20.069  0.00  0.00    +0.000 HD
BRANCH  16  18
ATOM     18  C   UNL     1       2.776   4.925  18.655  0.00  0.00    +0.000 C 
ATOM     19  C   UNL     1       2.378   6.287  18.079  0.00  0.00    +0.000 C 
ATOM     20  C   UNL     1       2.375   7.385  19.143  0.00  0.00    +0.000 C 
ATOM     21  N   UNL     1       1.657   7.066  20.379  0.00  0.00    +0.000 NA
ATOM     22  C   UNL     1       1.831   5.702  20.874  0.00  0.00    +0.000 C 
ATOM     23  C   UNL     1       1.792   4.634  19.791  0.00  0.00    +0.000 C 
BRANCH  21  24
ATOM     24  C   UNL     1       1.889   8.062  21.450  0.00  0.00    +0.000 C 
BRANCH  24  25
ATOM     25  C   UNL     1       0.830   9.143  21.627  0.00  0.00    +0.000 A 
ATOM     26  C   UNL     1       0.264   9.373  22.893  0.00  0.00    +0.000 A 
ATOM     27  C   UNL     1      -0.727  10.340  23.072  0.00  0.00    +0.000 A 
ATOM     28  C   UNL     1      -1.154  11.107  21.992  0.00  0.00    +0.000 A 
ATOM     29  C   UNL     1      -0.601  10.896  20.730  0.00  0.00    +0.000 A 
ATOM     30  C   UNL     1       0.384   9.921  20.549  0.00  0.00    +0.000 A 
ENDBRANCH  24  25
ENDBRANCH  21  24
ENDBRANCH  16  18
ENDBRANCH   4  16
TORSDOF 4
ENDMDL
MODEL 4
REMARK VINA RESULT:      -7.9      3.014      8.230
REMARK  Name = 
REMARK  4 active torsions:
REMARK  status: ('A' for Active; 'I' for Inactive)
REMARK    1  A    between atoms: C_4  and  N_5
REMARK    2  A    between atoms: N_5  and  C_6
REMARK    3  A    between atoms: N_9  and  C_10
REMARK    4  A    between atoms: C_10  and  C_11
REMARK                            x       y       z     vdW  Elec       q    Type
REMARK                         _______ _______ _______ _____ _____    ______ ____
ROOT
ATOM      1  O   UNL     1       1.499   4.011  21.180  0.00  0.00    +0.000 OA
ATOM      2  C   UNL     1       1.943   4.889  20.464  0.00  0.00    +0.000 A 
ATOM      3  C   UNL     1       1.518   6.277  20.622  0.00  0.00    +0.000 A 
ATOM      4  C   UNL     1       1.966   7.319  19.907  0.00  0.00    +0.000 A 
ATOM      5  C   UNL     1       2.879   6.990  18.772  0.00  0.00    +0.000 A 
ATOM      6  C   UNL     1       3.333   7.900  17.809  0.00  0.00    +0.000 A 
ATOM      7  C   UNL     1       4.162   7.487  16.742  0.00  0.00    +0.000 A 
ATOM      8  C   UNL     1       4.582   6.148  16.604  0.00  0.00    +0.000 A 
ATOM      9  C   UNL     1       5.411   5.715  15.548  0.00  0.00    +0.000 A 
ATOM     10  C   UNL     1       5.806   4.373  15.439  0.00  0.00    +0.000 A 
ATOM     11  C   UNL     1       5.377   3.448  16.383  0.00  0.00    +0.000 A 
ATOM     12  C   UNL     1       4.560   3.864  17.429  0.00  0.00    +0.000 A 
ATOM     13  C   UNL     1       4.152   5.213  17.559  0.00  0.00    +0.000 A 
ATOM     14  C   UNL     1       3.311   5.660  18.607  0.00  0.00    +0.000 A 
ATOM     15  O   UNL     1       2.890   4.647  19.501  0.00  0.00    +0.000 OA
ENDROOT
BRANCH   4  16
ATOM     16  N   UNL     1       1.605   8.640  20.187  0.00  0.00    +0.000 N 
ATOM     17  H   UNL     1       2.390   9.250  20.399  0.00  0.00    +0.000 HD
BRANCH  16  18
ATOM     18  C   UNL     1       0.393   9.353  19.717  0.00  0.00    +0.000 C 
ATOM     19  C   UNL     1       0.669  10.197  18.470  0.00  0.00    +0.000 C 
ATOM     20  C   UNL     1       1.578  11.389  18.769  0.00  0.00    +0.000 C 
ATOM     21  N   UNL     1       1.194  12.203  19.924  0.00  0.00    +0.000 NA
ATOM     22  C   UNL     1       0.719  11.459  21.089  0.00  0.00    +0.000 C 
ATOM     23  C   UNL     1      -0.213  10.302  20.754  0.00  0.00    +0.000 C 
BRANCH  21  24
ATOM     24  C   UNL     1       2.232  13.189  20.303  0.00  0.00    +0.000 C 
BRANCH  24  25
ATOM     25  C   UNL     1       2.482  14.335  19.329  0.00  0.00    +0.000 A 
ATOM     26  C   UNL     1       1.579  15.410  19.262  0.00  0.00    +0.000 A 
ATOM     27  C   UNL     1       1.775  16.457  18.360  0.00  0.00    +0.000 A 
ATOM     28  C   UNL     1       2.887  16.455  17.522  0.00  0.00    +0.000 A 
ATOM     29  C   UNL     1       3.795  15.400  17.578  0.00  0.00    +0.000 A 
ATOM     30  C   UNL     1       3.594  14.347  18.475  0.00  0.00    +0.000 A 
ENDBRANCH  24  25
ENDBRANCH  21  24
ENDBRANCH  16  18
ENDBRANCH   4  16
TORSDOF 4
ENDMDL
MODEL 5
REMARK VINA RESULT:      -7.9      2.603      8.121
REMARK  Name = 
REMARK  4 active torsions:
REMARK  status: ('A' for Active; 'I' for Inactive)
REMARK    1  A    between atoms: C_4  and  N_5
REMARK    2  A    between atoms: N_5  and  C_6
REMARK    3  A    between atoms: N_9  and  C_10
REMARK    4  A    between atoms: C_10  and  C_11
REMARK                            x       y       z     vdW  Elec       q    Type
REMARK                         _______ _______ _______ _____ _____    ______ ____
ROOT
ATOM      1  O   UNL     1       1.865   3.210  20.683  0.00  0.00    +0.000 OA
ATOM      2  C   UNL     1       2.282   4.187  20.089  0.00  0.00    +0.000 A 
ATOM      3  C   UNL     1       1.851   5.533  20.458  0.00  0.00    +0.000 A 
ATOM      4  C   UNL     1       2.270   6.672  19.889  0.00  0.00    +0.000 A 
ATOM      5  C   UNL     1       3.154   6.520  18.694  0.00  0.00    +0.000 A 
ATOM      6  C   UNL     1       3.574   7.565  17.861  0.00  0.00    +0.000 A 
ATOM      7  C   UNL     1       4.376   7.319  16.724  0.00  0.00    +0.000 A 
ATOM      8  C   UNL     1       4.803   6.019  16.383  0.00  0.00    +0.000 A 
ATOM      9  C   UNL     1       5.605   5.752  15.255  0.00  0.00    +0.000 A 
ATOM     10  C   UNL     1       6.007   4.445  14.943  0.00  0.00    +0.000 A 
ATOM     11  C   UNL     1       5.612   3.389  15.754  0.00  0.00    +0.000 A 
ATOM     12  C   UNL     1       4.821   3.641  16.870  0.00  0.00    +0.000 A 
ATOM     13  C   UNL     1       4.406   4.952  17.205  0.00  0.00    +0.000 A 
ATOM     14  C   UNL     1       3.591   5.234  18.328  0.00  0.00    +0.000 A 
ATOM     15  O   UNL     1       3.203   4.097  19.077  0.00  0.00    +0.000 OA
ENDROOT
BRANCH   4  16
ATOM     16  N   UNL     1       1.908   7.934  20.366  0.00  0.00    +0.000 N 
ATOM     17  H   UNL     1       1.887   8.659  19.653  0.00  0.00    +0.000 HD
BRANCH  16  18
ATOM     18  C   UNL     1       1.078   8.234  21.558  0.00  0.00    +0.000 C 
ATOM     19  C   UNL     1      -0.419   8.212  21.238  0.00  0.00    +0.000 C 
ATOM     20  C   UNL     1      -0.832   9.370  20.330  0.00  0.00    +0.000 C 
ATOM     21  N   UNL     1      -0.366  10.695  20.744  0.00  0.00    +0.000 NA
ATOM     22  C   UNL     1       1.000  10.749  21.259  0.00  0.00    +0.000 C 
ATOM     23  C   UNL     1       1.364   9.599  22.188  0.00  0.00    +0.000 C 
BRANCH  21  24
ATOM     24  C   UNL     1      -0.593  11.732  19.710  0.00  0.00    +0.000 C 
BRANCH  24  25
ATOM     25  C   UNL     1      -1.875  11.623  18.894  0.00  0.00    +0.000 A 
ATOM     26  C   UNL     1      -3.095  12.059  19.439  0.00  0.00    +0.000 A 
ATOM     27  C   UNL     1      -4.285  11.944  18.719  0.00  0.00    +0.000 A 
ATOM     28  C   UNL     1      -4.272  11.408  17.434  0.00  0.00    +0.000 A 
ATOM     29  C   UNL     1      -3.071  10.974  16.876  0.00  0.00    +0.000 A 
ATOM     30  C   UNL     1      -1.881  11.080  17.601  0.00  0.00    +0.000 A 
ENDBRANCH  24  25
ENDBRANCH  21  24
ENDBRANCH  16  18
ENDBRANCH   4  16
TORSDOF 4
ENDMDL
MODEL 6
REMARK VINA RESULT:      -7.8      1.559      2.088
REMARK  Name = 
REMARK  4 active torsions:
REMARK  status: ('A' for Active; 'I' for Inactive)
REMARK    1  A    between atoms: C_4  and  N_5
REMARK    2  A    between atoms: N_5  and  C_6
REMARK    3  A    between atoms: N_9  and  C_10
REMARK    4  A    between atoms: C_10  and  C_11
REMARK                            x       y       z     vdW  Elec       q    Type
REMARK                         _______ _______ _______ _____ _____    ______ ____
ROOT
ATOM      1  O   UNL     1       2.256  10.207  17.248  0.00  0.00    +0.000 OA
ATOM      2  C   UNL     1       1.919   9.786  18.339  0.00  0.00    +0.000 A 
ATOM      3  C   UNL     1       2.239   8.421  18.750  0.00  0.00    +0.000 A 
ATOM      4  C   UNL     1       1.939   7.871  19.935  0.00  0.00    +0.000 A 
ATOM      5  C   UNL     1       1.093   8.699  20.847  0.00  0.00    +0.000 A 
ATOM      6  C   UNL     1       0.537   8.261  22.055  0.00  0.00    +0.000 A 
ATOM      7  C   UNL     1      -0.289   9.104  22.831  0.00  0.00    +0.000 A 
ATOM      8  C   UNL     1      -0.580  10.426  22.436  0.00  0.00    +0.000 A 
ATOM      9  C   UNL     1      -1.401  11.285  23.196  0.00  0.00    +0.000 A 
ATOM     10  C   UNL     1      -1.674  12.593  22.771  0.00  0.00    +0.000 A 
ATOM     11  C   UNL     1      -1.131  13.059  21.580  0.00  0.00    +0.000 A 
ATOM     12  C   UNL     1      -0.320  12.220  20.822  0.00  0.00    +0.000 A 
ATOM     13  C   UNL     1      -0.030  10.898  21.234  0.00  0.00    +0.000 A 
ATOM     14  C   UNL     1       0.783  10.021  20.475  0.00  0.00    +0.000 A 
ATOM     15  O   UNL     1       1.262  10.562  19.259  0.00  0.00    +0.000 OA
ENDROOT
BRANCH   4  16
ATOM     16  N   UNL     1       2.376   6.598  20.311  0.00  0.00    +0.000 N 
ATOM     17  H   UNL     1       2.686   6.532  21.277  0.00  0.00    +0.000 HD
BRANCH  16  18
ATOM     18  C   UNL     1       1.969   5.303  19.716  0.00  0.00    +0.000 C 
ATOM     19  C   UNL     1       2.868   4.151  20.173  0.00  0.00    +0.000 C 
ATOM     20  C   UNL     1       4.285   4.267  19.609  0.00  0.00    +0.000 C 
ATOM     21  N   UNL     1       4.374   4.511  18.168  0.00  0.00    +0.000 NA
ATOM     22  C   UNL     1       3.397   5.455  17.628  0.00  0.00    +0.000 C 
ATOM     23  C   UNL     1       1.991   5.285  18.185  0.00  0.00    +0.000 C 
BRANCH  21  24
ATOM     24  C   UNL     1       5.748   4.848  17.727  0.00  0.00    +0.000 C 
BRANCH  24  25
ATOM     25  C   UNL     1       6.064   4.650  16.250  0.00  0.00    +0.000 A 
ATOM     26  C   UNL     1       7.156   5.317  15.669  0.00  0.00    +0.000 A 
ATOM     27  C   UNL     1       7.448   5.171  14.311  0.00  0.00    +0.000 A 
ATOM     28  C   UNL     1       6.665   4.338  13.517  0.00  0.00    +0.000 A 
ATOM     29  C   UNL     1       5.581   3.664  14.077  0.00  0.00    +0.000 A 
ATOM     30  C   UNL     1       5.283   3.819  15.434  0.00  0.00    +0.000 A 
ENDBRANCH  24  25
ENDBRANCH  21  24
ENDBRANCH  16  18
ENDBRANCH   4  16
TORSDOF 4
ENDMDL
MODEL 7
REMARK VINA RESULT:      -7.8      2.867      8.362
REMARK  Name = 
REMARK  4 active torsions:
REMARK  status: ('A' for Active; 'I' for Inactive)
REMARK    1  A    between atoms: C_4  and  N_5
REMARK    2  A    between atoms: N_5  and  C_6
REMARK    3  A    between atoms: N_9  and  C_10
REMARK    4  A    between atoms: C_10  and  C_11
REMARK                            x       y       z     vdW  Elec       q    Type
REMARK                         _______ _______ _______ _____ _____    ______ ____
ROOT
ATOM      1  O   UNL     1       1.598   3.870  21.200  0.00  0.00    +0.000 OA
ATOM      2  C   UNL     1       2.013   4.775  20.500  0.00  0.00    +0.000 A 
ATOM      3  C   UNL     1       1.563   6.150  20.701  0.00  0.00    +0.000 A 
ATOM      4  C   UNL     1       1.978   7.219  20.007  0.00  0.00    +0.000 A 
ATOM      5  C   UNL     1       2.880   6.938  18.850  0.00  0.00    +0.000 A 
ATOM      6  C   UNL     1       3.300   7.882  17.904  0.00  0.00    +0.000 A 
ATOM      7  C   UNL     1       4.121   7.514  16.815  0.00  0.00    +0.000 A 
ATOM      8  C   UNL     1       4.567   6.187  16.636  0.00  0.00    +0.000 A 
ATOM      9  C   UNL     1       5.388   5.799  15.557  0.00  0.00    +0.000 A 
ATOM     10  C   UNL     1       5.809   4.469  15.408  0.00  0.00    +0.000 A 
ATOM     11  C   UNL     1       5.413   3.512  16.333  0.00  0.00    +0.000 A 
ATOM     12  C   UNL     1       4.604   3.884  17.401  0.00  0.00    +0.000 A 
ATOM     13  C   UNL     1       4.170   5.220  17.573  0.00  0.00    +0.000 A 
ATOM     14  C   UNL     1       3.336   5.623  18.645  0.00  0.00    +0.000 A 
ATOM     15  O   UNL     1       2.950   4.578  19.517  0.00  0.00    +0.000 OA
ENDROOT
BRANCH   4  16
ATOM     16  N   UNL     1       1.594   8.524  20.326  0.00  0.00    +0.000 N 
ATOM     17  H   UNL     1       2.372   9.166  20.458  0.00  0.00    +0.000 HD
BRANCH  16  18
ATOM     18  C   UNL     1       0.313   9.187  19.986  0.00  0.00    +0.000 C 
ATOM     19  C   UNL     1       0.373   9.897  18.631  0.00  0.00    +0.000 C 
ATOM     20  C   UNL     1       1.300  11.112  18.657  0.00  0.00    +0.000 C 
ATOM     21  N   UNL     1       1.092  12.042  19.769  0.00  0.00    +0.000 NA
ATOM     22  C   UNL     1       0.821  11.422  21.065  0.00  0.00    +0.000 C 
ATOM     23  C   UNL     1      -0.135  10.239  21.004  0.00  0.00    +0.000 C 
BRANCH  21  24
ATOM     24  C   UNL     1       2.163  13.060  19.874  0.00  0.00    +0.000 C 
BRANCH  24  25
ATOM     25  C   UNL     1       1.878  14.425  19.258  0.00  0.00    +0.000 A 
ATOM     26  C   UNL     1       2.895  15.116  18.578  0.00  0.00    +0.000 A 
ATOM     27  C   UNL     1       2.663  16.378  18.029  0.00  0.00    +0.000 A 
ATOM     28  C   UNL     1       1.403  16.962  18.134  0.00  0.00    +0.000 A 
ATOM     29  C   UNL     1       0.381  16.289  18.800  0.00  0.00    +0.000 A 
ATOM     30  C   UNL     1       0.616  15.029  19.358  0.00  0.00    +0.000 A 
ENDBRANCH  24  25
ENDBRANCH  21  24
ENDBRANCH  16  18
ENDBRANCH   4  16
TORSDOF 4
ENDMDL
MODEL 8
REMARK VINA RESULT:      -7.7      5.608     10.430
REMARK  Name = 
REMARK  4 active torsions:
REMARK  status: ('A' for Active; 'I' for Inactive)
REMARK    1  A    between atoms: C_4  and  N_5
REMARK    2  A    between atoms: N_5  and  C_6
REMARK    3  A    between atoms: N_9  and  C_10
REMARK    4  A    between atoms: C_10  and  C_11
REMARK                            x       y       z     vdW  Elec       q    Type
REMARK                         _______ _______ _______ _____ _____    ______ ____
ROOT
ATOM      1  O   UNL     1      -2.729   9.725  14.799  0.00  0.00    +0.000 OA
ATOM      2  C   UNL     1      -2.841  10.259  15.887  0.00  0.00    +0.000 A 
ATOM      3  C   UNL     1      -3.975  11.130  16.185  0.00  0.00    +0.000 A 
ATOM      4  C   UNL     1      -4.206  11.740  17.356  0.00  0.00    +0.000 A 
ATOM      5  C   UNL     1      -3.133  11.607  18.387  0.00  0.00    +0.000 A 
ATOM      6  C   UNL     1      -3.098  12.288  19.611  0.00  0.00    +0.000 A 
ATOM      7  C   UNL     1      -2.017  12.131  20.506  0.00  0.00    +0.000 A 
ATOM      8  C   UNL     1      -0.933  11.274  20.220  0.00  0.00    +0.000 A 
ATOM      9  C   UNL     1       0.155  11.102  21.100  0.00  0.00    +0.000 A 
ATOM     10  C   UNL     1       1.218  10.245  20.781  0.00  0.00    +0.000 A 
ATOM     11  C   UNL     1       1.208   9.551  19.578  0.00  0.00    +0.000 A 
ATOM     12  C   UNL     1       0.140   9.713  18.701  0.00  0.00    +0.000 A 
ATOM     13  C   UNL     1      -0.945  10.571  19.005  0.00  0.00    +0.000 A 
ATOM     14  C   UNL     1      -2.038  10.762  18.126  0.00  0.00    +0.000 A 
ATOM     15  O   UNL     1      -1.949  10.048  16.907  0.00  0.00    +0.000 OA
ENDROOT
BRANCH   4  16
ATOM     16  N   UNL     1      -5.371  12.468  17.613  0.00  0.00    +0.000 N 
ATOM     17  H   UNL     1      -5.382  13.396  17.198  0.00  0.00    +0.000 HD
BRANCH  16  18
ATOM     18  C   UNL     1      -6.716  11.923  17.914  0.00  0.00    +0.000 C 
ATOM     19  C   UNL     1      -7.778  13.023  17.996  0.00  0.00    +0.000 C 
ATOM     20  C   UNL     1      -7.580  13.926  19.214  0.00  0.00    +0.000 C 
ATOM     21  N   UNL     1      -7.389  13.234  20.490  0.00  0.00    +0.000 NA
ATOM     22  C   UNL     1      -6.544  12.043  20.439  0.00  0.00    +0.000 C 
ATOM     23  C   UNL     1      -6.795  11.149  19.233  0.00  0.00    +0.000 C 
BRANCH  21  24
ATOM     24  C   UNL     1      -6.969  14.145  21.580  0.00  0.00    +0.000 C 
BRANCH  24  25
ATOM     25  C   UNL     1      -5.957  13.601  22.581  0.00  0.00    +0.000 A 
ATOM     26  C   UNL     1      -6.384  12.783  23.640  0.00  0.00    +0.000 A 
ATOM     27  C   UNL     1      -5.478  12.296  24.583  0.00  0.00    +0.000 A 
ATOM     28  C   UNL     1      -4.124  12.603  24.471  0.00  0.00    +0.000 A 
ATOM     29  C   UNL     1      -3.681  13.408  23.424  0.00  0.00    +0.000 A 
ATOM     30  C   UNL     1      -4.591  13.905  22.486  0.00  0.00    +0.000 A 
ENDBRANCH  24  25
ENDBRANCH  21  24
ENDBRANCH  16  18
ENDBRANCH   4  16
TORSDOF 4
ENDMDL
MODEL 9
REMARK VINA RESULT:      -7.6      2.257      8.578
REMARK  Name = 
REMARK  4 active torsions:
REMARK  status: ('A' for Active; 'I' for Inactive)
REMARK    1  A    between atoms: C_4  and  N_5
REMARK    2  A    between atoms: N_5  and  C_6
REMARK    3  A    between atoms: N_9  and  C_10
REMARK    4  A    between atoms: C_10  and  C_11
REMARK                            x       y       z     vdW  Elec       q    Type
REMARK                         _______ _______ _______ _____ _____    ______ ____
ROOT
ATOM      1  O   UNL     1       5.174   6.948  15.805  0.00  0.00    +0.000 OA
ATOM      2  C   UNL     1       4.361   6.765  16.692  0.00  0.00    +0.000 A 
ATOM      3  C   UNL     1       3.709   7.889  17.360  0.00  0.00    +0.000 A 
ATOM      4  C   UNL     1       2.783   7.795  18.324  0.00  0.00    +0.000 A 
ATOM      5  C   UNL     1       2.504   6.418  18.833  0.00  0.00    +0.000 A 
ATOM      6  C   UNL     1       1.696   6.112  19.935  0.00  0.00    +0.000 A 
ATOM      7  C   UNL     1       1.525   4.779  20.370  0.00  0.00    +0.000 A 
ATOM      8  C   UNL     1       2.143   3.697  19.710  0.00  0.00    +0.000 A 
ATOM      9  C   UNL     1       1.984   2.359  20.127  0.00  0.00    +0.000 A 
ATOM     10  C   UNL     1       2.618   1.307  19.449  0.00  0.00    +0.000 A 
ATOM     11  C   UNL     1       3.419   1.579  18.348  0.00  0.00    +0.000 A 
ATOM     12  C   UNL     1       3.584   2.895  17.928  0.00  0.00    +0.000 A 
ATOM     13  C   UNL     1       2.951   3.971  18.596  0.00  0.00    +0.000 A 
ATOM     14  C   UNL     1       3.111   5.320  18.196  0.00  0.00    +0.000 A 
ATOM     15  O   UNL     1       3.974   5.511  17.090  0.00  0.00    +0.000 OA
ENDROOT
BRANCH   4  16
ATOM     16  N   UNL     1       2.114   8.908  18.841  0.00  0.00    +0.000 N 
ATOM     17  H   UNL     1       2.465   9.224  19.741  0.00  0.00    +0.000 HD
BRANCH  16  18
ATOM     18  C   UNL     1       1.388   9.949  18.075  0.00  0.00    +0.000 C 
ATOM     19  C   UNL     1       1.735  11.362  18.552  0.00  0.00    +0.000 C 
ATOM     20  C   UNL     1       1.199  11.644  19.956  0.00  0.00    +0.000 C 
ATOM     21  N   UNL     1      -0.210  11.308  20.175  0.00  0.00    +0.000 NA
ATOM     22  C   UNL     1      -0.661  10.059  19.562  0.00  0.00    +0.000 C 
ATOM     23  C   UNL     1      -0.136   9.830  18.152  0.00  0.00    +0.000 C 
BRANCH  21  24
ATOM     24  C   UNL     1      -0.602  11.379  21.601  0.00  0.00    +0.000 C 
BRANCH  24  25
ATOM     25  C   UNL     1      -1.927  12.063  21.917  0.00  0.00    +0.000 A 
ATOM     26  C   UNL     1      -2.621  12.753  20.908  0.00  0.00    +0.000 A 
ATOM     27  C   UNL     1      -3.823  13.408  21.182  0.00  0.00    +0.000 A 
ATOM     28  C   UNL     1      -4.361  13.367  22.465  0.00  0.00    +0.000 A 
ATOM     29  C   UNL     1      -3.690  12.683  23.477  0.00  0.00    +0.000 A 
ATOM     30  C   UNL     1      -2.481  12.036  23.205  0.00  0.00    +0.000 A 
ENDBRANCH  24  25
ENDBRANCH  21  24
ENDBRANCH  16  18
ENDBRANCH   4  16
TORSDOF 4
ENDMDL
