MODEL 1
REMARK VINA RESULT:      -6.0      0.000      0.000
REMARK  Name = 
REMARK  3 active torsions:
REMARK  status: ('A' for Active; 'I' for Inactive)
REMARK    1  A    between atoms: C_1  and  C_2
REMARK    2  A    between atoms: C_4  and  C_5
REMARK    3  A    between atoms: C_13  and  C_14
REMARK                            x       y       z     vdW  Elec       q    Type
REMARK                         _______ _______ _______ _____ _____    ______ ____
ROOT
ATOM      1  C   UNL     1       3.709   5.434  18.140  0.00  0.00    +0.000 C 
ATOM      2  O   UNL     1       3.294   6.593  18.121  0.00  0.00    +0.000 OA
ATOM      3  N   UNL     1       3.030   4.443  18.874  0.00  0.00    +0.000 N 
ATOM      4  C   UNL     1       3.505   3.068  19.086  0.00  0.00    +0.000 C 
ATOM      5  C   UNL     1       3.395   2.599  20.539  0.00  0.00    +0.000 C 
ATOM      6  S   UNL     1       1.697   2.683  21.179  0.00  0.00    +0.000 S 
ATOM      7  C   UNL     1       1.377   4.426  20.760  0.00  0.00    +0.000 C 
ATOM      8  C   UNL     1       1.649   4.716  19.285  0.00  0.00    +0.000 C 
ENDROOT
BRANCH   1  12
ATOM      9  C   UNL     1       6.301   3.899  14.191  0.00  0.00    +0.000 C 
ATOM     10  C   UNL     1       6.049   4.391  15.571  0.00  0.00    +0.000 A 
ATOM     11  N   UNL     1       4.860   4.693  16.035  0.00  0.00    +0.000 NA
ATOM     12  C   UNL     1       4.925   5.063  17.383  0.00  0.00    +0.000 A 
ATOM     13  C   UNL     1       6.224   5.118  17.880  0.00  0.00    +0.000 A 
ATOM     14  C   UNL     1       6.750   5.524  19.215  0.00  0.00    +0.000 C 
ATOM     15  S   UNL     1       7.338   4.602  16.673  0.00  0.00    +0.000 S 
ENDBRANCH   1  12
TORSDOF 1
ENDMDL
MODEL 2
REMARK VINA RESULT:      -5.7      1.880      5.446
REMARK  Name = 
REMARK  3 active torsions:
REMARK  status: ('A' for Active; 'I' for Inactive)
REMARK    1  A    between atoms: C_1  and  C_2
REMARK    2  A    between atoms: C_4  and  C_5
REMARK    3  A    between atoms: C_13  and  C_14
REMARK                            x       y       z     vdW  Elec       q    Type
REMARK                         _______ _______ _______ _____ _____    ______ ____
ROOT
ATOM      1  C   UNL     1       5.364   4.964  19.011  0.00  0.00    +0.000 C 
ATOM      2  O   UNL     1       6.219   5.533  19.689  0.00  0.00    +0.000 OA
ATOM      3  N   UNL     1       5.665   4.512  17.712  0.00  0.00    +0.000 N 
ATOM      4  C   UNL     1       4.694   3.951  16.761  0.00  0.00    +0.000 C 
ATOM      5  C   UNL     1       4.813   4.532  15.350  0.00  0.00    +0.000 C 
ATOM      6  S   UNL     1       6.464   4.297  14.629  0.00  0.00    +0.000 S 
ATOM      7  C   UNL     1       7.419   5.028  15.996  0.00  0.00    +0.000 C 
ATOM      8  C   UNL     1       7.077   4.383  17.338  0.00  0.00    +0.000 C 
ENDROOT
BRANCH   1  12
ATOM      9  C   UNL     1       1.821   2.531  21.500  0.00  0.00    +0.000 C 
ATOM     10  C   UNL     1       2.453   3.618  20.707  0.00  0.00    +0.000 A 
ATOM     11  N   UNL     1       3.714   3.625  20.349  0.00  0.00    +0.000 NA
ATOM     12  C   UNL     1       4.006   4.740  19.555  0.00  0.00    +0.000 A 
ATOM     13  C   UNL     1       2.934   5.615  19.414  0.00  0.00    +0.000 A 
ATOM     14  C   UNL     1       2.823   6.933  18.725  0.00  0.00    +0.000 C 
ATOM     15  S   UNL     1       1.541   4.971  20.197  0.00  0.00    +0.000 S 
ENDBRANCH   1  12
TORSDOF 1
ENDMDL
MODEL 3
REMARK VINA RESULT:      -5.6      1.070      1.080
REMARK  Name = 
REMARK  3 active torsions:
REMARK  status: ('A' for Active; 'I' for Inactive)
REMARK    1  A    between atoms: C_1  and  C_2
REMARK    2  A    between atoms: C_4  and  C_5
REMARK    3  A    between atoms: C_13  and  C_14
REMARK                            x       y       z     vdW  Elec       q    Type
REMARK                         _______ _______ _______ _____ _____    ______ ____
ROOT
ATOM      1  C   UNL     1       4.198   5.654  17.572  0.00  0.00    +0.000 C 
ATOM      2  O   UNL     1       3.829   6.821  17.697  0.00  0.00    +0.000 OA
ATOM      3  N   UNL     1       3.650   4.639  18.380  0.00  0.00    +0.000 N 
ATOM      4  C   UNL     1       4.110   3.243  18.421  0.00  0.00    +0.000 C 
ATOM      5  C   UNL     1       4.283   2.697  19.840  0.00  0.00    +0.000 C 
ATOM      6  S   UNL     1       2.755   2.785  20.819  0.00  0.00    +0.000 S 
ATOM      7  C   UNL     1       2.417   4.555  20.562  0.00  0.00    +0.000 C 
ATOM      8  C   UNL     1       2.392   4.921  19.079  0.00  0.00    +0.000 C 
ENDROOT
BRANCH   1  12
ATOM      9  C   UNL     1       5.903   3.687  13.342  0.00  0.00    +0.000 C 
ATOM     10  C   UNL     1       5.935   4.417  14.636  0.00  0.00    +0.000 A 
ATOM     11  N   UNL     1       4.874   4.650  15.372  0.00  0.00    +0.000 NA
ATOM     12  C   UNL     1       5.221   5.297  16.564  0.00  0.00    +0.000 A 
ATOM     13  C   UNL     1       6.571   5.623  16.644  0.00  0.00    +0.000 A 
ATOM     14  C   UNL     1       7.344   6.362  17.683  0.00  0.00    +0.000 C 
ATOM     15  S   UNL     1       7.406   5.019  15.265  0.00  0.00    +0.000 S 
ENDBRANCH   1  12
TORSDOF 1
ENDMDL
MODEL 4
REMARK VINA RESULT:      -5.5      1.213      2.345
REMARK  Name = 
REMARK  3 active torsions:
REMARK  status: ('A' for Active; 'I' for Inactive)
REMARK    1  A    between atoms: C_1  and  C_2
REMARK    2  A    between atoms: C_4  and  C_5
REMARK    3  A    between atoms: C_13  and  C_14
REMARK                            x       y       z     vdW  Elec       q    Type
REMARK                         _______ _______ _______ _____ _____    ______ ____
ROOT
ATOM      1  C   UNL     1       3.555   5.176  18.278  0.00  0.00    +0.000 C 
ATOM      2  O   UNL     1       2.890   6.082  17.777  0.00  0.00    +0.000 OA
ATOM      3  N   UNL     1       2.933   4.170  19.041  0.00  0.00    +0.000 N 
ATOM      4  C   UNL     1       3.633   3.124  19.802  0.00  0.00    +0.000 C 
ATOM      5  C   UNL     1       3.096   2.938  21.224  0.00  0.00    +0.000 C 
ATOM      6  S   UNL     1       1.326   2.530  21.260  0.00  0.00    +0.000 S 
ATOM      7  C   UNL     1       0.746   3.927  20.246  0.00  0.00    +0.000 C 
ATOM      8  C   UNL     1       1.482   4.003  18.908  0.00  0.00    +0.000 C 
ENDROOT
BRANCH   1  12
ATOM      9  C   UNL     1       8.323   5.787  19.527  0.00  0.00    +0.000 C 
ATOM     10  C   UNL     1       7.152   5.398  18.699  0.00  0.00    +0.000 A 
ATOM     11  N   UNL     1       5.906   5.506  19.095  0.00  0.00    +0.000 NA
ATOM     12  C   UNL     1       5.020   5.126  18.080  0.00  0.00    +0.000 A 
ATOM     13  C   UNL     1       5.657   4.640  16.942  0.00  0.00    +0.000 A 
ATOM     14  C   UNL     1       5.112   4.075  15.675  0.00  0.00    +0.000 C 
ATOM     15  S   UNL     1       7.365   4.765  17.126  0.00  0.00    +0.000 S 
ENDBRANCH   1  12
TORSDOF 1
ENDMDL
MODEL 5
REMARK VINA RESULT:      -5.5      3.451      4.538
REMARK  Name = 
REMARK  3 active torsions:
REMARK  status: ('A' for Active; 'I' for Inactive)
REMARK    1  A    between atoms: C_1  and  C_2
REMARK    2  A    between atoms: C_4  and  C_5
REMARK    3  A    between atoms: C_13  and  C_14
REMARK                            x       y       z     vdW  Elec       q    Type
REMARK                         _______ _______ _______ _____ _____    ______ ____
ROOT
ATOM      1  C   UNL     1       2.351   6.200  19.901  0.00  0.00    +0.000 C 
ATOM      2  O   UNL     1       1.845   5.642  20.874  0.00  0.00    +0.000 OA
ATOM      3  N   UNL     1       2.095   7.561  19.644  0.00  0.00    +0.000 N 
ATOM      4  C   UNL     1       2.524   8.295  18.445  0.00  0.00    +0.000 C 
ATOM      5  C   UNL     1       1.418   9.150  17.822  0.00  0.00    +0.000 C 
ATOM      6  S   UNL     1       0.737  10.372  18.980  0.00  0.00    +0.000 S 
ATOM      7  C   UNL     1       0.339   9.216  20.329  0.00  0.00    +0.000 C 
ATOM      8  C   UNL     1       1.550   8.376  20.735  0.00  0.00    +0.000 C 
ENDROOT
BRANCH   1  12
ATOM      9  C   UNL     1       6.700   4.727  18.010  0.00  0.00    +0.000 C 
ATOM     10  C   UNL     1       5.226   4.800  18.189  0.00  0.00    +0.000 A 
ATOM     11  N   UNL     1       4.635   5.529  19.105  0.00  0.00    +0.000 NA
ATOM     12  C   UNL     1       3.243   5.451  18.989  0.00  0.00    +0.000 A 
ATOM     13  C   UNL     1       2.818   4.558  18.010  0.00  0.00    +0.000 A 
ATOM     14  C   UNL     1       1.451   4.121  17.603  0.00  0.00    +0.000 C 
ATOM     15  S   UNL     1       4.177   3.907  17.177  0.00  0.00    +0.000 S 
ENDBRANCH   1  12
TORSDOF 1
ENDMDL
MODEL 6
REMARK VINA RESULT:      -5.4      2.004      2.972
REMARK  Name = 
REMARK  3 active torsions:
REMARK  status: ('A' for Active; 'I' for Inactive)
REMARK    1  A    between atoms: C_1  and  C_2
REMARK    2  A    between atoms: C_4  and  C_5
REMARK    3  A    between atoms: C_13  and  C_14
REMARK                            x       y       z     vdW  Elec       q    Type
REMARK                         _______ _______ _______ _____ _____    ______ ____
ROOT
ATOM      1  C   UNL     1       4.428   3.880  17.520  0.00  0.00    +0.000 C 
ATOM      2  O   UNL     1       4.345   3.315  16.430  0.00  0.00    +0.000 OA
ATOM      3  N   UNL     1       3.486   3.623  18.534  0.00  0.00    +0.000 N 
ATOM      4  C   UNL     1       3.399   4.337  19.816  0.00  0.00    +0.000 C 
ATOM      5  C   UNL     1       1.976   4.762  20.185  0.00  0.00    +0.000 C 
ATOM      6  S   UNL     1       0.825   3.360  20.277  0.00  0.00    +0.000 S 
ATOM      7  C   UNL     1       1.168   2.670  18.628  0.00  0.00    +0.000 C 
ATOM      8  C   UNL     1       2.660   2.417  18.415  0.00  0.00    +0.000 C 
ENDROOT
BRANCH   1  12
ATOM      9  C   UNL     1       8.395   5.686  19.901  0.00  0.00    +0.000 C 
ATOM     10  C   UNL     1       7.324   5.596  18.875  0.00  0.00    +0.000 A 
ATOM     11  N   UNL     1       6.451   4.619  18.811  0.00  0.00    +0.000 NA
ATOM     12  C   UNL     1       5.526   4.837  17.784  0.00  0.00    +0.000 A 
ATOM     13  C   UNL     1       5.800   5.969  17.022  0.00  0.00    +0.000 A 
ATOM     14  C   UNL     1       5.129   6.528  15.814  0.00  0.00    +0.000 C 
ATOM     15  S   UNL     1       7.160   6.801  17.674  0.00  0.00    +0.000 S 
ENDBRANCH   1  12
TORSDOF 1
ENDMDL
MODEL 7
REMARK VINA RESULT:      -5.4      1.873      2.163
REMARK  Name = 
REMARK  3 active torsions:
REMARK  status: ('A' for Active; 'I' for Inactive)
REMARK    1  A    between atoms: C_1  and  C_2
REMARK    2  A    between atoms: C_4  and  C_5
REMARK    3  A    between atoms: C_13  and  C_14
REMARK                            x       y       z     vdW  Elec       q    Type
REMARK                         _______ _______ _______ _____ _____    ______ ____
ROOT
ATOM      1  C   UNL     1       2.888   3.766  17.410  0.00  0.00    +0.000 C 
ATOM      2  O   UNL     1       2.099   3.399  16.540  0.00  0.00    +0.000 OA
ATOM      3  N   UNL     1       2.721   3.357  18.746  0.00  0.00    +0.000 N 
ATOM      4  C   UNL     1       3.510   3.841  19.889  0.00  0.00    +0.000 C 
ATOM      5  C   UNL     1       2.659   4.226  21.101  0.00  0.00    +0.000 C 
ATOM      6  S   UNL     1       1.632   2.854  21.705  0.00  0.00    +0.000 S 
ATOM      7  C   UNL     1       0.828   2.453  20.121  0.00  0.00    +0.000 C 
ATOM      8  C   UNL     1       1.848   2.208  19.010  0.00  0.00    +0.000 C 
ENDROOT
BRANCH   1  12
ATOM      9  C   UNL     1       7.318   4.872  15.454  0.00  0.00    +0.000 C 
ATOM     10  C   UNL     1       6.020   5.091  16.144  0.00  0.00    +0.000 A 
ATOM     11  N   UNL     1       5.118   4.155  16.323  0.00  0.00    +0.000 NA
ATOM     12  C   UNL     1       4.032   4.638  17.062  0.00  0.00    +0.000 A 
ATOM     13  C   UNL     1       4.115   5.998  17.345  0.00  0.00    +0.000 A 
ATOM     14  C   UNL     1       3.166   6.919  18.034  0.00  0.00    +0.000 C 
ATOM     15  S   UNL     1       5.610   6.629  16.768  0.00  0.00    +0.000 S 
ENDBRANCH   1  12
TORSDOF 1
ENDMDL
MODEL 8
REMARK VINA RESULT:      -5.4      1.800      2.114
REMARK  Name = 
REMARK  3 active torsions:
REMARK  status: ('A' for Active; 'I' for Inactive)
REMARK    1  A    between atoms: C_1  and  C_2
REMARK    2  A    between atoms: C_4  and  C_5
REMARK    3  A    between atoms: C_13  and  C_14
REMARK                            x       y       z     vdW  Elec       q    Type
REMARK                         _______ _______ _______ _____ _____    ______ ____
ROOT
ATOM      1  C   UNL     1       4.880   4.178  18.574  0.00  0.00    +0.000 C 
ATOM      2  O   UNL     1       5.811   3.926  19.338  0.00  0.00    +0.000 OA
ATOM      3  N   UNL     1       3.546   4.018  18.996  0.00  0.00    +0.000 N 
ATOM      4  C   UNL     1       2.361   4.149  18.136  0.00  0.00    +0.000 C 
ATOM      5  C   UNL     1       1.348   3.015  18.312  0.00  0.00    +0.000 C 
ATOM      6  S   UNL     1       0.752   2.864  20.022  0.00  0.00    +0.000 S 
ATOM      7  C   UNL     1       2.382   2.759  20.826  0.00  0.00    +0.000 C 
ATOM      8  C   UNL     1       3.286   3.928  20.437  0.00  0.00    +0.000 C 
ENDROOT
BRANCH   1  12
ATOM      9  C   UNL     1       6.239   3.776  13.814  0.00  0.00    +0.000 C 
ATOM     10  C   UNL     1       5.746   4.421  15.059  0.00  0.00    +0.000 A 
ATOM     11  N   UNL     1       5.550   3.780  16.188  0.00  0.00    +0.000 NA
ATOM     12  C   UNL     1       5.148   4.658  17.201  0.00  0.00    +0.000 A 
ATOM     13  C   UNL     1       4.959   5.964  16.760  0.00  0.00    +0.000 A 
ATOM     14  C   UNL     1       4.479   7.184  17.471  0.00  0.00    +0.000 C 
ATOM     15  S   UNL     1       5.391   6.092  15.097  0.00  0.00    +0.000 S 
ENDBRANCH   1  12
TORSDOF 1
ENDMDL
MODEL 9
REMARK VINA RESULT:      -5.3      1.808      5.470
REMARK  Name = 
REMARK  3 active torsions:
REMARK  status: ('A' for Active; 'I' for Inactive)
REMARK    1  A    between atoms: C_1  and  C_2
REMARK    2  A    between atoms: C_4  and  C_5
REMARK    3  A    between atoms: C_13  and  C_14
REMARK                            x       y       z     vdW  Elec       q    Type
REMARK                         _______ _______ _______ _____ _____    ______ ____
ROOT
ATOM      1  C   UNL     1       5.696   4.894  18.974  0.00  0.00    +0.000 C 
ATOM      2  O   UNL     1       6.618   5.355  19.645  0.00  0.00    +0.000 OA
ATOM      3  N   UNL     1       5.899   4.540  17.626  0.00  0.00    +0.000 N 
ATOM      4  C   UNL     1       4.847   4.116  16.691  0.00  0.00    +0.000 C 
ATOM      5  C   UNL     1       4.923   4.810  15.329  0.00  0.00    +0.000 C 
ATOM      6  S   UNL     1       6.516   4.550  14.494  0.00  0.00    +0.000 S 
ATOM      7  C   UNL     1       7.585   5.107  15.858  0.00  0.00    +0.000 C 
ATOM      8  C   UNL     1       7.279   4.369  17.160  0.00  0.00    +0.000 C 
ENDROOT
BRANCH   1  12
ATOM      9  C   UNL     1       1.244   6.280  20.685  0.00  0.00    +0.000 C 
ATOM     10  C   UNL     1       2.357   5.368  20.312  0.00  0.00    +0.000 A 
ATOM     11  N   UNL     1       3.473   5.766  19.748  0.00  0.00    +0.000 NA
ATOM     12  C   UNL     1       4.359   4.696  19.576  0.00  0.00    +0.000 A 
ATOM     13  C   UNL     1       3.823   3.467  19.947  0.00  0.00    +0.000 A 
ATOM     14  C   UNL     1       4.380   2.086  19.869  0.00  0.00    +0.000 C 
ATOM     15  S   UNL     1       2.246   3.687  20.605  0.00  0.00    +0.000 S 
ENDBRANCH   1  12
TORSDOF 1
ENDMDL
