MODEL 1
REMARK VINA RESULT:      -5.8      0.000      0.000
REMARK  Name = 
REMARK  3 active torsions:
REMARK  status: ('A' for Active; 'I' for Inactive)
REMARK    1  A    between atoms: N_1  and  C_2
REMARK    2  A    between atoms: C_2  and  C_3
REMARK    3  A    between atoms: C_6  and  C_7
REMARK                            x       y       z     vdW  Elec       q    Type
REMARK                         _______ _______ _______ _____ _____    ______ ____
ROOT
ATOM      1  C   UNL     1       6.014   4.489  17.166  0.00  0.00    +0.000 A 
ATOM      2  C   UNL     1       5.023   3.957  16.368  0.00  0.00    +0.000 A 
ATOM      3  C   UNL     1       3.905   3.508  17.122  0.00  0.00    +0.000 A 
ATOM      4  C   UNL     1       4.058   3.709  18.482  0.00  0.00    +0.000 A 
ATOM      5  S   UNL     1       5.585   4.416  18.820  0.00  0.00    +0.000 S 
ENDROOT
BRANCH   4   6
ATOM      6  C   UNL     1       3.108   3.391  19.555  0.00  0.00    +0.000 A 
ATOM      7  C   UNL     1       1.769   3.790  19.463  0.00  0.00    +0.000 A 
ATOM      8  C   UNL     1       0.888   3.546  20.516  0.00  0.00    +0.000 A 
ATOM      9  C   UNL     1       1.374   2.902  21.640  0.00  0.00    +0.000 A 
ATOM     10  N   UNL     1       2.651   2.485  21.771  0.00  0.00    +0.000 NA
ATOM     11  C   UNL     1       3.483   2.740  20.730  0.00  0.00    +0.000 A 
ENDBRANCH   4   6
BRANCH   1  12
ATOM     12  C   UNL     1       7.323   5.070  16.739  0.00  0.00    +0.000 C 
BRANCH  12  13
ATOM     13  N   UNL     1       7.203   5.647  15.403  0.00  0.00    +0.000 NA
ATOM     14  H   UNL     1       8.011   6.240  15.223  0.00  0.00    +0.000 HD
ATOM     15  H   UNL     1       6.388   6.259  15.388  0.00  0.00    +0.000 HD
ENDBRANCH  12  13
ENDBRANCH   1  12
TORSDOF 3
ENDMDL
MODEL 2
REMARK VINA RESULT:      -5.8      1.202      5.739
REMARK  Name = 
REMARK  3 active torsions:
REMARK  status: ('A' for Active; 'I' for Inactive)
REMARK    1  A    between atoms: N_1  and  C_2
REMARK    2  A    between atoms: C_2  and  C_3
REMARK    3  A    between atoms: C_6  and  C_7
REMARK                            x       y       z     vdW  Elec       q    Type
REMARK                         _______ _______ _______ _____ _____    ______ ____
ROOT
ATOM      1  C   UNL     1       2.674   3.530  19.946  0.00  0.00    +0.000 A 
ATOM      2  C   UNL     1       2.583   2.450  19.093  0.00  0.00    +0.000 A 
ATOM      3  C   UNL     1       3.462   2.562  17.981  0.00  0.00    +0.000 A 
ATOM      4  C   UNL     1       4.215   3.722  18.007  0.00  0.00    +0.000 A 
ATOM      5  S   UNL     1       3.810   4.675  19.377  0.00  0.00    +0.000 S 
ENDROOT
BRANCH   4   6
ATOM      6  C   UNL     1       5.233   4.160  17.045  0.00  0.00    +0.000 A 
ATOM      7  C   UNL     1       4.954   4.186  15.673  0.00  0.00    +0.000 A 
ATOM      8  C   UNL     1       5.948   4.536  14.759  0.00  0.00    +0.000 A 
ATOM      9  C   UNL     1       7.202   4.857  15.247  0.00  0.00    +0.000 A 
ATOM     10  N   UNL     1       7.517   4.862  16.559  0.00  0.00    +0.000 NA
ATOM     11  C   UNL     1       6.529   4.514  17.422  0.00  0.00    +0.000 A 
ENDBRANCH   4   6
BRANCH   1  12
ATOM     12  C   UNL     1       1.924   3.761  21.217  0.00  0.00    +0.000 C 
BRANCH  12  13
ATOM     13  N   UNL     1       1.841   2.522  21.983  0.00  0.00    +0.000 NA
ATOM     14  H   UNL     1       2.588   2.506  22.674  0.00  0.00    +0.000 HD
ATOM     15  H   UNL     1       2.015   1.740  21.353  0.00  0.00    +0.000 HD
ENDBRANCH  12  13
ENDBRANCH   1  12
TORSDOF 3
ENDMDL
MODEL 3
REMARK VINA RESULT:      -5.7      1.956      2.227
REMARK  Name = 
REMARK  3 active torsions:
REMARK  status: ('A' for Active; 'I' for Inactive)
REMARK    1  A    between atoms: N_1  and  C_2
REMARK    2  A    between atoms: C_2  and  C_3
REMARK    3  A    between atoms: C_6  and  C_7
REMARK                            x       y       z     vdW  Elec       q    Type
REMARK                         _______ _______ _______ _____ _____    ______ ____
ROOT
ATOM      1  C   UNL     1       5.605   5.030  15.745  0.00  0.00    +0.000 A 
ATOM      2  C   UNL     1       5.313   6.330  16.100  0.00  0.00    +0.000 A 
ATOM      3  C   UNL     1       4.306   6.405  17.100  0.00  0.00    +0.000 A 
ATOM      4  C   UNL     1       3.848   5.160  17.496  0.00  0.00    +0.000 A 
ATOM      5  S   UNL     1       4.638   3.918  16.613  0.00  0.00    +0.000 S 
ENDROOT
BRANCH   4   6
ATOM      6  C   UNL     1       2.836   4.851  18.513  0.00  0.00    +0.000 A 
ATOM      7  C   UNL     1       2.764   5.595  19.697  0.00  0.00    +0.000 A 
ATOM      8  C   UNL     1       1.846   5.252  20.689  0.00  0.00    +0.000 A 
ATOM      9  C   UNL     1       1.016   4.168  20.466  0.00  0.00    +0.000 A 
ATOM     10  N   UNL     1       1.035   3.429  19.337  0.00  0.00    +0.000 NA
ATOM     11  C   UNL     1       1.942   3.787  18.393  0.00  0.00    +0.000 A 
ENDBRANCH   4   6
BRANCH   1  12
ATOM     12  C   UNL     1       6.609   4.554  14.746  0.00  0.00    +0.000 C 
BRANCH  12  13
ATOM     13  N   UNL     1       7.709   5.509  14.647  0.00  0.00    +0.000 NA
ATOM     14  H   UNL     1       7.369   6.436  14.894  0.00  0.00    +0.000 HD
ATOM     15  H   UNL     1       8.006   5.561  13.673  0.00  0.00    +0.000 HD
ENDBRANCH  12  13
ENDBRANCH   1  12
TORSDOF 3
ENDMDL
MODEL 4
REMARK VINA RESULT:      -5.7      2.265      2.468
REMARK  Name = 
REMARK  3 active torsions:
REMARK  status: ('A' for Active; 'I' for Inactive)
REMARK    1  A    between atoms: N_1  and  C_2
REMARK    2  A    between atoms: C_2  and  C_3
REMARK    3  A    between atoms: C_6  and  C_7
REMARK                            x       y       z     vdW  Elec       q    Type
REMARK                         _______ _______ _______ _____ _____    ______ ____
ROOT
ATOM      1  C   UNL     1       6.313   5.994  18.257  0.00  0.00    +0.000 A 
ATOM      2  C   UNL     1       5.491   6.583  17.320  0.00  0.00    +0.000 A 
ATOM      3  C   UNL     1       4.172   6.055  17.349  0.00  0.00    +0.000 A 
ATOM      4  C   UNL     1       4.007   5.074  18.310  0.00  0.00    +0.000 A 
ATOM      5  S   UNL     1       5.480   4.791  19.144  0.00  0.00    +0.000 S 
ENDROOT
BRANCH   4   6
ATOM      6  C   UNL     1       2.786   4.327  18.639  0.00  0.00    +0.000 A 
ATOM      7  C   UNL     1       2.065   4.615  19.804  0.00  0.00    +0.000 A 
ATOM      8  C   UNL     1       0.947   3.855  20.144  0.00  0.00    +0.000 A 
ATOM      9  C   UNL     1       0.575   2.822  19.302  0.00  0.00    +0.000 A 
ATOM     10  N   UNL     1       1.227   2.515  18.161  0.00  0.00    +0.000 NA
ATOM     11  C   UNL     1       2.312   3.271  17.859  0.00  0.00    +0.000 A 
ENDBRANCH   4   6
BRANCH   1  12
ATOM     12  C   UNL     1       7.751   6.292  18.534  0.00  0.00    +0.000 C 
BRANCH  12  13
ATOM     13  N   UNL     1       8.174   5.623  19.760  0.00  0.00    +0.000 NA
ATOM     14  H   UNL     1       9.161   5.813  19.920  0.00  0.00    +0.000 HD
ATOM     15  H   UNL     1       8.094   4.615  19.623  0.00  0.00    +0.000 HD
ENDBRANCH  12  13
ENDBRANCH   1  12
TORSDOF 3
ENDMDL
MODEL 5
REMARK VINA RESULT:      -5.7      1.667      5.883
REMARK  Name = 
REMARK  3 active torsions:
REMARK  status: ('A' for Active; 'I' for Inactive)
REMARK    1  A    between atoms: N_1  and  C_2
REMARK    2  A    between atoms: C_2  and  C_3
REMARK    3  A    between atoms: C_6  and  C_7
REMARK                            x       y       z     vdW  Elec       q    Type
REMARK                         _______ _______ _______ _____ _____    ______ ____
ROOT
ATOM      1  C   UNL     1       2.662   4.607  19.959  0.00  0.00    +0.000 A 
ATOM      2  C   UNL     1       2.520   5.907  19.523  0.00  0.00    +0.000 A 
ATOM      3  C   UNL     1       3.383   6.212  18.436  0.00  0.00    +0.000 A 
ATOM      4  C   UNL     1       4.166   5.137  18.054  0.00  0.00    +0.000 A 
ATOM      5  S   UNL     1       3.856   3.778  19.057  0.00  0.00    +0.000 S 
ENDROOT
BRANCH   4   6
ATOM      6  C   UNL     1       5.149   5.076  16.965  0.00  0.00    +0.000 A 
ATOM      7  C   UNL     1       5.011   4.143  15.931  0.00  0.00    +0.000 A 
ATOM      8  C   UNL     1       5.985   4.044  14.938  0.00  0.00    +0.000 A 
ATOM      9  C   UNL     1       7.076   4.891  15.005  0.00  0.00    +0.000 A 
ATOM     10  N   UNL     1       7.248   5.817  15.971  0.00  0.00    +0.000 NA
ATOM     11  C   UNL     1       6.284   5.886  16.925  0.00  0.00    +0.000 A 
ENDBRANCH   4   6
BRANCH   1  12
ATOM     12  C   UNL     1       1.923   3.922  21.062  0.00  0.00    +0.000 C 
BRANCH  12  13
ATOM     13  N   UNL     1       0.723   3.278  20.538  0.00  0.00    +0.000 NA
ATOM     14  H   UNL     1       0.684   3.416  19.530  0.00  0.00    +0.000 HD
ATOM     15  H   UNL     1      -0.093   3.750  20.925  0.00  0.00    +0.000 HD
ENDBRANCH  12  13
ENDBRANCH   1  12
TORSDOF 3
ENDMDL
MODEL 6
REMARK VINA RESULT:      -5.7      1.310      5.718
REMARK  Name = 
REMARK  3 active torsions:
REMARK  status: ('A' for Active; 'I' for Inactive)
REMARK    1  A    between atoms: N_1  and  C_2
REMARK    2  A    between atoms: C_2  and  C_3
REMARK    3  A    between atoms: C_6  and  C_7
REMARK                            x       y       z     vdW  Elec       q    Type
REMARK                         _______ _______ _______ _____ _____    ______ ____
ROOT
ATOM      1  C   UNL     1       2.359   3.772  19.916  0.00  0.00    +0.000 A 
ATOM      2  C   UNL     1       2.101   5.040  19.439  0.00  0.00    +0.000 A 
ATOM      3  C   UNL     1       3.035   5.445  18.447  0.00  0.00    +0.000 A 
ATOM      4  C   UNL     1       3.987   4.478  18.178  0.00  0.00    +0.000 A 
ATOM      5  S   UNL     1       3.742   3.098  19.170  0.00  0.00    +0.000 S 
ENDROOT
BRANCH   4   6
ATOM      6  C   UNL     1       5.086   4.537  17.207  0.00  0.00    +0.000 A 
ATOM      7  C   UNL     1       4.842   4.343  15.842  0.00  0.00    +0.000 A 
ATOM      8  C   UNL     1       5.900   4.332  14.933  0.00  0.00    +0.000 A 
ATOM      9  C   UNL     1       7.181   4.519  15.418  0.00  0.00    +0.000 A 
ATOM     10  N   UNL     1       7.467   4.725  16.720  0.00  0.00    +0.000 NA
ATOM     11  C   UNL     1       6.416   4.727  17.579  0.00  0.00    +0.000 A 
ENDBRANCH   4   6
BRANCH   1  12
ATOM     12  C   UNL     1       1.594   3.006  20.946  0.00  0.00    +0.000 C 
BRANCH  12  13
ATOM     13  N   UNL     1       2.473   2.635  22.050  0.00  0.00    +0.000 NA
ATOM     14  H   UNL     1       2.140   3.076  22.904  0.00  0.00    +0.000 HD
ATOM     15  H   UNL     1       3.400   3.020  21.869  0.00  0.00    +0.000 HD
ENDBRANCH  12  13
ENDBRANCH   1  12
TORSDOF 3
ENDMDL
MODEL 7
REMARK VINA RESULT:      -5.7      1.172      5.757
REMARK  Name = 
REMARK  3 active torsions:
REMARK  status: ('A' for Active; 'I' for Inactive)
REMARK    1  A    between atoms: N_1  and  C_2
REMARK    2  A    between atoms: C_2  and  C_3
REMARK    3  A    between atoms: C_6  and  C_7
REMARK                            x       y       z     vdW  Elec       q    Type
REMARK                         _______ _______ _______ _____ _____    ______ ____
ROOT
ATOM      1  C   UNL     1       2.066   3.293  19.796  0.00  0.00    +0.000 A 
ATOM      2  C   UNL     1       1.463   3.889  18.709  0.00  0.00    +0.000 A 
ATOM      3  C   UNL     1       2.401   4.272  17.711  0.00  0.00    +0.000 A 
ATOM      4  C   UNL     1       3.704   3.955  18.051  0.00  0.00    +0.000 A 
ATOM      5  S   UNL     1       3.764   3.223  19.602  0.00  0.00    +0.000 S 
ENDROOT
BRANCH   4   6
ATOM      6  C   UNL     1       4.923   4.179  17.263  0.00  0.00    +0.000 A 
ATOM      7  C   UNL     1       6.129   4.506  17.892  0.00  0.00    +0.000 A 
ATOM      8  C   UNL     1       7.265   4.785  17.133  0.00  0.00    +0.000 A 
ATOM      9  C   UNL     1       7.163   4.725  15.755  0.00  0.00    +0.000 A 
ATOM     10  N   UNL     1       6.029   4.400  15.101  0.00  0.00    +0.000 NA
ATOM     11  C   UNL     1       4.940   4.137  15.868  0.00  0.00    +0.000 A 
ENDBRANCH   4   6
BRANCH   1  12
ATOM     12  C   UNL     1       1.413   2.751  21.026  0.00  0.00    +0.000 C 
BRANCH  12  13
ATOM     13  N   UNL     1       2.263   2.983  22.189  0.00  0.00    +0.000 NA
ATOM     14  H   UNL     1       1.681   3.035  23.022  0.00  0.00    +0.000 HD
ATOM     15  H   UNL     1       2.705   3.897  22.089  0.00  0.00    +0.000 HD
ENDBRANCH  12  13
ENDBRANCH   1  12
TORSDOF 3
ENDMDL
MODEL 8
REMARK VINA RESULT:      -5.7      1.333      1.647
REMARK  Name = 
REMARK  3 active torsions:
REMARK  status: ('A' for Active; 'I' for Inactive)
REMARK    1  A    between atoms: N_1  and  C_2
REMARK    2  A    between atoms: C_2  and  C_3
REMARK    3  A    between atoms: C_6  and  C_7
REMARK                            x       y       z     vdW  Elec       q    Type
REMARK                         _______ _______ _______ _____ _____    ______ ____
ROOT
ATOM      1  C   UNL     1       6.254   4.374  16.405  0.00  0.00    +0.000 A 
ATOM      2  C   UNL     1       6.967   4.799  17.506  0.00  0.00    +0.000 A 
ATOM      3  C   UNL     1       6.207   4.722  18.705  0.00  0.00    +0.000 A 
ATOM      4  C   UNL     1       4.928   4.234  18.501  0.00  0.00    +0.000 A 
ATOM      5  S   UNL     1       4.666   3.907  16.836  0.00  0.00    +0.000 S 
ENDROOT
BRANCH   4   6
ATOM      6  C   UNL     1       3.880   4.000  19.501  0.00  0.00    +0.000 A 
ATOM      7  C   UNL     1       2.971   5.013  19.833  0.00  0.00    +0.000 A 
ATOM      8  C   UNL     1       2.023   4.806  20.834  0.00  0.00    +0.000 A 
ATOM      9  C   UNL     1       2.006   3.582  21.478  0.00  0.00    +0.000 A 
ATOM     10  N   UNL     1       2.849   2.570  21.185  0.00  0.00    +0.000 NA
ATOM     11  C   UNL     1       3.763   2.804  20.209  0.00  0.00    +0.000 A 
ENDBRANCH   4   6
BRANCH   1  12
ATOM     12  C   UNL     1       6.716   4.297  14.986  0.00  0.00    +0.000 C 
BRANCH  12  13
ATOM     13  N   UNL     1       7.679   5.360  14.714  0.00  0.00    +0.000 NA
ATOM     14  H   UNL     1       7.517   6.129  15.360  0.00  0.00    +0.000 HD
ATOM     15  H   UNL     1       7.500   5.726  13.779  0.00  0.00    +0.000 HD
ENDBRANCH  12  13
ENDBRANCH   1  12
TORSDOF 3
ENDMDL
MODEL 9
REMARK VINA RESULT:      -5.6      1.980      2.187
REMARK  Name = 
REMARK  3 active torsions:
REMARK  status: ('A' for Active; 'I' for Inactive)
REMARK    1  A    between atoms: N_1  and  C_2
REMARK    2  A    between atoms: C_2  and  C_3
REMARK    3  A    between atoms: C_6  and  C_7
REMARK                            x       y       z     vdW  Elec       q    Type
REMARK                         _______ _______ _______ _____ _____    ______ ____
ROOT
ATOM      1  C   UNL     1       5.701   5.129  15.772  0.00  0.00    +0.000 A 
ATOM      2  C   UNL     1       5.253   6.401  16.059  0.00  0.00    +0.000 A 
ATOM      3  C   UNL     1       4.243   6.408  17.058  0.00  0.00    +0.000 A 
ATOM      4  C   UNL     1       3.940   5.140  17.523  0.00  0.00    +0.000 A 
ATOM      5  S   UNL     1       4.875   3.956  16.704  0.00  0.00    +0.000 S 
ENDROOT
BRANCH   4   6
ATOM      6  C   UNL     1       2.971   4.766  18.561  0.00  0.00    +0.000 A 
ATOM      7  C   UNL     1       2.017   3.770  18.321  0.00  0.00    +0.000 A 
ATOM      8  C   UNL     1       1.056   3.469  19.286  0.00  0.00    +0.000 A 
ATOM      9  C   UNL     1       1.078   4.175  20.475  0.00  0.00    +0.000 A 
ATOM     10  N   UNL     1       1.985   5.133  20.760  0.00  0.00    +0.000 NA
ATOM     11  C   UNL     1       2.904   5.405  19.800  0.00  0.00    +0.000 A 
ENDBRANCH   4   6
BRANCH   1  12
ATOM     12  C   UNL     1       6.757   4.725  14.794  0.00  0.00    +0.000 C 
BRANCH  12  13
ATOM     13  N   UNL     1       6.283   3.615  13.975  0.00  0.00    +0.000 NA
ATOM     14  H   UNL     1       7.053   3.268  13.406  0.00  0.00    +0.000 HD
ATOM     15  H   UNL     1       5.581   3.969  13.325  0.00  0.00    +0.000 HD
ENDBRANCH  12  13
ENDBRANCH   1  12
TORSDOF 3
ENDMDL
