MODEL 1
REMARK VINA RESULT:      -7.1      0.000      0.000
REMARK  Name = 
REMARK  9 active torsions:
REMARK  status: ('A' for Active; 'I' for Inactive)
REMARK    1  A    between atoms: C_1  and  O_2
REMARK    2  A    between atoms: O_2  and  C_3
REMARK    3  A    between atoms: C_6  and  C_7
REMARK    4  A    between atoms: C_8  and  C_9
REMARK    5  A    between atoms: C_11  and  O_12
REMARK    6  A    between atoms: C_14  and  O_15
REMARK    7  A    between atoms: C_16  and  C_17
REMARK    8  A    between atoms: C_20  and  O_21
REMARK    9  A    between atoms: O_21  and  C_22
REMARK                            x       y       z     vdW  Elec       q    Type
REMARK                         _______ _______ _______ _____ _____    ______ ____
ROOT
ATOM      1  C   UNL     1       3.205   4.681  17.897  0.00  0.00    +0.000 C 
ATOM      2  C   UNL     1       4.645   4.862  17.614  0.00  0.00    +0.000 C 
ATOM      3  C   UNL     1       5.630   4.165  18.222  0.00  0.00    +0.000 C 
ATOM      4  N   UNL     1       5.304   3.164  19.104  0.00  0.00    +0.000 N 
ATOM      5  C   UNL     1       4.022   2.681  19.136  0.00  0.00    +0.000 C 
ATOM      6  C   UNL     1       3.027   3.371  18.540  0.00  0.00    +0.000 C 
ATOM      7  H   UNL     1       6.073   2.540  19.319  0.00  0.00    +0.000 HD
ENDROOT
BRANCH   1  11
ATOM      8  C   UNL     1       1.656   7.944  20.315  0.00  0.00    +0.000 A 
ATOM      9  C   UNL     1       1.752   6.652  20.844  0.00  0.00    +0.000 A 
ATOM     10  C   UNL     1       2.251   5.601  20.078  0.00  0.00    +0.000 A 
ATOM     11  C   UNL     1       2.641   5.811  18.748  0.00  0.00    +0.000 A 
ATOM     12  C   UNL     1       2.475   7.089  18.201  0.00  0.00    +0.000 A 
ATOM     13  C   UNL     1       1.974   8.154  18.963  0.00  0.00    +0.000 A 
BRANCH   8  15
ATOM     14  C   UNL     1      -0.069   8.873  21.650  0.00  0.00    +0.000 C 
ATOM     15  O   UNL     1       1.233   8.995  21.082  0.00  0.00    +0.000 OA
ENDBRANCH   8  15
BRANCH  13  16
ATOM     16  O   UNL     1       1.909   9.314  18.238  0.00  0.00    +0.000 OA
ATOM     17  C   UNL     1       0.638   9.881  17.966  0.00  0.00    +0.000 C 
ENDBRANCH  13  16
ENDBRANCH   1  11
BRANCH   2  18
ATOM     18  C   UNL     1       4.963   5.890  16.542  0.00  0.00    +0.000 C 
ATOM     19  N   UNL     1       5.228   6.744  15.652  0.00  0.00    +0.000 NA
ENDBRANCH   2  18
BRANCH   3  20
ATOM     20  O   UNL     1       6.971   4.325  18.016  0.00  0.00    +0.000 OA
ATOM     21  H   UNL     1       7.288   5.145  18.436  0.00  0.00    +0.000 HD
ENDBRANCH   3  20
BRANCH   5  22
ATOM     22  O   UNL     1       3.807   1.488  19.765  0.00  0.00    +0.000 OA
ATOM     23  H   UNL     1       4.225   1.544  20.640  0.00  0.00    +0.000 HD
ENDBRANCH   5  22
BRANCH   6  24
ATOM     24  C   UNL     1       1.623   2.795  18.473  0.00  0.00    +0.000 C 
ATOM     25  N   UNL     1       0.457   2.318  18.417  0.00  0.00    +0.000 NA
ENDBRANCH   6  24
TORSDOF 7
ENDMDL
MODEL 2
REMARK VINA RESULT:      -7.0      2.203      5.901
REMARK  Name = 
REMARK  9 active torsions:
REMARK  status: ('A' for Active; 'I' for Inactive)
REMARK    1  A    between atoms: C_1  and  O_2
REMARK    2  A    between atoms: O_2  and  C_3
REMARK    3  A    between atoms: C_6  and  C_7
REMARK    4  A    between atoms: C_8  and  C_9
REMARK    5  A    between atoms: C_11  and  O_12
REMARK    6  A    between atoms: C_14  and  O_15
REMARK    7  A    between atoms: C_16  and  C_17
REMARK    8  A    between atoms: C_20  and  O_21
REMARK    9  A    between atoms: O_21  and  C_22
REMARK                            x       y       z     vdW  Elec       q    Type
REMARK                         _______ _______ _______ _____ _____    ______ ____
ROOT
ATOM      1  C   UNL     1       2.241   5.436  18.340  0.00  0.00    +0.000 C 
ATOM      2  C   UNL     1       1.859   4.379  19.300  0.00  0.00    +0.000 C 
ATOM      3  C   UNL     1       1.892   4.527  20.642  0.00  0.00    +0.000 C 
ATOM      4  N   UNL     1       2.220   5.746  21.179  0.00  0.00    +0.000 N 
ATOM      5  C   UNL     1       2.216   6.861  20.382  0.00  0.00    +0.000 C 
ATOM      6  C   UNL     1       2.192   6.728  19.040  0.00  0.00    +0.000 C 
ATOM      7  H   UNL     1       1.984   5.840  22.161  0.00  0.00    +0.000 HD
ENDROOT
BRANCH   1  11
ATOM      8  C   UNL     1       6.146   4.777  16.549  0.00  0.00    +0.000 A 
ATOM      9  C   UNL     1       5.032   4.054  16.109  0.00  0.00    +0.000 A 
ATOM     10  C   UNL     1       3.776   4.262  16.673  0.00  0.00    +0.000 A 
ATOM     11  C   UNL     1       3.608   5.181  17.719  0.00  0.00    +0.000 A 
ATOM     12  C   UNL     1       4.738   5.848  18.205  0.00  0.00    +0.000 A 
ATOM     13  C   UNL     1       6.008   5.647  17.643  0.00  0.00    +0.000 A 
BRANCH   8  15
ATOM     14  C   UNL     1       7.410   4.839  14.544  0.00  0.00    +0.000 C 
ATOM     15  O   UNL     1       7.369   4.630  15.953  0.00  0.00    +0.000 OA
ENDBRANCH   8  15
BRANCH  13  16
ATOM     16  O   UNL     1       6.964   6.408  18.259  0.00  0.00    +0.000 OA
ATOM     17  C   UNL     1       7.796   5.804  19.236  0.00  0.00    +0.000 C 
ENDBRANCH  13  16
ENDBRANCH   1  11
BRANCH   2  18
ATOM     18  C   UNL     1       1.380   3.082  18.668  0.00  0.00    +0.000 C 
ATOM     19  N   UNL     1       0.985   2.006  18.143  0.00  0.00    +0.000 NA
ENDBRANCH   2  18
BRANCH   3  20
ATOM     20  O   UNL     1       1.581   3.566  21.563  0.00  0.00    +0.000 OA
ATOM     21  H   UNL     1       1.017   3.933  22.267  0.00  0.00    +0.000 HD
ENDBRANCH   3  20
BRANCH   5  22
ATOM     22  O   UNL     1       2.217   8.082  20.995  0.00  0.00    +0.000 OA
ATOM     23  H   UNL     1       1.302   8.407  20.989  0.00  0.00    +0.000 HD
ENDBRANCH   5  22
BRANCH   6  24
ATOM     24  C   UNL     1       2.077   7.952  18.146  0.00  0.00    +0.000 C 
ATOM     25  N   UNL     1       1.981   8.966  17.404  0.00  0.00    +0.000 NA
ENDBRANCH   6  24
TORSDOF 7
ENDMDL
MODEL 3
REMARK VINA RESULT:      -6.9      1.686      3.903
REMARK  Name = 
REMARK  9 active torsions:
REMARK  status: ('A' for Active; 'I' for Inactive)
REMARK    1  A    between atoms: C_1  and  O_2
REMARK    2  A    between atoms: O_2  and  C_3
REMARK    3  A    between atoms: C_6  and  C_7
REMARK    4  A    between atoms: C_8  and  C_9
REMARK    5  A    between atoms: C_11  and  O_12
REMARK    6  A    between atoms: C_14  and  O_15
REMARK    7  A    between atoms: C_16  and  C_17
REMARK    8  A    between atoms: C_20  and  O_21
REMARK    9  A    between atoms: O_21  and  C_22
REMARK                            x       y       z     vdW  Elec       q    Type
REMARK                         _______ _______ _______ _____ _____    ______ ____
ROOT
ATOM      1  C   UNL     1       3.689   4.671  19.384  0.00  0.00    +0.000 C 
ATOM      2  C   UNL     1       2.759   3.609  18.945  0.00  0.00    +0.000 C 
ATOM      3  C   UNL     1       2.887   2.920  17.790  0.00  0.00    +0.000 C 
ATOM      4  N   UNL     1       3.980   3.141  16.990  0.00  0.00    +0.000 N 
ATOM      5  C   UNL     1       5.063   3.813  17.493  0.00  0.00    +0.000 C 
ATOM      6  C   UNL     1       4.947   4.512  18.641  0.00  0.00    +0.000 C 
ATOM      7  H   UNL     1       4.126   2.424  16.287  0.00  0.00    +0.000 HD
ENDROOT
BRANCH   1  11
ATOM      8  C   UNL     1       1.931   8.613  18.875  0.00  0.00    +0.000 A 
ATOM      9  C   UNL     1       2.814   8.101  17.919  0.00  0.00    +0.000 A 
ATOM     10  C   UNL     1       3.379   6.837  18.070  0.00  0.00    +0.000 A 
ATOM     11  C   UNL     1       3.097   6.062  19.205  0.00  0.00    +0.000 A 
ATOM     12  C   UNL     1       2.270   6.609  20.193  0.00  0.00    +0.000 A 
ATOM     13  C   UNL     1       1.696   7.881  20.050  0.00  0.00    +0.000 A 
BRANCH   8  15
ATOM     14  C   UNL     1       0.007   9.789  18.144  0.00  0.00    +0.000 C 
ATOM     15  O   UNL     1       1.318   9.824  18.699  0.00  0.00    +0.000 OA
ENDBRANCH   8  15
BRANCH  13  16
ATOM     16  O   UNL     1       0.914   8.211  21.124  0.00  0.00    +0.000 OA
ATOM     17  C   UNL     1       1.421   9.121  22.086  0.00  0.00    +0.000 C 
ENDBRANCH  13  16
ENDBRANCH   1  11
BRANCH   2  18
ATOM     18  C   UNL     1       1.630   3.304  19.916  0.00  0.00    +0.000 C 
ATOM     19  N   UNL     1       0.692   3.052  20.720  0.00  0.00    +0.000 NA
ENDBRANCH   2  18
BRANCH   3  20
ATOM     20  O   UNL     1       2.032   1.957  17.331  0.00  0.00    +0.000 OA
ATOM     21  H   UNL     1       1.253   1.884  17.911  0.00  0.00    +0.000 HD
ENDBRANCH   3  20
BRANCH   5  22
ATOM     22  O   UNL     1       6.240   3.729  16.806  0.00  0.00    +0.000 OA
ATOM     23  H   UNL     1       6.184   2.947  16.234  0.00  0.00    +0.000 HD
ENDBRANCH   5  22
BRANCH   6  24
ATOM     24  C   UNL     1       6.164   5.172  19.268  0.00  0.00    +0.000 C 
ATOM     25  N   UNL     1       7.174   5.721  19.787  0.00  0.00    +0.000 NA
ENDBRANCH   6  24
TORSDOF 7
ENDMDL
MODEL 4
REMARK VINA RESULT:      -6.6      0.843      1.900
REMARK  Name = 
REMARK  9 active torsions:
REMARK  status: ('A' for Active; 'I' for Inactive)
REMARK    1  A    between atoms: C_1  and  O_2
REMARK    2  A    between atoms: O_2  and  C_3
REMARK    3  A    between atoms: C_6  and  C_7
REMARK    4  A    between atoms: C_8  and  C_9
REMARK    5  A    between atoms: C_11  and  O_12
REMARK    6  A    between atoms: C_14  and  O_15
REMARK    7  A    between atoms: C_16  and  C_17
REMARK    8  A    between atoms: C_20  and  O_21
REMARK    9  A    between atoms: O_21  and  C_22
REMARK                            x       y       z     vdW  Elec       q    Type
REMARK                         _______ _______ _______ _____ _____    ______ ____
ROOT
ATOM      1  C   UNL     1       3.460   4.828  17.726  0.00  0.00    +0.000 C 
ATOM      2  C   UNL     1       4.917   4.854  17.478  0.00  0.00    +0.000 C 
ATOM      3  C   UNL     1       5.838   4.332  18.317  0.00  0.00    +0.000 C 
ATOM      4  N   UNL     1       5.424   3.658  19.438  0.00  0.00    +0.000 N 
ATOM      5  C   UNL     1       4.116   3.262  19.547  0.00  0.00    +0.000 C 
ATOM      6  C   UNL     1       3.185   3.782  18.721  0.00  0.00    +0.000 C 
ATOM      7  H   UNL     1       6.148   3.095  19.870  0.00  0.00    +0.000 HD
ENDROOT
BRANCH   1  11
ATOM      8  C   UNL     1       1.879   8.670  19.005  0.00  0.00    +0.000 A 
ATOM      9  C   UNL     1       2.413   8.514  17.721  0.00  0.00    +0.000 A 
ATOM     10  C   UNL     1       2.917   7.286  17.300  0.00  0.00    +0.000 A 
ATOM     11  C   UNL     1       2.929   6.185  18.169  0.00  0.00    +0.000 A 
ATOM     12  C   UNL     1       2.461   6.366  19.476  0.00  0.00    +0.000 A 
ATOM     13  C   UNL     1       1.950   7.598  19.909  0.00  0.00    +0.000 A 
BRANCH   8  15
ATOM     14  C   UNL     1       0.265  10.354  18.584  0.00  0.00    +0.000 C 
ATOM     15  O   UNL     1       1.319   9.853  19.402  0.00  0.00    +0.000 OA
ENDBRANCH   8  15
BRANCH  13  16
ATOM     16  O   UNL     1       1.536   7.548  21.213  0.00  0.00    +0.000 OA
ATOM     17  C   UNL     1       0.264   8.076  21.549  0.00  0.00    +0.000 C 
ENDBRANCH  13  16
ENDBRANCH   1  11
BRANCH   2  18
ATOM     18  C   UNL     1       5.332   5.497  16.165  0.00  0.00    +0.000 C 
ATOM     19  N   UNL     1       5.675   6.031  15.074  0.00  0.00    +0.000 NA
ENDBRANCH   2  18
BRANCH   3  20
ATOM     20  O   UNL     1       7.193   4.365  18.142  0.00  0.00    +0.000 OA
ATOM     21  H   UNL     1       7.638   4.651  18.961  0.00  0.00    +0.000 HD
ENDBRANCH   3  20
BRANCH   5  22
ATOM     22  O   UNL     1       3.811   2.324  20.492  0.00  0.00    +0.000 OA
ATOM     23  H   UNL     1       4.342   2.525  21.279  0.00  0.00    +0.000 HD
ENDBRANCH   5  22
BRANCH   6  24
ATOM     24  C   UNL     1       1.754   3.273  18.755  0.00  0.00    +0.000 C 
ATOM     25  N   UNL     1       0.566   2.851  18.783  0.00  0.00    +0.000 NA
ENDBRANCH   6  24
TORSDOF 7
ENDMDL
MODEL 5
REMARK VINA RESULT:      -6.6      1.589      2.399
REMARK  Name = 
REMARK  9 active torsions:
REMARK  status: ('A' for Active; 'I' for Inactive)
REMARK    1  A    between atoms: C_1  and  O_2
REMARK    2  A    between atoms: O_2  and  C_3
REMARK    3  A    between atoms: C_6  and  C_7
REMARK    4  A    between atoms: C_8  and  C_9
REMARK    5  A    between atoms: C_11  and  O_12
REMARK    6  A    between atoms: C_14  and  O_15
REMARK    7  A    between atoms: C_16  and  C_17
REMARK    8  A    between atoms: C_20  and  O_21
REMARK    9  A    between atoms: O_21  and  C_22
REMARK                            x       y       z     vdW  Elec       q    Type
REMARK                         _______ _______ _______ _____ _____    ______ ____
ROOT
ATOM      1  C   UNL     1       4.551   5.637  17.765  0.00  0.00    +0.000 C 
ATOM      2  C   UNL     1       5.899   5.903  18.311  0.00  0.00    +0.000 C 
ATOM      3  C   UNL     1       6.421   5.271  19.384  0.00  0.00    +0.000 C 
ATOM      4  N   UNL     1       5.713   4.256  19.979  0.00  0.00    +0.000 N 
ATOM      5  C   UNL     1       4.650   3.695  19.322  0.00  0.00    +0.000 C 
ATOM      6  C   UNL     1       4.113   4.321  18.254  0.00  0.00    +0.000 C 
ATOM      7  H   UNL     1       6.267   3.680  20.603  0.00  0.00    +0.000 HD
ENDROOT
BRANCH   1  11
ATOM      8  C   UNL     1       1.665   8.718  18.799  0.00  0.00    +0.000 A 
ATOM      9  C   UNL     1       2.370   8.782  17.592  0.00  0.00    +0.000 A 
ATOM     10  C   UNL     1       3.294   7.797  17.250  0.00  0.00    +0.000 A 
ATOM     11  C   UNL     1       3.559   6.734  18.125  0.00  0.00    +0.000 A 
ATOM     12  C   UNL     1       2.904   6.713  19.363  0.00  0.00    +0.000 A 
ATOM     13  C   UNL     1       1.972   7.700  19.717  0.00  0.00    +0.000 A 
BRANCH   8  15
ATOM     14  C   UNL     1       1.100  11.009  19.022  0.00  0.00    +0.000 C 
ATOM     15  O   UNL     1       0.706   9.643  19.111  0.00  0.00    +0.000 OA
ENDBRANCH   8  15
BRANCH  13  16
ATOM     16  O   UNL     1       1.443   7.479  20.960  0.00  0.00    +0.000 OA
ATOM     17  C   UNL     1       1.394   8.553  21.884  0.00  0.00    +0.000 C 
ENDBRANCH  13  16
ENDBRANCH   1  11
BRANCH   2  18
ATOM     18  C   UNL     1       6.703   6.945  17.550  0.00  0.00    +0.000 C 
ATOM     19  N   UNL     1       7.371   7.810  16.921  0.00  0.00    +0.000 NA
ENDBRANCH   2  18
BRANCH   3  20
ATOM     20  O   UNL     1       7.646   5.512  19.941  0.00  0.00    +0.000 OA
ATOM     21  H   UNL     1       8.274   5.825  19.266  0.00  0.00    +0.000 HD
ENDBRANCH   3  20
BRANCH   5  22
ATOM     22  O   UNL     1       4.183   2.494  19.774  0.00  0.00    +0.000 OA
ATOM     23  H   UNL     1       4.398   1.829  19.101  0.00  0.00    +0.000 HD
ENDBRANCH   5  22
BRANCH   6  24
ATOM     24  C   UNL     1       3.006   3.661  17.450  0.00  0.00    +0.000 C 
ATOM     25  N   UNL     1       2.087   3.113  16.783  0.00  0.00    +0.000 NA
ENDBRANCH   6  24
TORSDOF 7
ENDMDL
MODEL 6
REMARK VINA RESULT:      -6.5      1.489      1.581
REMARK  Name = 
REMARK  9 active torsions:
REMARK  status: ('A' for Active; 'I' for Inactive)
REMARK    1  A    between atoms: C_1  and  O_2
REMARK    2  A    between atoms: O_2  and  C_3
REMARK    3  A    between atoms: C_6  and  C_7
REMARK    4  A    between atoms: C_8  and  C_9
REMARK    5  A    between atoms: C_11  and  O_12
REMARK    6  A    between atoms: C_14  and  O_15
REMARK    7  A    between atoms: C_16  and  C_17
REMARK    8  A    between atoms: C_20  and  O_21
REMARK    9  A    between atoms: O_21  and  C_22
REMARK                            x       y       z     vdW  Elec       q    Type
REMARK                         _______ _______ _______ _____ _____    ______ ____
ROOT
ATOM      1  C   UNL     1       4.423   5.688  17.808  0.00  0.00    +0.000 C 
ATOM      2  C   UNL     1       5.805   5.981  18.242  0.00  0.00    +0.000 C 
ATOM      3  C   UNL     1       6.486   5.247  19.149  0.00  0.00    +0.000 C 
ATOM      4  N   UNL     1       5.918   4.107  19.658  0.00  0.00    +0.000 N 
ATOM      5  C   UNL     1       4.822   3.562  19.041  0.00  0.00    +0.000 C 
ATOM      6  C   UNL     1       4.128   4.287  18.139  0.00  0.00    +0.000 C 
ATOM      7  H   UNL     1       6.575   3.494  20.128  0.00  0.00    +0.000 HD
ENDROOT
BRANCH   1  11
ATOM      8  C   UNL     1       1.586   8.464  19.580  0.00  0.00    +0.000 A 
ATOM      9  C   UNL     1       1.911   7.269  20.230  0.00  0.00    +0.000 A 
ATOM     10  C   UNL     1       2.822   6.375  19.673  0.00  0.00    +0.000 A 
ATOM     11  C   UNL     1       3.411   6.642  18.429  0.00  0.00    +0.000 A 
ATOM     12  C   UNL     1       3.029   7.804  17.748  0.00  0.00    +0.000 A 
ATOM     13  C   UNL     1       2.112   8.710  18.301  0.00  0.00    +0.000 A 
BRANCH   8  15
ATOM     14  C   UNL     1       1.067   9.780  21.482  0.00  0.00    +0.000 C 
ATOM     15  O   UNL     1       0.746   9.379  20.153  0.00  0.00    +0.000 OA
ENDBRANCH   8  15
BRANCH  13  16
ATOM     16  O   UNL     1       1.893   9.781  17.476  0.00  0.00    +0.000 OA
ATOM     17  C   UNL     1       2.255  11.077  17.924  0.00  0.00    +0.000 C 
ENDBRANCH  13  16
ENDBRANCH   1  11
BRANCH   2  18
ATOM     18  C   UNL     1       6.449   7.180  17.564  0.00  0.00    +0.000 C 
ATOM     19  N   UNL     1       6.984   8.173  17.000  0.00  0.00    +0.000 NA
ENDBRANCH   2  18
BRANCH   3  20
ATOM     20  O   UNL     1       7.750   5.504  19.603  0.00  0.00    +0.000 OA
ATOM     21  H   UNL     1       8.112   6.302  19.179  0.00  0.00    +0.000 HD
ENDBRANCH   3  20
BRANCH   5  22
ATOM     22  O   UNL     1       4.488   2.276  19.356  0.00  0.00    +0.000 OA
ATOM     23  H   UNL     1       3.584   2.292  19.710  0.00  0.00    +0.000 HD
ENDBRANCH   5  22
BRANCH   6  24
ATOM     24  C   UNL     1       2.979   3.660  17.367  0.00  0.00    +0.000 C 
ATOM     25  N   UNL     1       2.025   3.141  16.727  0.00  0.00    +0.000 NA
ENDBRANCH   6  24
TORSDOF 7
ENDMDL
MODEL 7
REMARK VINA RESULT:      -6.5      1.769      4.001
REMARK  Name = 
REMARK  9 active torsions:
REMARK  status: ('A' for Active; 'I' for Inactive)
REMARK    1  A    between atoms: C_1  and  O_2
REMARK    2  A    between atoms: O_2  and  C_3
REMARK    3  A    between atoms: C_6  and  C_7
REMARK    4  A    between atoms: C_8  and  C_9
REMARK    5  A    between atoms: C_11  and  O_12
REMARK    6  A    between atoms: C_14  and  O_15
REMARK    7  A    between atoms: C_16  and  C_17
REMARK    8  A    between atoms: C_20  and  O_21
REMARK    9  A    between atoms: O_21  and  C_22
REMARK                            x       y       z     vdW  Elec       q    Type
REMARK                         _______ _______ _______ _____ _____    ______ ____
ROOT
ATOM      1  C   UNL     1       3.888   5.203  19.028  0.00  0.00    +0.000 C 
ATOM      2  C   UNL     1       3.030   4.002  19.116  0.00  0.00    +0.000 C 
ATOM      3  C   UNL     1       2.786   3.169  18.081  0.00  0.00    +0.000 C 
ATOM      4  N   UNL     1       3.421   3.376  16.882  0.00  0.00    +0.000 N 
ATOM      5  C   UNL     1       4.501   4.218  16.825  0.00  0.00    +0.000 C 
ATOM      6  C   UNL     1       4.752   5.062  17.847  0.00  0.00    +0.000 C 
ATOM      7  H   UNL     1       3.379   2.583  16.252  0.00  0.00    +0.000 HD
ENDROOT
BRANCH   1  11
ATOM      8  C   UNL     1       1.500   8.834  18.910  0.00  0.00    +0.000 A 
ATOM      9  C   UNL     1       2.316   8.484  17.828  0.00  0.00    +0.000 A 
ATOM     10  C   UNL     1       3.081   7.321  17.854  0.00  0.00    +0.000 A 
ATOM     11  C   UNL     1       3.073   6.489  18.983  0.00  0.00    +0.000 A 
ATOM     12  C   UNL     1       2.312   6.880  20.091  0.00  0.00    +0.000 A 
ATOM     13  C   UNL     1       1.538   8.049  20.075  0.00  0.00    +0.000 A 
BRANCH   8  15
ATOM     14  C   UNL     1       1.356  11.198  18.831  0.00  0.00    +0.000 C 
ATOM     15  O   UNL     1       0.693   9.937  18.864  0.00  0.00    +0.000 OA
ENDBRANCH   8  15
BRANCH  13  16
ATOM     16  O   UNL     1       0.865   8.232  21.253  0.00  0.00    +0.000 OA
ATOM     17  C   UNL     1       1.376   9.159  22.197  0.00  0.00    +0.000 C 
ENDBRANCH  13  16
ENDBRANCH   1  11
BRANCH   2  18
ATOM     18  C   UNL     1       2.443   3.733  20.492  0.00  0.00    +0.000 C 
ATOM     19  N   UNL     1       1.958   3.510  21.634  0.00  0.00    +0.000 NA
ENDBRANCH   2  18
BRANCH   3  20
ATOM     20  O   UNL     1       1.973   2.070  18.110  0.00  0.00    +0.000 OA
ATOM     21  H   UNL     1       1.865   1.746  19.023  0.00  0.00    +0.000 HD
ENDBRANCH   3  20
BRANCH   5  22
ATOM     22  O   UNL     1       5.303   4.150  15.721  0.00  0.00    +0.000 OA
ATOM     23  H   UNL     1       5.351   3.217  15.457  0.00  0.00    +0.000 HD
ENDBRANCH   5  22
BRANCH   6  24
ATOM     24  C   UNL     1       6.004   5.922  17.847  0.00  0.00    +0.000 C 
ATOM     25  N   UNL     1       7.044   6.636  17.848  0.00  0.00    +0.000 NA
ENDBRANCH   6  24
TORSDOF 7
ENDMDL
MODEL 8
REMARK VINA RESULT:      -6.3      1.835      4.100
REMARK  Name = 
REMARK  9 active torsions:
REMARK  status: ('A' for Active; 'I' for Inactive)
REMARK    1  A    between atoms: C_1  and  O_2
REMARK    2  A    between atoms: O_2  and  C_3
REMARK    3  A    between atoms: C_6  and  C_7
REMARK    4  A    between atoms: C_8  and  C_9
REMARK    5  A    between atoms: C_11  and  O_12
REMARK    6  A    between atoms: C_14  and  O_15
REMARK    7  A    between atoms: C_16  and  C_17
REMARK    8  A    between atoms: C_20  and  O_21
REMARK    9  A    between atoms: O_21  and  C_22
REMARK                            x       y       z     vdW  Elec       q    Type
REMARK                         _______ _______ _______ _____ _____    ______ ____
ROOT
ATOM      1  C   UNL     1       5.000   5.033  18.924  0.00  0.00    +0.000 C 
ATOM      2  C   UNL     1       4.376   3.704  18.755  0.00  0.00    +0.000 C 
ATOM      3  C   UNL     1       4.520   2.934  17.654  0.00  0.00    +0.000 C 
ATOM      4  N   UNL     1       5.354   3.347  16.646  0.00  0.00    +0.000 N 
ATOM      5  C   UNL     1       6.249   4.358  16.878  0.00  0.00    +0.000 C 
ATOM      6  C   UNL     1       6.112   5.140  17.969  0.00  0.00    +0.000 C 
ATOM      7  H   UNL     1       5.595   2.615  15.987  0.00  0.00    +0.000 HD
ENDROOT
BRANCH   1  11
ATOM      8  C   UNL     1       2.077   8.214  18.438  0.00  0.00    +0.000 A 
ATOM      9  C   UNL     1       3.056   7.993  17.462  0.00  0.00    +0.000 A 
ATOM     10  C   UNL     1       3.993   6.974  17.607  0.00  0.00    +0.000 A 
ATOM     11  C   UNL     1       3.995   6.164  18.752  0.00  0.00    +0.000 A 
ATOM     12  C   UNL     1       3.060   6.436  19.758  0.00  0.00    +0.000 A 
ATOM     13  C   UNL     1       2.111   7.460  19.622  0.00  0.00    +0.000 A 
BRANCH   8  15
ATOM     14  C   UNL     1       1.531  10.521  18.420  0.00  0.00    +0.000 C 
ATOM     15  O   UNL     1       1.110   9.167  18.271  0.00  0.00    +0.000 OA
ENDBRANCH   8  15
BRANCH  13  16
ATOM     16  O   UNL     1       1.289   7.540  20.714  0.00  0.00    +0.000 OA
ATOM     17  C   UNL     1       1.436   8.636  21.602  0.00  0.00    +0.000 C 
ENDBRANCH  13  16
ENDBRANCH   1  11
BRANCH   2  18
ATOM     18  C   UNL     1       3.561   3.223  19.944  0.00  0.00    +0.000 C 
ATOM     19  N   UNL     1       2.884   2.825  20.931  0.00  0.00    +0.000 NA
ENDBRANCH   2  18
BRANCH   3  20
ATOM     20  O   UNL     1       3.933   1.717  17.444  0.00  0.00    +0.000 OA
ATOM     21  H   UNL     1       3.748   1.584  16.497  0.00  0.00    +0.000 HD
ENDBRANCH   3  20
BRANCH   5  22
ATOM     22  O   UNL     1       7.272   4.520  15.988  0.00  0.00    +0.000 OA
ATOM     23  H   UNL     1       7.022   5.242  15.390  0.00  0.00    +0.000 HD
ENDBRANCH   5  22
BRANCH   6  24
ATOM     24  C   UNL     1       7.157   6.193  18.298  0.00  0.00    +0.000 C 
ATOM     25  N   UNL     1       8.025   7.066  18.571  0.00  0.00    +0.000 NA
ENDBRANCH   6  24
TORSDOF 7
ENDMDL
MODEL 9
REMARK VINA RESULT:      -6.3      2.155      5.865
REMARK  Name = 
REMARK  9 active torsions:
REMARK  status: ('A' for Active; 'I' for Inactive)
REMARK    1  A    between atoms: C_1  and  O_2
REMARK    2  A    between atoms: O_2  and  C_3
REMARK    3  A    between atoms: C_6  and  C_7
REMARK    4  A    between atoms: C_8  and  C_9
REMARK    5  A    between atoms: C_11  and  O_12
REMARK    6  A    between atoms: C_14  and  O_15
REMARK    7  A    between atoms: C_16  and  C_17
REMARK    8  A    between atoms: C_20  and  O_21
REMARK    9  A    between atoms: O_21  and  C_22
REMARK                            x       y       z     vdW  Elec       q    Type
REMARK                         _______ _______ _______ _____ _____    ______ ____
ROOT
ATOM      1  C   UNL     1       2.422   5.619  18.389  0.00  0.00    +0.000 C 
ATOM      2  C   UNL     1       1.869   4.521  19.209  0.00  0.00    +0.000 C 
ATOM      3  C   UNL     1       1.589   4.625  20.527  0.00  0.00    +0.000 C 
ATOM      4  N   UNL     1       1.743   5.835  21.155  0.00  0.00    +0.000 N 
ATOM      5  C   UNL     1       1.881   6.975  20.407  0.00  0.00    +0.000 C 
ATOM      6  C   UNL     1       2.168   6.886  19.092  0.00  0.00    +0.000 C 
ATOM      7  H   UNL     1       1.286   5.890  22.058  0.00  0.00    +0.000 HD
ENDROOT
BRANCH   1  11
ATOM      8  C   UNL     1       6.632   5.000  17.501  0.00  0.00    +0.000 A 
ATOM      9  C   UNL     1       6.190   5.077  18.826  0.00  0.00    +0.000 A 
ATOM     10  C   UNL     1       4.842   5.270  19.121  0.00  0.00    +0.000 A 
ATOM     11  C   UNL     1       3.903   5.424  18.091  0.00  0.00    +0.000 A 
ATOM     12  C   UNL     1       4.360   5.419  16.768  0.00  0.00    +0.000 A 
ATOM     13  C   UNL     1       5.715   5.225  16.461  0.00  0.00    +0.000 A 
BRANCH   8  15
ATOM     14  C   UNL     1       8.767   4.346  18.295  0.00  0.00    +0.000 C 
ATOM     15  O   UNL     1       7.942   4.741  17.203  0.00  0.00    +0.000 OA
ENDBRANCH   8  15
BRANCH  13  16
ATOM     16  O   UNL     1       5.939   5.242  15.110  0.00  0.00    +0.000 OA
ATOM     17  C   UNL     1       6.050   4.009  14.418  0.00  0.00    +0.000 C 
ENDBRANCH  13  16
ENDBRANCH   1  11
BRANCH   2  18
ATOM     18  C   UNL     1       1.593   3.232  18.451  0.00  0.00    +0.000 C 
ATOM     19  N   UNL     1       1.365   2.164  17.822  0.00  0.00    +0.000 NA
ENDBRANCH   2  18
BRANCH   3  20
ATOM     20  O   UNL     1       1.111   3.626  21.327  0.00  0.00    +0.000 OA
ATOM     21  H   UNL     1       0.363   3.171  20.900  0.00  0.00    +0.000 HD
ENDBRANCH   3  20
BRANCH   5  22
ATOM     22  O   UNL     1       1.699   8.175  21.034  0.00  0.00    +0.000 OA
ATOM     23  H   UNL     1       1.602   7.992  21.983  0.00  0.00    +0.000 HD
ENDBRANCH   5  22
BRANCH   6  24
ATOM     24  C   UNL     1       2.217   8.134  18.227  0.00  0.00    +0.000 C 
ATOM     25  N   UNL     1       2.258   9.170  17.510  0.00  0.00    +0.000 NA
ENDBRANCH   6  24
TORSDOF 7
ENDMDL
