MODEL 1
REMARK VINA RESULT:      -8.9      0.000      0.000
REMARK  Name = 
REMARK  9 active torsions:
REMARK  status: ('A' for Active; 'I' for Inactive)
REMARK    1  A    between atoms: C_1  and  O_2
REMARK    2  A    between atoms: O_2  and  C_3
REMARK    3  A    between atoms: C_8  and  O_9
REMARK    4  A    between atoms: O_9  and  C_10
REMARK    5  A    between atoms: C_13  and  C_14
REMARK    6  A    between atoms: C_14  and  C_15
REMARK    7  A    between atoms: N_18  and  C_19
REMARK    8  A    between atoms: C_19  and  C_20
REMARK    9  A    between atoms: C_22  and  N_23
REMARK                            x       y       z     vdW  Elec       q    Type
REMARK                         _______ _______ _______ _____ _____    ______ ____
ROOT
ATOM      1  C   UNL     1       1.501   4.268  20.835  0.00  0.00    +0.000 C 
ATOM      2  C   UNL     1       2.461   3.151  21.232  0.00  0.00    +0.000 C 
ATOM      3  C   UNL     1       3.508   2.883  20.153  0.00  0.00    +0.000 C 
ATOM      4  N   UNL     1       2.953   2.614  18.816  0.00  0.00    +0.000 NA
ATOM      5  C   UNL     1       1.884   3.539  18.413  0.00  0.00    +0.000 C 
ATOM      6  C   UNL     1       0.854   3.834  19.509  0.00  0.00    +0.000 C 
ENDROOT
BRANCH   1   7
ATOM      7  C   UNL     1       2.137   5.671  20.718  0.00  0.00    +0.000 C 
BRANCH   7  16
ATOM      8  C   UNL     1       0.935  11.553  20.758  0.00  0.00    +0.000 A 
ATOM      9  C   UNL     1       0.676  10.396  21.533  0.00  0.00    +0.000 A 
ATOM     10  C   UNL     1       0.878   9.159  20.964  0.00  0.00    +0.000 A 
ATOM     11  C   UNL     1       1.291   9.097  19.646  0.00  0.00    +0.000 A 
ATOM     12  C   UNL     1       1.384  10.187  18.808  0.00  0.00    +0.000 A 
ATOM     13  C   UNL     1       1.217  11.449  19.369  0.00  0.00    +0.000 A 
ATOM     14  C   UNL     1       1.734   7.745  19.381  0.00  0.00    +0.000 C 
ATOM     15  O   UNL     1       2.494   7.466  18.475  0.00  0.00    +0.000 OA
ATOM     16  C   UNL     1       1.169   6.828  20.449  0.00  0.00    +0.000 C 
ATOM     17  C   UNL     1       0.880   7.809  21.615  0.00  0.00    +0.000 C 
BRANCH   8  19
ATOM     18  C   UNL     1      -0.319  13.248  21.781  0.00  0.00    +0.000 C 
ATOM     19  O   UNL     1       0.971  12.799  21.346  0.00  0.00    +0.000 OA
ENDBRANCH   8  19
BRANCH  13  20
ATOM     20  O   UNL     1       1.390  12.609  18.648  0.00  0.00    +0.000 OA
ATOM     21  C   UNL     1       2.716  12.869  18.174  0.00  0.00    +0.000 C 
ENDBRANCH  13  20
ENDBRANCH   7  16
ENDBRANCH   1   7
BRANCH   4  22
ATOM     22  C   UNL     1       4.044   2.664  17.807  0.00  0.00    +0.000 C 
BRANCH  22  23
ATOM     23  C   UNL     1       4.728   4.031  17.730  0.00  0.00    +0.000 A 
ATOM     24  C   UNL     1       4.452   4.859  16.661  0.00  0.00    +0.000 A 
ATOM     25  C   UNL     1       5.310   5.926  16.397  0.00  0.00    +0.000 A 
ATOM     26  C   UNL     1       6.329   6.236  17.339  0.00  0.00    +0.000 A 
ATOM     27  C   UNL     1       7.209   7.334  17.215  0.00  0.00    +0.000 A 
ATOM     28  C   UNL     1       8.200   7.583  18.169  0.00  0.00    +0.000 A 
ATOM     29  C   UNL     1       8.308   6.738  19.270  0.00  0.00    +0.000 A 
ATOM     30  C   UNL     1       7.444   5.655  19.395  0.00  0.00    +0.000 A 
ATOM     31  C   UNL     1       6.465   5.378  18.452  0.00  0.00    +0.000 A 
ATOM     32  N   UNL     1       5.718   4.280  18.630  0.00  0.00    +0.000 NA
BRANCH  25  33
ATOM     33  N   UNL     1       5.020   6.750  15.289  0.00  0.00    +0.000 N 
ATOM     34  H   UNL     1       4.048   7.039  15.260  0.00  0.00    +0.000 HD
ATOM     35  H   UNL     1       5.304   6.342  14.404  0.00  0.00    +0.000 HD
ENDBRANCH  25  33
ENDBRANCH  22  23
ENDBRANCH   4  22
TORSDOF 7
ENDMDL
MODEL 2
REMARK VINA RESULT:      -8.0      4.517      9.806
REMARK  Name = 
REMARK  9 active torsions:
REMARK  status: ('A' for Active; 'I' for Inactive)
REMARK    1  A    between atoms: C_1  and  O_2
REMARK    2  A    between atoms: O_2  and  C_3
REMARK    3  A    between atoms: C_8  and  O_9
REMARK    4  A    between atoms: O_9  and  C_10
REMARK    5  A    between atoms: C_13  and  C_14
REMARK    6  A    between atoms: C_14  and  C_15
REMARK    7  A    between atoms: N_18  and  C_19
REMARK    8  A    between atoms: C_19  and  C_20
REMARK    9  A    between atoms: C_22  and  N_23
REMARK                            x       y       z     vdW  Elec       q    Type
REMARK                         _______ _______ _______ _____ _____    ______ ____
ROOT
ATOM      1  C   UNL     1       0.056   9.953  19.285  0.00  0.00    +0.000 C 
ATOM      2  C   UNL     1      -0.483  11.150  18.508  0.00  0.00    +0.000 C 
ATOM      3  C   UNL     1       0.187  12.457  18.926  0.00  0.00    +0.000 C 
ATOM      4  N   UNL     1       0.136  12.734  20.372  0.00  0.00    +0.000 NA
ATOM      5  C   UNL     1       0.470  11.579  21.217  0.00  0.00    +0.000 C 
ATOM      6  C   UNL     1      -0.176  10.261  20.774  0.00  0.00    +0.000 C 
ENDROOT
BRANCH   1   7
ATOM      7  C   UNL     1       1.534   9.602  19.007  0.00  0.00    +0.000 C 
BRANCH   7  16
ATOM      8  C   UNL     1       5.279   4.991  18.136  0.00  0.00    +0.000 A 
ATOM      9  C   UNL     1       4.739   6.088  17.422  0.00  0.00    +0.000 A 
ATOM     10  C   UNL     1       3.632   6.729  17.930  0.00  0.00    +0.000 A 
ATOM     11  C   UNL     1       3.070   6.250  19.099  0.00  0.00    +0.000 A 
ATOM     12  C   UNL     1       3.455   5.085  19.728  0.00  0.00    +0.000 A 
ATOM     13  C   UNL     1       4.592   4.440  19.251  0.00  0.00    +0.000 A 
ATOM     14  C   UNL     1       2.148   7.249  19.593  0.00  0.00    +0.000 C 
ATOM     15  O   UNL     1       1.800   7.309  20.756  0.00  0.00    +0.000 OA
ATOM     16  C   UNL     1       1.801   8.196  18.460  0.00  0.00    +0.000 C 
ATOM     17  C   UNL     1       3.002   8.017  17.494  0.00  0.00    +0.000 C 
BRANCH   8  19
ATOM     18  C   UNL     1       6.974   4.920  16.518  0.00  0.00    +0.000 C 
ATOM     19  O   UNL     1       6.509   4.468  17.796  0.00  0.00    +0.000 OA
ENDBRANCH   8  19
BRANCH  13  20
ATOM     20  O   UNL     1       5.125   3.328  19.863  0.00  0.00    +0.000 OA
ATOM     21  C   UNL     1       4.452   2.088  19.621  0.00  0.00    +0.000 C 
ENDBRANCH  13  20
ENDBRANCH   7  16
ENDBRANCH   1   7
BRANCH   4  22
ATOM     22  C   UNL     1       1.059  13.854  20.694  0.00  0.00    +0.000 C 
BRANCH  22  23
ATOM     23  C   UNL     1       0.720  15.146  19.947  0.00  0.00    +0.000 A 
ATOM     24  C   UNL     1      -0.541  15.688  20.083  0.00  0.00    +0.000 A 
ATOM     25  C   UNL     1      -0.969  16.640  19.158  0.00  0.00    +0.000 A 
ATOM     26  C   UNL     1      -0.031  17.155  18.222  0.00  0.00    +0.000 A 
ATOM     27  C   UNL     1      -0.329  18.171  17.287  0.00  0.00    +0.000 A 
ATOM     28  C   UNL     1       0.633  18.631  16.382  0.00  0.00    +0.000 A 
ATOM     29  C   UNL     1       1.913  18.084  16.416  0.00  0.00    +0.000 A 
ATOM     30  C   UNL     1       2.208  17.082  17.335  0.00  0.00    +0.000 A 
ATOM     31  C   UNL     1       1.266  16.598  18.230  0.00  0.00    +0.000 A 
ATOM     32  N   UNL     1       1.630  15.592  19.038  0.00  0.00    +0.000 NA
BRANCH  25  33
ATOM     33  N   UNL     1      -2.268  17.169  19.305  0.00  0.00    +0.000 N 
ATOM     34  H   UNL     1      -2.826  16.656  19.980  0.00  0.00    +0.000 HD
ATOM     35  H   UNL     1      -2.762  17.262  18.423  0.00  0.00    +0.000 HD
ENDBRANCH  25  33
ENDBRANCH  22  23
ENDBRANCH   4  22
TORSDOF 7
ENDMDL
MODEL 3
REMARK VINA RESULT:      -8.0      4.252      9.540
REMARK  Name = 
REMARK  9 active torsions:
REMARK  status: ('A' for Active; 'I' for Inactive)
REMARK    1  A    between atoms: C_1  and  O_2
REMARK    2  A    between atoms: O_2  and  C_3
REMARK    3  A    between atoms: C_8  and  O_9
REMARK    4  A    between atoms: O_9  and  C_10
REMARK    5  A    between atoms: C_13  and  C_14
REMARK    6  A    between atoms: C_14  and  C_15
REMARK    7  A    between atoms: N_18  and  C_19
REMARK    8  A    between atoms: C_19  and  C_20
REMARK    9  A    between atoms: C_22  and  N_23
REMARK                            x       y       z     vdW  Elec       q    Type
REMARK                         _______ _______ _______ _____ _____    ______ ____
ROOT
ATOM      1  C   UNL     1      -0.201   9.969  19.404  0.00  0.00    +0.000 C 
ATOM      2  C   UNL     1      -0.858  11.150  18.696  0.00  0.00    +0.000 C 
ATOM      3  C   UNL     1      -0.279  12.487  19.149  0.00  0.00    +0.000 C 
ATOM      4  N   UNL     1      -0.303  12.701  20.606  0.00  0.00    +0.000 NA
ATOM      5  C   UNL     1       0.149  11.542  21.391  0.00  0.00    +0.000 C 
ATOM      6  C   UNL     1      -0.407  10.196  20.911  0.00  0.00    +0.000 C 
ENDROOT
BRANCH   1   7
ATOM      7  C   UNL     1       1.290   9.748  19.067  0.00  0.00    +0.000 C 
BRANCH   7  16
ATOM      8  C   UNL     1       5.318   5.417  18.036  0.00  0.00    +0.000 A 
ATOM      9  C   UNL     1       4.721   6.513  17.367  0.00  0.00    +0.000 A 
ATOM     10  C   UNL     1       3.571   7.061  17.888  0.00  0.00    +0.000 A 
ATOM     11  C   UNL     1       3.025   6.493  19.024  0.00  0.00    +0.000 A 
ATOM     12  C   UNL     1       3.472   5.325  19.603  0.00  0.00    +0.000 A 
ATOM     13  C   UNL     1       4.652   4.773  19.113  0.00  0.00    +0.000 A 
ATOM     14  C   UNL     1       2.038   7.411  19.550  0.00  0.00    +0.000 C 
ATOM     15  O   UNL     1       1.673   7.394  20.710  0.00  0.00    +0.000 OA
ATOM     16  C   UNL     1       1.648   8.388  18.458  0.00  0.00    +0.000 C 
ATOM     17  C   UNL     1       2.869   8.329  17.503  0.00  0.00    +0.000 C 
BRANCH   8  19
ATOM     18  C   UNL     1       6.642   4.441  16.366  0.00  0.00    +0.000 C 
ATOM     19  O   UNL     1       6.581   4.985  17.691  0.00  0.00    +0.000 OA
ENDBRANCH   8  19
BRANCH  13  20
ATOM     20  O   UNL     1       5.243   3.667  19.681  0.00  0.00    +0.000 OA
ATOM     21  C   UNL     1       4.458   2.470  19.704  0.00  0.00    +0.000 C 
ENDBRANCH  13  20
ENDBRANCH   7  16
ENDBRANCH   1   7
BRANCH   4  22
ATOM     22  C   UNL     1       0.540  13.876  20.949  0.00  0.00    +0.000 C 
BRANCH  22  23
ATOM     23  C   UNL     1       0.868  14.753  19.739  0.00  0.00    +0.000 A 
ATOM     24  C   UNL     1       2.142  14.718  19.210  0.00  0.00    +0.000 A 
ATOM     25  C   UNL     1       2.548  15.743  18.357  0.00  0.00    +0.000 A 
ATOM     26  C   UNL     1       1.581  16.687  17.913  0.00  0.00    +0.000 A 
ATOM     27  C   UNL     1       1.856  17.723  16.994  0.00  0.00    +0.000 A 
ATOM     28  C   UNL     1       0.867  18.630  16.602  0.00  0.00    +0.000 A 
ATOM     29  C   UNL     1      -0.419  18.496  17.120  0.00  0.00    +0.000 A 
ATOM     30  C   UNL     1      -0.693  17.477  18.026  0.00  0.00    +0.000 A 
ATOM     31  C   UNL     1       0.277  16.577  18.443  0.00  0.00    +0.000 A 
ATOM     32  N   UNL     1      -0.069  15.665  19.362  0.00  0.00    +0.000 NA
BRANCH  25  33
ATOM     33  N   UNL     1       3.860  15.696  17.841  0.00  0.00    +0.000 N 
ATOM     34  H   UNL     1       3.973  16.264  17.008  0.00  0.00    +0.000 HD
ATOM     35  H   UNL     1       4.193  14.750  17.684  0.00  0.00    +0.000 HD
ENDBRANCH  25  33
ENDBRANCH  22  23
ENDBRANCH   4  22
TORSDOF 7
ENDMDL
MODEL 4
REMARK VINA RESULT:      -8.0      4.819     10.576
REMARK  Name = 
REMARK  9 active torsions:
REMARK  status: ('A' for Active; 'I' for Inactive)
REMARK    1  A    between atoms: C_1  and  O_2
REMARK    2  A    between atoms: O_2  and  C_3
REMARK    3  A    between atoms: C_8  and  O_9
REMARK    4  A    between atoms: O_9  and  C_10
REMARK    5  A    between atoms: C_13  and  C_14
REMARK    6  A    between atoms: C_14  and  C_15
REMARK    7  A    between atoms: N_18  and  C_19
REMARK    8  A    between atoms: C_19  and  C_20
REMARK    9  A    between atoms: C_22  and  N_23
REMARK                            x       y       z     vdW  Elec       q    Type
REMARK                         _______ _______ _______ _____ _____    ______ ____
ROOT
ATOM      1  C   UNL     1       0.822  10.609  18.371  0.00  0.00    +0.000 C 
ATOM      2  C   UNL     1       1.038  12.070  18.755  0.00  0.00    +0.000 C 
ATOM      3  C   UNL     1       0.543  12.372  20.168  0.00  0.00    +0.000 C 
ATOM      4  N   UNL     1      -0.857  11.991  20.419  0.00  0.00    +0.000 NA
ATOM      5  C   UNL     1      -1.214  10.655  19.921  0.00  0.00    +0.000 C 
ATOM      6  C   UNL     1      -0.686  10.340  18.516  0.00  0.00    +0.000 C 
ENDROOT
BRANCH   1   7
ATOM      7  C   UNL     1       1.655   9.588  19.176  0.00  0.00    +0.000 C 
BRANCH   7  16
ATOM      8  C   UNL     1       5.258   4.946  17.944  0.00  0.00    +0.000 A 
ATOM      9  C   UNL     1       4.769   6.122  17.326  0.00  0.00    +0.000 A 
ATOM     10  C   UNL     1       3.674   6.753  17.873  0.00  0.00    +0.000 A 
ATOM     11  C   UNL     1       3.075   6.189  18.984  0.00  0.00    +0.000 A 
ATOM     12  C   UNL     1       3.409   4.959  19.509  0.00  0.00    +0.000 A 
ATOM     13  C   UNL     1       4.532   4.321  18.993  0.00  0.00    +0.000 A 
ATOM     14  C   UNL     1       2.177   7.171  19.553  0.00  0.00    +0.000 C 
ATOM     15  O   UNL     1       1.810   7.137  20.711  0.00  0.00    +0.000 OA
ATOM     16  C   UNL     1       1.884   8.229  18.506  0.00  0.00    +0.000 C 
ATOM     17  C   UNL     1       3.096   8.097  17.547  0.00  0.00    +0.000 C 
BRANCH   8  19
ATOM     18  C   UNL     1       7.588   5.146  18.106  0.00  0.00    +0.000 C 
ATOM     19  O   UNL     1       6.475   4.413  17.577  0.00  0.00    +0.000 OA
ENDBRANCH   8  19
BRANCH  13  20
ATOM     20  O   UNL     1       5.015   3.140  19.509  0.00  0.00    +0.000 OA
ATOM     21  C   UNL     1       4.077   2.332  20.229  0.00  0.00    +0.000 C 
ENDBRANCH  13  20
ENDBRANCH   7  16
ENDBRANCH   1   7
BRANCH   4  22
ATOM     22  C   UNL     1      -1.132  12.053  21.879  0.00  0.00    +0.000 C 
BRANCH  22  23
ATOM     23  C   UNL     1      -2.553  12.520  22.203  0.00  0.00    +0.000 A 
ATOM     24  C   UNL     1      -3.056  12.310  23.470  0.00  0.00    +0.000 A 
ATOM     25  C   UNL     1      -4.431  12.405  23.675  0.00  0.00    +0.000 A 
ATOM     26  C   UNL     1      -5.249  12.895  22.619  0.00  0.00    +0.000 A 
ATOM     27  C   UNL     1      -6.641  13.102  22.732  0.00  0.00    +0.000 A 
ATOM     28  C   UNL     1      -7.395  13.577  21.654  0.00  0.00    +0.000 A 
ATOM     29  C   UNL     1      -6.754  13.863  20.452  0.00  0.00    +0.000 A 
ATOM     30  C   UNL     1      -5.383  13.659  20.337  0.00  0.00    +0.000 A 
ATOM     31  C   UNL     1      -4.618  13.172  21.386  0.00  0.00    +0.000 A 
ATOM     32  N   UNL     1      -3.314  12.955  21.162  0.00  0.00    +0.000 NA
BRANCH  25  33
ATOM     33  N   UNL     1      -4.926  12.169  24.974  0.00  0.00    +0.000 N 
ATOM     34  H   UNL     1      -5.940  12.172  25.014  0.00  0.00    +0.000 HD
ATOM     35  H   UNL     1      -4.534  12.796  25.670  0.00  0.00    +0.000 HD
ENDBRANCH  25  33
ENDBRANCH  22  23
ENDBRANCH   4  22
TORSDOF 7
ENDMDL
MODEL 5
REMARK VINA RESULT:      -7.9      4.424     10.207
REMARK  Name = 
REMARK  9 active torsions:
REMARK  status: ('A' for Active; 'I' for Inactive)
REMARK    1  A    between atoms: C_1  and  O_2
REMARK    2  A    between atoms: O_2  and  C_3
REMARK    3  A    between atoms: C_8  and  O_9
REMARK    4  A    between atoms: O_9  and  C_10
REMARK    5  A    between atoms: C_13  and  C_14
REMARK    6  A    between atoms: C_14  and  C_15
REMARK    7  A    between atoms: N_18  and  C_19
REMARK    8  A    between atoms: C_19  and  C_20
REMARK    9  A    between atoms: C_22  and  N_23
REMARK                            x       y       z     vdW  Elec       q    Type
REMARK                         _______ _______ _______ _____ _____    ______ ____
ROOT
ATOM      1  C   UNL     1       1.133  11.034  18.291  0.00  0.00    +0.000 C 
ATOM      2  C   UNL     1       1.283  12.387  18.979  0.00  0.00    +0.000 C 
ATOM      3  C   UNL     1       0.991  12.308  20.475  0.00  0.00    +0.000 C 
ATOM      4  N   UNL     1      -0.315  11.718  20.812  0.00  0.00    +0.000 NA
ATOM      5  C   UNL     1      -0.633  10.494  20.062  0.00  0.00    +0.000 C 
ATOM      6  C   UNL     1      -0.306  10.565  18.566  0.00  0.00    +0.000 C 
ENDROOT
BRANCH   1   7
ATOM      7  C   UNL     1       2.164   9.964  18.713  0.00  0.00    +0.000 C 
BRANCH   7  16
ATOM      8  C   UNL     1       3.434   4.102  18.962  0.00  0.00    +0.000 A 
ATOM      9  C   UNL     1       3.323   5.139  18.005  0.00  0.00    +0.000 A 
ATOM     10  C   UNL     1       2.673   6.300  18.357  0.00  0.00    +0.000 A 
ATOM     11  C   UNL     1       2.122   6.390  19.622  0.00  0.00    +0.000 A 
ATOM     12  C   UNL     1       2.054   5.344  20.518  0.00  0.00    +0.000 A 
ATOM     13  C   UNL     1       2.733   4.173  20.196  0.00  0.00    +0.000 A 
ATOM     14  C   UNL     1       1.788   7.777  19.865  0.00  0.00    +0.000 C 
ATOM     15  O   UNL     1       1.658   8.238  20.982  0.00  0.00    +0.000 OA
ATOM     16  C   UNL     1       1.730   8.505  18.536  0.00  0.00    +0.000 C 
ATOM     17  C   UNL     1       2.600   7.604  17.622  0.00  0.00    +0.000 C 
BRANCH   8  19
ATOM     18  C   UNL     1       3.625   1.965  18.019  0.00  0.00    +0.000 C 
ATOM     19  O   UNL     1       4.266   3.025  18.740  0.00  0.00    +0.000 OA
ENDBRANCH   8  19
BRANCH  13  20
ATOM     20  O   UNL     1       2.817   3.105  21.060  0.00  0.00    +0.000 OA
ATOM     21  C   UNL     1       1.591   2.683  21.667  0.00  0.00    +0.000 C 
ENDBRANCH  13  20
ENDBRANCH   7  16
ENDBRANCH   1   7
BRANCH   4  22
ATOM     22  C   UNL     1      -0.364  11.420  22.268  0.00  0.00    +0.000 C 
BRANCH  22  23
ATOM     23  C   UNL     1      -1.337  12.321  23.033  0.00  0.00    +0.000 A 
ATOM     24  C   UNL     1      -2.680  12.005  23.037  0.00  0.00    +0.000 A 
ATOM     25  C   UNL     1      -3.601  12.980  23.418  0.00  0.00    +0.000 A 
ATOM     26  C   UNL     1      -3.119  14.201  23.965  0.00  0.00    +0.000 A 
ATOM     27  C   UNL     1      -3.954  15.230  24.452  0.00  0.00    +0.000 A 
ATOM     28  C   UNL     1      -3.422  16.415  24.970  0.00  0.00    +0.000 A 
ATOM     29  C   UNL     1      -2.039  16.573  25.019  0.00  0.00    +0.000 A 
ATOM     30  C   UNL     1      -1.214  15.562  24.539  0.00  0.00    +0.000 A 
ATOM     31  C   UNL     1      -1.719  14.386  24.005  0.00  0.00    +0.000 A 
ATOM     32  N   UNL     1      -0.846  13.494  23.516  0.00  0.00    +0.000 NA
BRANCH  25  33
ATOM     33  N   UNL     1      -4.970  12.643  23.399  0.00  0.00    +0.000 N 
ATOM     34  H   UNL     1      -5.130  11.648  23.519  0.00  0.00    +0.000 HD
ATOM     35  H   UNL     1      -5.455  12.992  22.578  0.00  0.00    +0.000 HD
ENDBRANCH  25  33
ENDBRANCH  22  23
ENDBRANCH   4  22
TORSDOF 7
ENDMDL
MODEL 6
REMARK VINA RESULT:      -7.8      3.872      5.688
REMARK  Name = 
REMARK  9 active torsions:
REMARK  status: ('A' for Active; 'I' for Inactive)
REMARK    1  A    between atoms: C_1  and  O_2
REMARK    2  A    between atoms: O_2  and  C_3
REMARK    3  A    between atoms: C_8  and  O_9
REMARK    4  A    between atoms: O_9  and  C_10
REMARK    5  A    between atoms: C_13  and  C_14
REMARK    6  A    between atoms: C_14  and  C_15
REMARK    7  A    between atoms: N_18  and  C_19
REMARK    8  A    between atoms: C_19  and  C_20
REMARK    9  A    between atoms: C_22  and  N_23
REMARK                            x       y       z     vdW  Elec       q    Type
REMARK                         _______ _______ _______ _____ _____    ______ ____
ROOT
ATOM      1  C   UNL     1       0.877  10.237  19.045  0.00  0.00    +0.000 C 
ATOM      2  C   UNL     1       1.971   9.864  18.050  0.00  0.00    +0.000 C 
ATOM      3  C   UNL     1       2.181   8.354  17.966  0.00  0.00    +0.000 C 
ATOM      4  N   UNL     1       2.439   7.700  19.260  0.00  0.00    +0.000 NA
ATOM      5  C   UNL     1       1.540   8.133  20.340  0.00  0.00    +0.000 C 
ATOM      6  C   UNL     1       1.302   9.646  20.400  0.00  0.00    +0.000 C 
ENDROOT
BRANCH   1   7
ATOM      7  C   UNL     1      -0.548   9.785  18.657  0.00  0.00    +0.000 C 
BRANCH   7  16
ATOM      8  C   UNL     1      -5.952  12.297  19.378  0.00  0.00    +0.000 A 
ATOM      9  C   UNL     1      -5.258  11.486  18.448  0.00  0.00    +0.000 A 
ATOM     10  C   UNL     1      -3.886  11.413  18.527  0.00  0.00    +0.000 A 
ATOM     11  C   UNL     1      -3.239  12.165  19.490  0.00  0.00    +0.000 A 
ATOM     12  C   UNL     1      -3.858  13.097  20.295  0.00  0.00    +0.000 A 
ATOM     13  C   UNL     1      -5.247  13.164  20.256  0.00  0.00    +0.000 A 
ATOM     14  C   UNL     1      -1.876  11.689  19.586  0.00  0.00    +0.000 C 
ATOM     15  O   UNL     1      -1.184  11.863  20.570  0.00  0.00    +0.000 OA
ATOM     16  C   UNL     1      -1.544  10.903  18.332  0.00  0.00    +0.000 C 
ATOM     17  C   UNL     1      -2.946  10.487  17.816  0.00  0.00    +0.000 C 
BRANCH   8  19
ATOM     18  C   UNL     1      -7.759  11.170  20.358  0.00  0.00    +0.000 C 
ATOM     19  O   UNL     1      -7.325  12.224  19.489  0.00  0.00    +0.000 OA
ENDBRANCH   8  19
BRANCH  13  20
ATOM     20  O   UNL     1      -5.973  13.984  21.090  0.00  0.00    +0.000 OA
ATOM     21  C   UNL     1      -5.725  13.840  22.493  0.00  0.00    +0.000 C 
ENDBRANCH  13  20
ENDBRANCH   7  16
ENDBRANCH   1   7
BRANCH   4  22
ATOM     22  C   UNL     1       2.331   6.226  19.101  0.00  0.00    +0.000 C 
BRANCH  22  23
ATOM     23  C   UNL     1       3.616   5.583  18.574  0.00  0.00    +0.000 A 
ATOM     24  C   UNL     1       4.727   5.540  19.390  0.00  0.00    +0.000 A 
ATOM     25  C   UNL     1       5.974   5.286  18.820  0.00  0.00    +0.000 A 
ATOM     26  C   UNL     1       6.035   4.900  17.452  0.00  0.00    +0.000 A 
ATOM     27  C   UNL     1       7.230   4.549  16.786  0.00  0.00    +0.000 A 
ATOM     28  C   UNL     1       7.230   4.188  15.435  0.00  0.00    +0.000 A 
ATOM     29  C   UNL     1       6.024   4.159  14.741  0.00  0.00    +0.000 A 
ATOM     30  C   UNL     1       4.845   4.505  15.394  0.00  0.00    +0.000 A 
ATOM     31  C   UNL     1       4.824   4.884  16.728  0.00  0.00    +0.000 A 
ATOM     32  N   UNL     1       3.647   5.254  17.254  0.00  0.00    +0.000 NA
BRANCH  25  33
ATOM     33  N   UNL     1       7.100   5.263  19.669  0.00  0.00    +0.000 N 
ATOM     34  H   UNL     1       7.890   5.772  19.286  0.00  0.00    +0.000 HD
ATOM     35  H   UNL     1       7.371   4.324  19.945  0.00  0.00    +0.000 HD
ENDBRANCH  25  33
ENDBRANCH  22  23
ENDBRANCH   4  22
TORSDOF 7
ENDMDL
MODEL 7
REMARK VINA RESULT:      -7.7      5.128     10.853
REMARK  Name = 
REMARK  9 active torsions:
REMARK  status: ('A' for Active; 'I' for Inactive)
REMARK    1  A    between atoms: C_1  and  O_2
REMARK    2  A    between atoms: O_2  and  C_3
REMARK    3  A    between atoms: C_8  and  O_9
REMARK    4  A    between atoms: O_9  and  C_10
REMARK    5  A    between atoms: C_13  and  C_14
REMARK    6  A    between atoms: C_14  and  C_15
REMARK    7  A    between atoms: N_18  and  C_19
REMARK    8  A    between atoms: C_19  and  C_20
REMARK    9  A    between atoms: C_22  and  N_23
REMARK                            x       y       z     vdW  Elec       q    Type
REMARK                         _______ _______ _______ _____ _____    ______ ____
ROOT
ATOM      1  C   UNL     1       0.809  10.939  18.938  0.00  0.00    +0.000 C 
ATOM      2  C   UNL     1       1.050  12.298  19.588  0.00  0.00    +0.000 C 
ATOM      3  C   UNL     1       0.183  12.505  20.828  0.00  0.00    +0.000 C 
ATOM      4  N   UNL     1      -1.259  12.305  20.605  0.00  0.00    +0.000 NA
ATOM      5  C   UNL     1      -1.585  11.102  19.825  0.00  0.00    +0.000 C 
ATOM      6  C   UNL     1      -0.690  10.879  18.600  0.00  0.00    +0.000 C 
ENDROOT
BRANCH   1   7
ATOM      7  C   UNL     1       1.245   9.721  19.781  0.00  0.00    +0.000 C 
BRANCH   7  16
ATOM      8  C   UNL     1       4.953   5.402  17.872  0.00  0.00    +0.000 A 
ATOM      9  C   UNL     1       4.323   6.572  17.385  0.00  0.00    +0.000 A 
ATOM     10  C   UNL     1       3.265   7.099  18.090  0.00  0.00    +0.000 A 
ATOM     11  C   UNL     1       2.836   6.440  19.228  0.00  0.00    +0.000 A 
ATOM     12  C   UNL     1       3.304   5.209  19.637  0.00  0.00    +0.000 A 
ATOM     13  C   UNL     1       4.395   4.675  18.959  0.00  0.00    +0.000 A 
ATOM     14  C   UNL     1       1.955   7.329  19.952  0.00  0.00    +0.000 C 
ATOM     15  O   UNL     1       1.730   7.211  21.141  0.00  0.00    +0.000 OA
ATOM     16  C   UNL     1       1.476   8.416  19.010  0.00  0.00    +0.000 C 
ATOM     17  C   UNL     1       2.572   8.416  17.912  0.00  0.00    +0.000 C 
BRANCH   8  19
ATOM     18  C   UNL     1       6.311   5.345  15.963  0.00  0.00    +0.000 C 
ATOM     19  O   UNL     1       6.148   4.971  17.337  0.00  0.00    +0.000 OA
ENDBRANCH   8  19
BRANCH  13  20
ATOM     20  O   UNL     1       5.007   3.505  19.346  0.00  0.00    +0.000 OA
ATOM     21  C   UNL     1       4.144   2.467  19.825  0.00  0.00    +0.000 C 
ENDBRANCH  13  20
ENDBRANCH   7  16
ENDBRANCH   1   7
BRANCH   4  22
ATOM     22  C   UNL     1      -1.958  12.238  21.915  0.00  0.00    +0.000 C 
BRANCH  22  23
ATOM     23  C   UNL     1      -3.404  12.735  21.851  0.00  0.00    +0.000 A 
ATOM     24  C   UNL     1      -3.770  13.604  20.844  0.00  0.00    +0.000 A 
ATOM     25  C   UNL     1      -4.956  14.326  20.974  0.00  0.00    +0.000 A 
ATOM     26  C   UNL     1      -5.838  14.007  22.044  0.00  0.00    +0.000 A 
ATOM     27  C   UNL     1      -7.096  14.618  22.234  0.00  0.00    +0.000 A 
ATOM     28  C   UNL     1      -7.917  14.272  23.312  0.00  0.00    +0.000 A 
ATOM     29  C   UNL     1      -7.486  13.293  24.205  0.00  0.00    +0.000 A 
ATOM     30  C   UNL     1      -6.246  12.691  24.020  0.00  0.00    +0.000 A 
ATOM     31  C   UNL     1      -5.408  13.031  22.969  0.00  0.00    +0.000 A 
ATOM     32  N   UNL     1      -4.209  12.435  22.907  0.00  0.00    +0.000 NA
BRANCH  25  33
ATOM     33  N   UNL     1      -5.303  15.222  19.941  0.00  0.00    +0.000 N 
ATOM     34  H   UNL     1      -4.690  16.030  19.902  0.00  0.00    +0.000 HD
ATOM     35  H   UNL     1      -6.277  15.506  19.971  0.00  0.00    +0.000 HD
ENDBRANCH  25  33
ENDBRANCH  22  23
ENDBRANCH   4  22
TORSDOF 7
ENDMDL
MODEL 8
REMARK VINA RESULT:      -7.7      5.271     10.945
REMARK  Name = 
REMARK  9 active torsions:
REMARK  status: ('A' for Active; 'I' for Inactive)
REMARK    1  A    between atoms: C_1  and  O_2
REMARK    2  A    between atoms: O_2  and  C_3
REMARK    3  A    between atoms: C_8  and  O_9
REMARK    4  A    between atoms: O_9  and  C_10
REMARK    5  A    between atoms: C_13  and  C_14
REMARK    6  A    between atoms: C_14  and  C_15
REMARK    7  A    between atoms: N_18  and  C_19
REMARK    8  A    between atoms: C_19  and  C_20
REMARK    9  A    between atoms: C_22  and  N_23
REMARK                            x       y       z     vdW  Elec       q    Type
REMARK                         _______ _______ _______ _____ _____    ______ ____
ROOT
ATOM      1  C   UNL     1       0.465  11.433  19.148  0.00  0.00    +0.000 C 
ATOM      2  C   UNL     1       1.110  12.048  20.386  0.00  0.00    +0.000 C 
ATOM      3  C   UNL     1       0.214  11.937  21.617  0.00  0.00    +0.000 C 
ATOM      4  N   UNL     1      -1.142  12.481  21.436  0.00  0.00    +0.000 NA
ATOM      5  C   UNL     1      -1.786  12.085  20.175  0.00  0.00    +0.000 C 
ATOM      6  C   UNL     1      -0.873  12.164  18.946  0.00  0.00    +0.000 C 
ENDROOT
BRANCH   1   7
ATOM      7  C   UNL     1       0.266   9.902  19.203  0.00  0.00    +0.000 C 
BRANCH   7  16
ATOM      8  C   UNL     1       3.112   4.622  19.461  0.00  0.00    +0.000 A 
ATOM      9  C   UNL     1       2.373   5.488  20.302  0.00  0.00    +0.000 A 
ATOM     10  C   UNL     1       2.174   6.790  19.903  0.00  0.00    +0.000 A 
ATOM     11  C   UNL     1       2.738   7.209  18.712  0.00  0.00    +0.000 A 
ATOM     12  C   UNL     1       3.607   6.453  17.954  0.00  0.00    +0.000 A 
ATOM     13  C   UNL     1       3.795   5.124  18.321  0.00  0.00    +0.000 A 
ATOM     14  C   UNL     1       2.140   8.477  18.357  0.00  0.00    +0.000 C 
ATOM     15  O   UNL     1       2.126   8.905  17.219  0.00  0.00    +0.000 OA
ATOM     16  C   UNL     1       1.498   9.077  19.593  0.00  0.00    +0.000 C 
ATOM     17  C   UNL     1       1.272   7.833  20.491  0.00  0.00    +0.000 C 
BRANCH   8  19
ATOM     18  C   UNL     1       1.935   2.601  19.302  0.00  0.00    +0.000 C 
ATOM     19  O   UNL     1       3.142   3.265  19.701  0.00  0.00    +0.000 OA
ENDBRANCH   8  19
BRANCH  13  20
ATOM     20  O   UNL     1       4.559   4.252  17.578  0.00  0.00    +0.000 OA
ATOM     21  C   UNL     1       5.971   4.488  17.579  0.00  0.00    +0.000 C 
ENDBRANCH  13  20
ENDBRANCH   7  16
ENDBRANCH   1   7
BRANCH   4  22
ATOM     22  C   UNL     1      -2.002  12.057  22.573  0.00  0.00    +0.000 C 
BRANCH  22  23
ATOM     23  C   UNL     1      -3.205  12.977  22.792  0.00  0.00    +0.000 A 
ATOM     24  C   UNL     1      -2.997  14.249  23.284  0.00  0.00    +0.000 A 
ATOM     25  C   UNL     1      -4.078  14.954  23.810  0.00  0.00    +0.000 A 
ATOM     26  C   UNL     1      -5.386  14.419  23.655  0.00  0.00    +0.000 A 
ATOM     27  C   UNL     1      -6.561  15.076  24.081  0.00  0.00    +0.000 A 
ATOM     28  C   UNL     1      -7.822  14.494  23.911  0.00  0.00    +0.000 A 
ATOM     29  C   UNL     1      -7.916  13.249  23.295  0.00  0.00    +0.000 A 
ATOM     30  C   UNL     1      -6.760  12.599  22.875  0.00  0.00    +0.000 A 
ATOM     31  C   UNL     1      -5.499  13.149  23.049  0.00  0.00    +0.000 A 
ATOM     32  N   UNL     1      -4.441  12.421  22.663  0.00  0.00    +0.000 NA
BRANCH  25  33
ATOM     33  N   UNL     1      -3.839  16.246  24.324  0.00  0.00    +0.000 N 
ATOM     34  H   UNL     1      -4.234  16.978  23.742  0.00  0.00    +0.000 HD
ATOM     35  H   UNL     1      -2.858  16.424  24.514  0.00  0.00    +0.000 HD
ENDBRANCH  25  33
ENDBRANCH  22  23
ENDBRANCH   4  22
TORSDOF 7
ENDMDL
MODEL 9
REMARK VINA RESULT:      -7.7      4.862     10.822
REMARK  Name = 
REMARK  9 active torsions:
REMARK  status: ('A' for Active; 'I' for Inactive)
REMARK    1  A    between atoms: C_1  and  O_2
REMARK    2  A    between atoms: O_2  and  C_3
REMARK    3  A    between atoms: C_8  and  O_9
REMARK    4  A    between atoms: O_9  and  C_10
REMARK    5  A    between atoms: C_13  and  C_14
REMARK    6  A    between atoms: C_14  and  C_15
REMARK    7  A    between atoms: N_18  and  C_19
REMARK    8  A    between atoms: C_19  and  C_20
REMARK    9  A    between atoms: C_22  and  N_23
REMARK                            x       y       z     vdW  Elec       q    Type
REMARK                         _______ _______ _______ _____ _____    ______ ____
ROOT
ATOM      1  C   UNL     1       0.731  11.654  18.721  0.00  0.00    +0.000 C 
ATOM      2  C   UNL     1       0.900  13.069  19.264  0.00  0.00    +0.000 C 
ATOM      3  C   UNL     1       0.496  13.174  20.733  0.00  0.00    +0.000 C 
ATOM      4  N   UNL     1      -0.860  12.683  21.030  0.00  0.00    +0.000 NA
ATOM      5  C   UNL     1      -1.184  11.396  20.398  0.00  0.00    +0.000 C 
ATOM      6  C   UNL     1      -0.746  11.281  18.933  0.00  0.00    +0.000 C 
ENDROOT
BRANCH   1   7
ATOM      7  C   UNL     1       1.672  10.597  19.338  0.00  0.00    +0.000 C 
BRANCH   7  16
ATOM      8  C   UNL     1       3.536   4.911  18.849  0.00  0.00    +0.000 A 
ATOM      9  C   UNL     1       3.349   6.055  18.037  0.00  0.00    +0.000 A 
ATOM     10  C   UNL     1       2.571   7.086  18.513  0.00  0.00    +0.000 A 
ATOM     11  C   UNL     1       1.973   6.944  19.752  0.00  0.00    +0.000 A 
ATOM     12  C   UNL     1       1.985   5.782  20.494  0.00  0.00    +0.000 A 
ATOM     13  C   UNL     1       2.792   4.740  20.047  0.00  0.00    +0.000 A 
ATOM     14  C   UNL     1       1.489   8.243  20.165  0.00  0.00    +0.000 C 
ATOM     15  O   UNL     1       1.276   8.529  21.327  0.00  0.00    +0.000 OA
ATOM     16  C   UNL     1       1.399   9.141  18.946  0.00  0.00    +0.000 C 
ATOM     17  C   UNL     1       2.386   8.466  17.958  0.00  0.00    +0.000 C 
BRANCH   8  19
ATOM     18  C   UNL     1       5.737   4.537  18.133  0.00  0.00    +0.000 C 
ATOM     19  O   UNL     1       4.482   3.963  18.521  0.00  0.00    +0.000 OA
ENDBRANCH   8  19
BRANCH  13  20
ATOM     20  O   UNL     1       2.960   3.575  20.762  0.00  0.00    +0.000 OA
ATOM     21  C   UNL     1       1.791   3.051  21.402  0.00  0.00    +0.000 C 
ENDBRANCH  13  20
ENDBRANCH   7  16
ENDBRANCH   1   7
BRANCH   4  22
ATOM     22  C   UNL     1      -1.030  12.556  22.502  0.00  0.00    +0.000 C 
BRANCH  22  23
ATOM     23  C   UNL     1      -2.336  13.170  23.011  0.00  0.00    +0.000 A 
ATOM     24  C   UNL     1      -3.142  12.429  23.850  0.00  0.00    +0.000 A 
ATOM     25  C   UNL     1      -4.467  12.823  24.033  0.00  0.00    +0.000 A 
ATOM     26  C   UNL     1      -4.891  14.071  23.500  0.00  0.00    +0.000 A 
ATOM     27  C   UNL     1      -6.184  14.607  23.682  0.00  0.00    +0.000 A 
ATOM     28  C   UNL     1      -6.548  15.837  23.124  0.00  0.00    +0.000 A 
ATOM     29  C   UNL     1      -5.607  16.551  22.386  0.00  0.00    +0.000 A 
ATOM     30  C   UNL     1      -4.332  16.025  22.204  0.00  0.00    +0.000 A 
ATOM     31  C   UNL     1      -3.955  14.800  22.733  0.00  0.00    +0.000 A 
ATOM     32  N   UNL     1      -2.723  14.351  22.456  0.00  0.00    +0.000 NA
BRANCH  25  33
ATOM     33  N   UNL     1      -5.279  12.042  24.882  0.00  0.00    +0.000 N 
ATOM     34  H   UNL     1      -5.363  12.435  25.814  0.00  0.00    +0.000 HD
ATOM     35  H   UNL     1      -4.993  11.069  24.923  0.00  0.00    +0.000 HD
ENDBRANCH  25  33
ENDBRANCH  22  23
ENDBRANCH   4  22
TORSDOF 7
ENDMDL
