MODEL 1
REMARK VINA RESULT:      -8.2      0.000      0.000
REMARK  Name = 
REMARK  9 active torsions:
REMARK  status: ('A' for Active; 'I' for Inactive)
REMARK    1  A    between atoms: C_1  and  N_2
REMARK    2  A    between atoms: C_3  and  C_5
REMARK    3  A    between atoms: C_10  and  C_11
REMARK    4  A    between atoms: C_11  and  C_12
REMARK    5  A    between atoms: C_12  and  N_13
REMARK    6  A    between atoms: N_16  and  C_17
REMARK    7  A    between atoms: C_19  and  C_20
REMARK    8  A    between atoms: C_24  and  O_25
REMARK    9  A    between atoms: O_25  and  C_26
REMARK                            x       y       z     vdW  Elec       q    Type
REMARK                         _______ _______ _______ _____ _____    ______ ____
ROOT
ATOM      1  C   UNL     1       1.806   5.080  21.067  0.00  0.00    +0.000 C 
ENDROOT
BRANCH   1   2
ATOM      2  N   UNL     1       2.049   6.388  20.480  0.00  0.00    +0.000 N 
ATOM      3  C   UNL     1       1.137   7.395  20.690  0.00  0.00    +0.000 C 
ATOM      4  O   UNL     1       0.066   7.205  21.254  0.00  0.00    +0.000 OA
ATOM      5  N   UNL     1       1.557   8.601  20.163  0.00  0.00    +0.000 N 
ATOM      6  H   UNL     1       3.000   6.647  20.264  0.00  0.00    +0.000 HD
ATOM      7  H   UNL     1       2.183   8.533  19.379  0.00  0.00    +0.000 HD
BRANCH   5   8
ATOM      8  C   UNL     1       0.683   9.709  20.189  0.00  0.00    +0.000 A 
ATOM      9  C   UNL     1       0.008  10.035  18.999  0.00  0.00    +0.000 A 
ATOM     10  C   UNL     1      -0.891  11.107  18.930  0.00  0.00    +0.000 A 
ATOM     11  C   UNL     1      -1.617  11.372  17.642  0.00  0.00    +0.000 C 
ATOM     12  C   UNL     1      -1.074  11.886  20.077  0.00  0.00    +0.000 A 
ATOM     13 CL   UNL     1      -2.105  13.271  20.064  0.00  0.00    +0.000 Cl
ATOM     14  C   UNL     1      -0.427  11.553  21.275  0.00  0.00    +0.000 A 
ATOM     15  C   UNL     1       0.440  10.454  21.348  0.00  0.00    +0.000 A 
BRANCH  15  16
ATOM     16  O   UNL     1       0.935  10.201  22.601  0.00  0.00    +0.000 OA
ATOM     17  C   UNL     1       0.046   9.608  23.542  0.00  0.00    +0.000 C 
ENDBRANCH  15  16
ENDBRANCH   5   8
ENDBRANCH   1   2
BRANCH   1  18
ATOM     18  C   UNL     1       2.966   4.105  20.827  0.00  0.00    +0.000 C 
BRANCH  18  24
ATOM     19  C   UNL     1       6.522   4.654  15.386  0.00  0.00    +0.000 A 
ATOM     20  C   UNL     1       5.209   4.225  15.540  0.00  0.00    +0.000 A 
ATOM     21  C   UNL     1       4.661   4.192  16.825  0.00  0.00    +0.000 A 
ATOM     22  C   UNL     1       3.342   3.761  17.050  0.00  0.00    +0.000 A 
ATOM     23  C   UNL     1       2.808   3.746  18.341  0.00  0.00    +0.000 A 
ATOM     24  C   UNL     1       3.571   4.165  19.439  0.00  0.00    +0.000 A 
ATOM     25  C   UNL     1       4.901   4.556  19.213  0.00  0.00    +0.000 A 
ATOM     26  C   UNL     1       5.447   4.587  17.916  0.00  0.00    +0.000 A 
ATOM     27  C   UNL     1       6.762   5.000  17.649  0.00  0.00    +0.000 A 
ATOM     28  N   UNL     1       7.324   5.051  16.411  0.00  0.00    +0.000 NA
BRANCH  19  31
ATOM     29  C   UNL     1       7.052   3.711  11.759  0.00  0.00    +0.000 C 
ATOM     30  N   UNL     1       6.586   3.777  13.117  0.00  0.00    +0.000 N 
ATOM     31  C   UNL     1       7.106   4.695  14.006  0.00  0.00    +0.000 C 
ATOM     32  O   UNL     1       7.980   5.502  13.710  0.00  0.00    +0.000 OA
ATOM     33  H   UNL     1       5.866   3.148  13.462  0.00  0.00    +0.000 HD
ENDBRANCH  19  31
ENDBRANCH  18  24
ENDBRANCH   1  18
TORSDOF 6
ENDMDL
MODEL 2
REMARK VINA RESULT:      -8.0      3.596      5.526
REMARK  Name = 
REMARK  9 active torsions:
REMARK  status: ('A' for Active; 'I' for Inactive)
REMARK    1  A    between atoms: C_1  and  N_2
REMARK    2  A    between atoms: C_3  and  C_5
REMARK    3  A    between atoms: C_10  and  C_11
REMARK    4  A    between atoms: C_11  and  C_12
REMARK    5  A    between atoms: C_12  and  N_13
REMARK    6  A    between atoms: N_16  and  C_17
REMARK    7  A    between atoms: C_19  and  C_20
REMARK    8  A    between atoms: C_24  and  O_25
REMARK    9  A    between atoms: O_25  and  C_26
REMARK                            x       y       z     vdW  Elec       q    Type
REMARK                         _______ _______ _______ _____ _____    ______ ____
ROOT
ATOM      1  C   UNL     1       1.663  10.780  18.963  0.00  0.00    +0.000 C 
ENDROOT
BRANCH   1   2
ATOM      2  N   UNL     1       0.591  11.696  18.605  0.00  0.00    +0.000 N 
ATOM      3  C   UNL     1      -0.707  11.356  18.904  0.00  0.00    +0.000 C 
ATOM      4  O   UNL     1      -1.012  10.257  19.354  0.00  0.00    +0.000 OA
ATOM      5  N   UNL     1      -1.597  12.368  18.602  0.00  0.00    +0.000 N 
ATOM      6  H   UNL     1       0.813  12.674  18.500  0.00  0.00    +0.000 HD
ATOM      7  H   UNL     1      -1.310  12.987  17.864  0.00  0.00    +0.000 HD
BRANCH   5   8
ATOM      8  C   UNL     1      -2.982  12.135  18.738  0.00  0.00    +0.000 A 
ATOM      9  C   UNL     1      -3.604  12.571  19.922  0.00  0.00    +0.000 A 
ATOM     10  C   UNL     1      -4.976  12.398  20.142  0.00  0.00    +0.000 A 
ATOM     11  C   UNL     1      -5.587  12.930  21.407  0.00  0.00    +0.000 C 
ATOM     12  C   UNL     1      -5.720  11.733  19.161  0.00  0.00    +0.000 A 
ATOM     13 CL   UNL     1      -7.403  11.410  19.380  0.00  0.00    +0.000 Cl
ATOM     14  C   UNL     1      -5.116  11.321  17.966  0.00  0.00    +0.000 A 
ATOM     15  C   UNL     1      -3.750  11.533  17.735  0.00  0.00    +0.000 A 
BRANCH  15  16
ATOM     16  O   UNL     1      -3.317  11.152  16.492  0.00  0.00    +0.000 OA
ATOM     17  C   UNL     1      -3.057   9.766  16.291  0.00  0.00    +0.000 C 
ENDBRANCH  15  16
ENDBRANCH   5   8
ENDBRANCH   1   2
BRANCH   1  18
ATOM     18  C   UNL     1       2.002   9.803  17.830  0.00  0.00    +0.000 C 
BRANCH  18  24
ATOM     19  C   UNL     1       3.915   3.644  18.808  0.00  0.00    +0.000 A 
ATOM     20  C   UNL     1       3.185   4.482  19.643  0.00  0.00    +0.000 A 
ATOM     21  C   UNL     1       2.898   5.778  19.207  0.00  0.00    +0.000 A 
ATOM     22  C   UNL     1       2.172   6.678  20.006  0.00  0.00    +0.000 A 
ATOM     23  C   UNL     1       1.884   7.966  19.547  0.00  0.00    +0.000 A 
ATOM     24  C   UNL     1       2.307   8.388  18.279  0.00  0.00    +0.000 A 
ATOM     25  C   UNL     1       3.068   7.499  17.502  0.00  0.00    +0.000 A 
ATOM     26  C   UNL     1       3.353   6.195  17.948  0.00  0.00    +0.000 A 
ATOM     27  C   UNL     1       4.085   5.269  17.187  0.00  0.00    +0.000 A 
ATOM     28  N   UNL     1       4.375   3.999  17.577  0.00  0.00    +0.000 NA
BRANCH  19  31
ATOM     29  C   UNL     1       5.346   0.892  20.977  0.00  0.00    +0.000 C 
ATOM     30  N   UNL     1       4.987   2.166  20.417  0.00  0.00    +0.000 N 
ATOM     31  C   UNL     1       4.216   2.251  19.275  0.00  0.00    +0.000 C 
ATOM     32  O   UNL     1       3.792   1.273  18.671  0.00  0.00    +0.000 OA
ATOM     33  H   UNL     1       5.293   3.037  20.840  0.00  0.00    +0.000 HD
ENDBRANCH  19  31
ENDBRANCH  18  24
ENDBRANCH   1  18
TORSDOF 6
ENDMDL
MODEL 3
REMARK VINA RESULT:      -8.0      1.661      2.303
REMARK  Name = 
REMARK  9 active torsions:
REMARK  status: ('A' for Active; 'I' for Inactive)
REMARK    1  A    between atoms: C_1  and  N_2
REMARK    2  A    between atoms: C_3  and  C_5
REMARK    3  A    between atoms: C_10  and  C_11
REMARK    4  A    between atoms: C_11  and  C_12
REMARK    5  A    between atoms: C_12  and  N_13
REMARK    6  A    between atoms: N_16  and  C_17
REMARK    7  A    between atoms: C_19  and  C_20
REMARK    8  A    between atoms: C_24  and  O_25
REMARK    9  A    between atoms: O_25  and  C_26
REMARK                            x       y       z     vdW  Elec       q    Type
REMARK                         _______ _______ _______ _____ _____    ______ ____
ROOT
ATOM      1  C   UNL     1       1.230   6.267  20.776  0.00  0.00    +0.000 C 
ENDROOT
BRANCH   1   2
ATOM      2  N   UNL     1       1.589   7.595  21.248  0.00  0.00    +0.000 N 
ATOM      3  C   UNL     1       0.639   8.590  21.231  0.00  0.00    +0.000 C 
ATOM      4  O   UNL     1      -0.466   8.434  20.723  0.00  0.00    +0.000 OA
ATOM      5  N   UNL     1       1.095   9.759  21.806  0.00  0.00    +0.000 N 
ATOM      6  H   UNL     1       2.354   7.682  21.899  0.00  0.00    +0.000 HD
ATOM      7  H   UNL     1       2.089   9.900  21.765  0.00  0.00    +0.000 HD
BRANCH   5   8
ATOM      8  C   UNL     1       0.284  10.914  21.762  0.00  0.00    +0.000 A 
ATOM      9  C   UNL     1      -0.842  10.952  22.604  0.00  0.00    +0.000 A 
ATOM     10  C   UNL     1      -1.698  12.060  22.642  0.00  0.00    +0.000 A 
ATOM     11  C   UNL     1      -2.857  12.058  23.598  0.00  0.00    +0.000 C 
ATOM     12  C   UNL     1      -1.429  13.128  21.780  0.00  0.00    +0.000 A 
ATOM     13 CL   UNL     1      -2.471  14.503  21.705  0.00  0.00    +0.000 Cl
ATOM     14  C   UNL     1      -0.294  13.112  20.958  0.00  0.00    +0.000 A 
ATOM     15  C   UNL     1       0.581  12.017  20.954  0.00  0.00    +0.000 A 
BRANCH  15  16
ATOM     16  O   UNL     1       1.690  12.177  20.165  0.00  0.00    +0.000 OA
ATOM     17  C   UNL     1       2.361  13.430  20.234  0.00  0.00    +0.000 C 
ENDBRANCH  15  16
ENDBRANCH   5   8
ENDBRANCH   1   2
BRANCH   1  18
ATOM     18  C   UNL     1       2.384   5.266  20.911  0.00  0.00    +0.000 C 
BRANCH  18  24
ATOM     19  C   UNL     1       5.951   5.066  15.452  0.00  0.00    +0.000 A 
ATOM     20  C   UNL     1       5.236   4.050  16.074  0.00  0.00    +0.000 A 
ATOM     21  C   UNL     1       4.543   4.341  17.252  0.00  0.00    +0.000 A 
ATOM     22  C   UNL     1       3.807   3.357  17.934  0.00  0.00    +0.000 A 
ATOM     23  C   UNL     1       3.112   3.671  19.105  0.00  0.00    +0.000 A 
ATOM     24  C   UNL     1       3.127   4.973  19.622  0.00  0.00    +0.000 A 
ATOM     25  C   UNL     1       3.898   5.943  18.959  0.00  0.00    +0.000 A 
ATOM     26  C   UNL     1       4.592   5.642  17.773  0.00  0.00    +0.000 A 
ATOM     27  C   UNL     1       5.348   6.592  17.067  0.00  0.00    +0.000 A 
ATOM     28  N   UNL     1       6.027   6.344  15.915  0.00  0.00    +0.000 NA
BRANCH  19  31
ATOM     29  C   UNL     1       6.737   3.355  12.169  0.00  0.00    +0.000 C 
ATOM     30  N   UNL     1       6.136   3.752  13.412  0.00  0.00    +0.000 N 
ATOM     31  C   UNL     1       6.688   4.754  14.185  0.00  0.00    +0.000 C 
ATOM     32  O   UNL     1       7.705   5.363  13.875  0.00  0.00    +0.000 OA
ATOM     33  H   UNL     1       5.292   3.305  13.761  0.00  0.00    +0.000 HD
ENDBRANCH  19  31
ENDBRANCH  18  24
ENDBRANCH   1  18
TORSDOF 6
ENDMDL
MODEL 4
REMARK VINA RESULT:      -8.0      1.145      2.106
REMARK  Name = 
REMARK  9 active torsions:
REMARK  status: ('A' for Active; 'I' for Inactive)
REMARK    1  A    between atoms: C_1  and  N_2
REMARK    2  A    between atoms: C_3  and  C_5
REMARK    3  A    between atoms: C_10  and  C_11
REMARK    4  A    between atoms: C_11  and  C_12
REMARK    5  A    between atoms: C_12  and  N_13
REMARK    6  A    between atoms: N_16  and  C_17
REMARK    7  A    between atoms: C_19  and  C_20
REMARK    8  A    between atoms: C_24  and  O_25
REMARK    9  A    between atoms: O_25  and  C_26
REMARK                            x       y       z     vdW  Elec       q    Type
REMARK                         _______ _______ _______ _____ _____    ______ ____
ROOT
ATOM      1  C   UNL     1       1.496   5.606  21.054  0.00  0.00    +0.000 C 
ENDROOT
BRANCH   1   2
ATOM      2  N   UNL     1       1.682   7.002  20.688  0.00  0.00    +0.000 N 
ATOM      3  C   UNL     1       0.643   7.885  20.871  0.00  0.00    +0.000 C 
ATOM      4  O   UNL     1      -0.475   7.522  21.219  0.00  0.00    +0.000 OA
ATOM      5  N   UNL     1       1.005   9.186  20.582  0.00  0.00    +0.000 N 
ATOM      6  H   UNL     1       2.620   7.371  20.670  0.00  0.00    +0.000 HD
ATOM      7  H   UNL     1       1.747   9.287  19.912  0.00  0.00    +0.000 HD
BRANCH   5   8
ATOM      8  C   UNL     1       0.022  10.198  20.604  0.00  0.00    +0.000 A 
ATOM      9  C   UNL     1      -0.280  10.787  21.844  0.00  0.00    +0.000 A 
ATOM     10  C   UNL     1      -1.230  11.809  21.965  0.00  0.00    +0.000 A 
ATOM     11  C   UNL     1      -1.471  12.429  23.312  0.00  0.00    +0.000 C 
ATOM     12  C   UNL     1      -1.914  12.210  20.813  0.00  0.00    +0.000 A 
ATOM     13 CL   UNL     1      -3.154  13.410  20.879  0.00  0.00    +0.000 Cl
ATOM     14  C   UNL     1      -1.601  11.650  19.567  0.00  0.00    +0.000 A 
ATOM     15  C   UNL     1      -0.620  10.655  19.447  0.00  0.00    +0.000 A 
BRANCH  15  16
ATOM     16  O   UNL     1      -0.363  10.261  18.160  0.00  0.00    +0.000 OA
ATOM     17  C   UNL     1      -1.484  10.069  17.303  0.00  0.00    +0.000 C 
ENDBRANCH  15  16
ENDBRANCH   5   8
ENDBRANCH   1   2
BRANCH   1  18
ATOM     18  C   UNL     1       2.795   4.797  20.957  0.00  0.00    +0.000 C 
BRANCH  18  24
ATOM     19  C   UNL     1       6.364   4.730  15.497  0.00  0.00    +0.000 A 
ATOM     20  C   UNL     1       5.022   4.417  15.675  0.00  0.00    +0.000 A 
ATOM     21  C   UNL     1       4.477   4.506  16.959  0.00  0.00    +0.000 A 
ATOM     22  C   UNL     1       3.129   4.196  17.208  0.00  0.00    +0.000 A 
ATOM     23  C   UNL     1       2.600   4.302  18.497  0.00  0.00    +0.000 A 
ATOM     24  C   UNL     1       3.398   4.724  19.568  0.00  0.00    +0.000 A 
ATOM     25  C   UNL     1       4.755   4.993  19.321  0.00  0.00    +0.000 A 
ATOM     26  C   UNL     1       5.296   4.903  18.025  0.00  0.00    +0.000 A 
ATOM     27  C   UNL     1       6.639   5.192  17.735  0.00  0.00    +0.000 A 
ATOM     28  N   UNL     1       7.199   5.124  16.497  0.00  0.00    +0.000 NA
BRANCH  19  31
ATOM     29  C   UNL     1       6.931   3.409  11.996  0.00  0.00    +0.000 C 
ATOM     30  N   UNL     1       6.464   3.607  13.340  0.00  0.00    +0.000 N 
ATOM     31  C   UNL     1       6.945   4.641  14.118  0.00  0.00    +0.000 C 
ATOM     32  O   UNL     1       7.783   5.446  13.728  0.00  0.00    +0.000 OA
ATOM     33  H   UNL     1       5.773   2.991  13.758  0.00  0.00    +0.000 HD
ENDBRANCH  19  31
ENDBRANCH  18  24
ENDBRANCH   1  18
TORSDOF 6
ENDMDL
MODEL 5
REMARK VINA RESULT:      -7.9      1.754      2.277
REMARK  Name = 
REMARK  9 active torsions:
REMARK  status: ('A' for Active; 'I' for Inactive)
REMARK    1  A    between atoms: C_1  and  N_2
REMARK    2  A    between atoms: C_3  and  C_5
REMARK    3  A    between atoms: C_10  and  C_11
REMARK    4  A    between atoms: C_11  and  C_12
REMARK    5  A    between atoms: C_12  and  N_13
REMARK    6  A    between atoms: N_16  and  C_17
REMARK    7  A    between atoms: C_19  and  C_20
REMARK    8  A    between atoms: C_24  and  O_25
REMARK    9  A    between atoms: O_25  and  C_26
REMARK                            x       y       z     vdW  Elec       q    Type
REMARK                         _______ _______ _______ _____ _____    ______ ____
ROOT
ATOM      1  C   UNL     1       1.734   6.259  20.871  0.00  0.00    +0.000 C 
ENDROOT
BRANCH   1   2
ATOM      2  N   UNL     1       1.805   7.145  19.719  0.00  0.00    +0.000 N 
ATOM      3  C   UNL     1       1.397   8.451  19.855  0.00  0.00    +0.000 C 
ATOM      4  O   UNL     1       0.864   8.870  20.876  0.00  0.00    +0.000 OA
ATOM      5  N   UNL     1       1.625   9.192  18.711  0.00  0.00    +0.000 N 
ATOM      6  H   UNL     1       2.465   6.927  18.988  0.00  0.00    +0.000 HD
ATOM      7  H   UNL     1       1.633   8.668  17.854  0.00  0.00    +0.000 HD
BRANCH   5   8
ATOM      8  C   UNL     1       1.154  10.521  18.644  0.00  0.00    +0.000 A 
ATOM      9  C   UNL     1       2.110  11.552  18.649  0.00  0.00    +0.000 A 
ATOM     10  C   UNL     1       1.742  12.901  18.570  0.00  0.00    +0.000 A 
ATOM     11  C   UNL     1       2.815  13.952  18.530  0.00  0.00    +0.000 C 
ATOM     12  C   UNL     1       0.378  13.208  18.527  0.00  0.00    +0.000 A 
ATOM     13 CL   UNL     1      -0.171  14.845  18.504  0.00  0.00    +0.000 Cl
ATOM     14  C   UNL     1      -0.582  12.187  18.493  0.00  0.00    +0.000 A 
ATOM     15  C   UNL     1      -0.204  10.838  18.532  0.00  0.00    +0.000 A 
BRANCH  15  16
ATOM     16  O   UNL     1      -1.242   9.952  18.409  0.00  0.00    +0.000 OA
ATOM     17  C   UNL     1      -2.491  10.474  17.965  0.00  0.00    +0.000 C 
ENDBRANCH  15  16
ENDBRANCH   5   8
ENDBRANCH   1   2
BRANCH   1  18
ATOM     18  C   UNL     1       2.693   5.067  20.753  0.00  0.00    +0.000 C 
BRANCH  18  24
ATOM     19  C   UNL     1       6.372   4.982  15.367  0.00  0.00    +0.000 A 
ATOM     20  C   UNL     1       5.156   4.354  15.613  0.00  0.00    +0.000 A 
ATOM     21  C   UNL     1       4.555   4.523  16.863  0.00  0.00    +0.000 A 
ATOM     22  C   UNL     1       3.331   3.909  17.178  0.00  0.00    +0.000 A 
ATOM     23  C   UNL     1       2.740   4.100  18.430  0.00  0.00    +0.000 A 
ATOM     24  C   UNL     1       3.350   4.910  19.396  0.00  0.00    +0.000 A 
ATOM     25  C   UNL     1       4.594   5.487  19.091  0.00  0.00    +0.000 A 
ATOM     26  C   UNL     1       5.193   5.313  17.829  0.00  0.00    +0.000 A 
ATOM     27  C   UNL     1       6.420   5.898  17.478  0.00  0.00    +0.000 A 
ATOM     28  N   UNL     1       7.029   5.761  16.269  0.00  0.00    +0.000 NA
BRANCH  19  31
ATOM     29  C   UNL     1       6.972   3.547  11.916  0.00  0.00    +0.000 C 
ATOM     30  N   UNL     1       6.459   3.819  13.231  0.00  0.00    +0.000 N 
ATOM     31  C   UNL     1       7.012   4.804  14.023  0.00  0.00    +0.000 C 
ATOM     32  O   UNL     1       7.956   5.503  13.672  0.00  0.00    +0.000 OA
ATOM     33  H   UNL     1       5.680   3.292  13.616  0.00  0.00    +0.000 HD
ENDBRANCH  19  31
ENDBRANCH  18  24
ENDBRANCH   1  18
TORSDOF 6
ENDMDL
MODEL 6
REMARK VINA RESULT:      -7.9      1.523      2.367
REMARK  Name = 
REMARK  9 active torsions:
REMARK  status: ('A' for Active; 'I' for Inactive)
REMARK    1  A    between atoms: C_1  and  N_2
REMARK    2  A    between atoms: C_3  and  C_5
REMARK    3  A    between atoms: C_10  and  C_11
REMARK    4  A    between atoms: C_11  and  C_12
REMARK    5  A    between atoms: C_12  and  N_13
REMARK    6  A    between atoms: N_16  and  C_17
REMARK    7  A    between atoms: C_19  and  C_20
REMARK    8  A    between atoms: C_24  and  O_25
REMARK    9  A    between atoms: O_25  and  C_26
REMARK                            x       y       z     vdW  Elec       q    Type
REMARK                         _______ _______ _______ _____ _____    ______ ____
ROOT
ATOM      1  C   UNL     1       2.016   3.770  21.607  0.00  0.00    +0.000 C 
ENDROOT
BRANCH   1   2
ATOM      2  N   UNL     1       2.569   5.056  21.211  0.00  0.00    +0.000 N 
ATOM      3  C   UNL     1       1.718   6.045  20.777  0.00  0.00    +0.000 C 
ATOM      4  O   UNL     1       0.521   5.849  20.597  0.00  0.00    +0.000 OA
ATOM      5  N   UNL     1       2.376   7.236  20.542  0.00  0.00    +0.000 N 
ATOM      6  H   UNL     1       3.460   5.332  21.594  0.00  0.00    +0.000 HD
ATOM      7  H   UNL     1       3.346   7.150  20.295  0.00  0.00    +0.000 HD
BRANCH   5   8
ATOM      8  C   UNL     1       1.666   8.318  19.978  0.00  0.00    +0.000 A 
ATOM      9  C   UNL     1       0.793   9.033  20.817  0.00  0.00    +0.000 A 
ATOM     10  C   UNL     1       0.057  10.131  20.354  0.00  0.00    +0.000 A 
ATOM     11  C   UNL     1      -0.822  10.882  21.314  0.00  0.00    +0.000 C 
ATOM     12  C   UNL     1       0.179  10.481  19.005  0.00  0.00    +0.000 A 
ATOM     13 CL   UNL     1      -0.746  11.774  18.328  0.00  0.00    +0.000 Cl
ATOM     14  C   UNL     1       1.067   9.794  18.168  0.00  0.00    +0.000 A 
ATOM     15  C   UNL     1       1.831   8.721  18.648  0.00  0.00    +0.000 A 
BRANCH  15  16
ATOM     16  O   UNL     1       2.714   8.199  17.740  0.00  0.00    +0.000 OA
ATOM     17  C   UNL     1       3.061   6.826  17.887  0.00  0.00    +0.000 C 
ENDBRANCH  15  16
ENDBRANCH   5   8
ENDBRANCH   1   2
BRANCH   1  18
ATOM     18  C   UNL     1       2.695   2.595  20.892  0.00  0.00    +0.000 C 
BRANCH  18  24
ATOM     19  C   UNL     1       6.383   4.434  15.835  0.00  0.00    +0.000 A 
ATOM     20  C   UNL     1       5.138   3.815  15.838  0.00  0.00    +0.000 A 
ATOM     21  C   UNL     1       4.542   3.515  17.065  0.00  0.00    +0.000 A 
ATOM     22  C   UNL     1       3.288   2.883  17.138  0.00  0.00    +0.000 A 
ATOM     23  C   UNL     1       2.704   2.601  18.375  0.00  0.00    +0.000 A 
ATOM     24  C   UNL     1       3.349   2.946  19.570  0.00  0.00    +0.000 A 
ATOM     25  C   UNL     1       4.619   3.540  19.492  0.00  0.00    +0.000 A 
ATOM     26  C   UNL     1       5.213   3.840  18.252  0.00  0.00    +0.000 A 
ATOM     27  C   UNL     1       6.468   4.460  18.135  0.00  0.00    +0.000 A 
ATOM     28  N   UNL     1       7.073   4.773  16.958  0.00  0.00    +0.000 NA
BRANCH  19  31
ATOM     29  C   UNL     1       7.060   4.262  12.115  0.00  0.00    +0.000 C 
ATOM     30  N   UNL     1       6.543   4.044  13.438  0.00  0.00    +0.000 N 
ATOM     31  C   UNL     1       7.018   4.762  14.517  0.00  0.00    +0.000 C 
ATOM     32  O   UNL     1       7.891   5.616  14.428  0.00  0.00    +0.000 OA
ATOM     33  H   UNL     1       5.819   3.353  13.618  0.00  0.00    +0.000 HD
ENDBRANCH  19  31
ENDBRANCH  18  24
ENDBRANCH   1  18
TORSDOF 6
ENDMDL
MODEL 7
REMARK VINA RESULT:      -7.9      3.574      9.349
REMARK  Name = 
REMARK  9 active torsions:
REMARK  status: ('A' for Active; 'I' for Inactive)
REMARK    1  A    between atoms: C_1  and  N_2
REMARK    2  A    between atoms: C_3  and  C_5
REMARK    3  A    between atoms: C_10  and  C_11
REMARK    4  A    between atoms: C_11  and  C_12
REMARK    5  A    between atoms: C_12  and  N_13
REMARK    6  A    between atoms: N_16  and  C_17
REMARK    7  A    between atoms: C_19  and  C_20
REMARK    8  A    between atoms: C_24  and  O_25
REMARK    9  A    between atoms: O_25  and  C_26
REMARK                            x       y       z     vdW  Elec       q    Type
REMARK                         _______ _______ _______ _____ _____    ______ ____
ROOT
ATOM      1  C   UNL     1       1.922   4.128  19.165  0.00  0.00    +0.000 C 
ENDROOT
BRANCH   1   2
ATOM      2  N   UNL     1       3.087   3.493  18.569  0.00  0.00    +0.000 N 
ATOM      3  C   UNL     1       3.807   4.176  17.617  0.00  0.00    +0.000 C 
ATOM      4  O   UNL     1       3.439   5.253  17.162  0.00  0.00    +0.000 OA
ATOM      5  N   UNL     1       4.941   3.490  17.226  0.00  0.00    +0.000 N 
ATOM      6  H   UNL     1       3.558   2.770  19.091  0.00  0.00    +0.000 HD
ATOM      7  H   UNL     1       4.892   2.491  17.316  0.00  0.00    +0.000 HD
BRANCH   5   8
ATOM      8  C   UNL     1       5.727   3.999  16.169  0.00  0.00    +0.000 A 
ATOM      9  C   UNL     1       5.492   3.492  14.879  0.00  0.00    +0.000 A 
ATOM     10  C   UNL     1       6.210   3.946  13.765  0.00  0.00    +0.000 A 
ATOM     11  C   UNL     1       5.876   3.398  12.407  0.00  0.00    +0.000 C 
ATOM     12  C   UNL     1       7.211   4.900  13.973  0.00  0.00    +0.000 A 
ATOM     13 CL   UNL     1       8.197   5.462  12.671  0.00  0.00    +0.000 Cl
ATOM     14  C   UNL     1       7.434   5.432  15.250  0.00  0.00    +0.000 A 
ATOM     15  C   UNL     1       6.685   5.003  16.354  0.00  0.00    +0.000 A 
BRANCH  15  16
ATOM     16  O   UNL     1       6.955   5.670  17.520  0.00  0.00    +0.000 OA
ATOM     17  C   UNL     1       7.495   6.982  17.408  0.00  0.00    +0.000 C 
ENDBRANCH  15  16
ENDBRANCH   5   8
ENDBRANCH   1   2
BRANCH   1  18
ATOM     18  C   UNL     1       2.289   5.030  20.350  0.00  0.00    +0.000 C 
BRANCH  18  24
ATOM     19  C   UNL     1       0.469  11.284  20.717  0.00  0.00    +0.000 A 
ATOM     20  C   UNL     1       0.981  10.578  19.635  0.00  0.00    +0.000 A 
ATOM     21  C   UNL     1       1.303   9.229  19.805  0.00  0.00    +0.000 A 
ATOM     22  C   UNL     1       1.832   8.461  18.754  0.00  0.00    +0.000 A 
ATOM     23  C   UNL     1       2.137   7.110  18.941  0.00  0.00    +0.000 A 
ATOM     24  C   UNL     1       1.917   6.489  20.178  0.00  0.00    +0.000 A 
ATOM     25  C   UNL     1       1.427   7.272  21.237  0.00  0.00    +0.000 A 
ATOM     26  C   UNL     1       1.104   8.629  21.057  0.00  0.00    +0.000 A 
ATOM     27  C   UNL     1       0.585   9.435  22.084  0.00  0.00    +0.000 A 
ATOM     28  N   UNL     1       0.254  10.747  21.950  0.00  0.00    +0.000 NA
BRANCH  19  31
ATOM     29  C   UNL     1       0.215  14.651  19.008  0.00  0.00    +0.000 C 
ATOM     30  N   UNL     1       0.494  13.276  19.320  0.00  0.00    +0.000 N 
ATOM     31  C   UNL     1       0.118  12.729  20.530  0.00  0.00    +0.000 C 
ATOM     32  O   UNL     1      -0.468  13.358  21.404  0.00  0.00    +0.000 OA
ATOM     33  H   UNL     1       0.980  12.671  18.665  0.00  0.00    +0.000 HD
ENDBRANCH  19  31
ENDBRANCH  18  24
ENDBRANCH   1  18
TORSDOF 6
ENDMDL
MODEL 8
REMARK VINA RESULT:      -7.9      2.190      2.802
REMARK  Name = 
REMARK  9 active torsions:
REMARK  status: ('A' for Active; 'I' for Inactive)
REMARK    1  A    between atoms: C_1  and  N_2
REMARK    2  A    between atoms: C_3  and  C_5
REMARK    3  A    between atoms: C_10  and  C_11
REMARK    4  A    between atoms: C_11  and  C_12
REMARK    5  A    between atoms: C_12  and  N_13
REMARK    6  A    between atoms: N_16  and  C_17
REMARK    7  A    between atoms: C_19  and  C_20
REMARK    8  A    between atoms: C_24  and  O_25
REMARK    9  A    between atoms: O_25  and  C_26
REMARK                            x       y       z     vdW  Elec       q    Type
REMARK                         _______ _______ _______ _____ _____    ______ ____
ROOT
ATOM      1  C   UNL     1       1.659   7.444  21.203  0.00  0.00    +0.000 C 
ENDROOT
BRANCH   1   2
ATOM      2  N   UNL     1       0.760   8.515  20.803  0.00  0.00    +0.000 N 
ATOM      3  C   UNL     1       0.884   9.749  21.398  0.00  0.00    +0.000 C 
ATOM      4  O   UNL     1       1.644   9.952  22.338  0.00  0.00    +0.000 OA
ATOM      5  N   UNL     1       0.037  10.687  20.839  0.00  0.00    +0.000 N 
ATOM      6  H   UNL     1       0.339   8.470  19.887  0.00  0.00    +0.000 HD
ATOM      7  H   UNL     1      -0.802  10.317  20.428  0.00  0.00    +0.000 HD
BRANCH   5   8
ATOM      8  C   UNL     1      -0.046  11.973  21.415  0.00  0.00    +0.000 A 
ATOM      9  C   UNL     1       0.766  12.984  20.870  0.00  0.00    +0.000 A 
ATOM     10  C   UNL     1       0.743  14.295  21.363  0.00  0.00    +0.000 A 
ATOM     11  C   UNL     1       1.599  15.340  20.704  0.00  0.00    +0.000 C 
ATOM     12  C   UNL     1      -0.087  14.572  22.454  0.00  0.00    +0.000 A 
ATOM     13 CL   UNL     1      -0.125  16.141  23.175  0.00  0.00    +0.000 Cl
ATOM     14  C   UNL     1      -0.920  13.579  22.986  0.00  0.00    +0.000 A 
ATOM     15  C   UNL     1      -0.922  12.279  22.462  0.00  0.00    +0.000 A 
BRANCH  15  16
ATOM     16  O   UNL     1      -1.845  11.439  23.026  0.00  0.00    +0.000 OA
ATOM     17  C   UNL     1      -3.069  12.020  23.467  0.00  0.00    +0.000 C 
ENDBRANCH  15  16
ENDBRANCH   5   8
ENDBRANCH   1   2
BRANCH   1  18
ATOM     18  C   UNL     1       1.291   6.100  20.563  0.00  0.00    +0.000 C 
BRANCH  18  24
ATOM     19  C   UNL     1       5.476   5.283  15.625  0.00  0.00    +0.000 A 
ATOM     20  C   UNL     1       4.823   4.326  16.394  0.00  0.00    +0.000 A 
ATOM     21  C   UNL     1       3.966   4.754  17.410  0.00  0.00    +0.000 A 
ATOM     22  C   UNL     1       3.282   3.838  18.228  0.00  0.00    +0.000 A 
ATOM     23  C   UNL     1       2.419   4.286  19.232  0.00  0.00    +0.000 A 
ATOM     24  C   UNL     1       2.212   5.655  19.443  0.00  0.00    +0.000 A 
ATOM     25  C   UNL     1       2.929   6.566  18.650  0.00  0.00    +0.000 A 
ATOM     26  C   UNL     1       3.791   6.128  17.628  0.00  0.00    +0.000 A 
ATOM     27  C   UNL     1       4.502   7.009  16.796  0.00  0.00    +0.000 A 
ATOM     28  N   UNL     1       5.338   6.627  15.794  0.00  0.00    +0.000 NA
BRANCH  19  31
ATOM     29  C   UNL     1       6.564   3.528  12.453  0.00  0.00    +0.000 C 
ATOM     30  N   UNL     1       5.803   4.034  13.562  0.00  0.00    +0.000 N 
ATOM     31  C   UNL     1       6.391   4.822  14.531  0.00  0.00    +0.000 C 
ATOM     32  O   UNL     1       7.574   5.142  14.515  0.00  0.00    +0.000 OA
ATOM     33  H   UNL     1       4.815   3.822  13.669  0.00  0.00    +0.000 HD
ENDBRANCH  19  31
ENDBRANCH  18  24
ENDBRANCH   1  18
TORSDOF 6
ENDMDL
MODEL 9
REMARK VINA RESULT:      -7.8      3.668      9.108
REMARK  Name = 
REMARK  9 active torsions:
REMARK  status: ('A' for Active; 'I' for Inactive)
REMARK    1  A    between atoms: C_1  and  N_2
REMARK    2  A    between atoms: C_3  and  C_5
REMARK    3  A    between atoms: C_10  and  C_11
REMARK    4  A    between atoms: C_11  and  C_12
REMARK    5  A    between atoms: C_12  and  N_13
REMARK    6  A    between atoms: N_16  and  C_17
REMARK    7  A    between atoms: C_19  and  C_20
REMARK    8  A    between atoms: C_24  and  O_25
REMARK    9  A    between atoms: O_25  and  C_26
REMARK                            x       y       z     vdW  Elec       q    Type
REMARK                         _______ _______ _______ _____ _____    ______ ____
ROOT
ATOM      1  C   UNL     1       1.910   4.174  19.155  0.00  0.00    +0.000 C 
ENDROOT
BRANCH   1   2
ATOM      2  N   UNL     1       3.054   3.520  18.541  0.00  0.00    +0.000 N 
ATOM      3  C   UNL     1       3.785   4.200  17.595  0.00  0.00    +0.000 C 
ATOM      4  O   UNL     1       3.441   5.294  17.160  0.00  0.00    +0.000 OA
ATOM      5  N   UNL     1       4.899   3.494  17.185  0.00  0.00    +0.000 N 
ATOM      6  H   UNL     1       3.511   2.777  19.048  0.00  0.00    +0.000 HD
ATOM      7  H   UNL     1       4.825   2.494  17.259  0.00  0.00    +0.000 HD
BRANCH   5   8
ATOM      8  C   UNL     1       5.690   4.000  16.131  0.00  0.00    +0.000 A 
ATOM      9  C   UNL     1       5.470   3.480  14.843  0.00  0.00    +0.000 A 
ATOM     10  C   UNL     1       6.194   3.930  13.732  0.00  0.00    +0.000 A 
ATOM     11  C   UNL     1       5.877   3.369  12.375  0.00  0.00    +0.000 C 
ATOM     12  C   UNL     1       7.187   4.893  13.941  0.00  0.00    +0.000 A 
ATOM     13 CL   UNL     1       8.180   5.453  12.643  0.00  0.00    +0.000 Cl
ATOM     14  C   UNL     1       7.395   5.438  15.215  0.00  0.00    +0.000 A 
ATOM     15  C   UNL     1       6.639   5.012  16.316  0.00  0.00    +0.000 A 
BRANCH  15  16
ATOM     16  O   UNL     1       6.894   5.690  17.479  0.00  0.00    +0.000 OA
ATOM     17  C   UNL     1       7.743   5.053  18.429  0.00  0.00    +0.000 C 
ENDBRANCH  15  16
ENDBRANCH   5   8
ENDBRANCH   1   2
BRANCH   1  18
ATOM     18  C   UNL     1       2.300   5.006  20.383  0.00  0.00    +0.000 C 
BRANCH  18  24
ATOM     19  C   UNL     1       1.014  11.259  19.039  0.00  0.00    +0.000 A 
ATOM     20  C   UNL     1       0.691  10.517  20.169  0.00  0.00    +0.000 A 
ATOM     21  C   UNL     1       1.078   9.176  20.224  0.00  0.00    +0.000 A 
ATOM     22  C   UNL     1       0.776   8.369  21.334  0.00  0.00    +0.000 A 
ATOM     23  C   UNL     1       1.182   7.032  21.374  0.00  0.00    +0.000 A 
ATOM     24  C   UNL     1       1.904   6.468  20.314  0.00  0.00    +0.000 A 
ATOM     25  C   UNL     1       2.167   7.268  19.189  0.00  0.00    +0.000 A 
ATOM     26  C   UNL     1       1.775   8.619  19.142  0.00  0.00    +0.000 A 
ATOM     27  C   UNL     1       2.046   9.456  18.048  0.00  0.00    +0.000 A 
ATOM     28  N   UNL     1       1.691  10.767  17.966  0.00  0.00    +0.000 NA
BRANCH  19  31
ATOM     29  C   UNL     1       0.746  14.884  20.094  0.00  0.00    +0.000 C 
ATOM     30  N   UNL     1       1.061  13.484  20.025  0.00  0.00    +0.000 N 
ATOM     31  C   UNL     1       0.603  12.700  18.985  0.00  0.00    +0.000 C 
ATOM     32  O   UNL     1      -0.086  13.130  18.068  0.00  0.00    +0.000 OA
ATOM     33  H   UNL     1       1.623  13.030  20.740  0.00  0.00    +0.000 HD
ENDBRANCH  19  31
ENDBRANCH  18  24
ENDBRANCH   1  18
TORSDOF 6
ENDMDL
