MODEL 1
REMARK VINA RESULT:      -7.5      0.000      0.000
REMARK  Name = 
REMARK  2 active torsions:
REMARK  status: ('A' for Active; 'I' for Inactive)
REMARK    1  A    between atoms: C_7  and  N_8
REMARK    2  A    between atoms: C_16  and  N_17
REMARK                            x       y       z     vdW  Elec       q    Type
REMARK                         _______ _______ _______ _____ _____    ______ ____
ROOT
ATOM      1  O   UNL     1       7.227   5.493  20.089  0.00  0.00    +0.000 OA
ATOM      2  N   UNL     1       7.053   4.987  18.964  0.00  0.00    +0.000 N 
ATOM      3  O   UNL     1       8.232   4.796  18.153  0.00  0.00    +0.000 OA
ATOM      4  N   UNL     1       7.827   4.364  16.879  0.00  0.00    +0.000 NA
ATOM      5  C   UNL     1       6.495   4.346  16.908  0.00  0.00    +0.000 A 
ATOM      6  C   UNL     1       6.001   4.673  18.219  0.00  0.00    +0.000 A 
ATOM      7  C   UNL     1       4.583   4.917  18.594  0.00  0.00    +0.000 C 
ATOM      8  C   UNL     1       3.799   4.841  17.285  0.00  0.00    +0.000 C 
ATOM      9  C   UNL     1       4.221   3.635  16.425  0.00  0.00    +0.000 C 
ATOM     10  C   UNL     1       5.588   3.863  15.784  0.00  0.00    +0.000 C 
ENDROOT
BRANCH   7  11
ATOM     11  N   UNL     1       3.990   4.106  19.671  0.00  0.00    +0.000 NA
ATOM     12  C   UNL     1       4.280   2.664  19.775  0.00  0.00    +0.000 C 
ATOM     13  C   UNL     1       3.366   1.713  18.963  0.00  0.00    +0.000 C 
ATOM     14  O   UNL     1       1.987   1.928  19.269  0.00  0.00    +0.000 OA
ATOM     15  C   UNL     1       1.618   3.276  18.980  0.00  0.00    +0.000 C 
ATOM     16  C   UNL     1       2.506   4.288  19.748  0.00  0.00    +0.000 C 
ENDBRANCH   7  11
BRANCH  10  17
ATOM     17  N   UNL     1       5.530   4.655  14.537  0.00  0.00    +0.000 NA
ATOM     18  C   UNL     1       5.150   4.024  13.261  0.00  0.00    +0.000 C 
ATOM     19  C   UNL     1       6.302   3.424  12.411  0.00  0.00    +0.000 C 
ATOM     20  O   UNL     1       7.334   4.385  12.178  0.00  0.00    +0.000 OA
ATOM     21  C   UNL     1       7.870   4.836  13.422  0.00  0.00    +0.000 C 
ATOM     22  C   UNL     1       6.770   5.458  14.317  0.00  0.00    +0.000 C 
ENDBRANCH  10  17
TORSDOF 2
ENDMDL
MODEL 2
REMARK VINA RESULT:      -7.4      1.236      5.878
REMARK  Name = 
REMARK  2 active torsions:
REMARK  status: ('A' for Active; 'I' for Inactive)
REMARK    1  A    between atoms: C_7  and  N_8
REMARK    2  A    between atoms: C_16  and  N_17
REMARK                            x       y       z     vdW  Elec       q    Type
REMARK                         _______ _______ _______ _____ _____    ______ ____
ROOT
ATOM      1  O   UNL     1       8.093   4.113  16.963  0.00  0.00    +0.000 OA
ATOM      2  N   UNL     1       7.199   4.520  17.729  0.00  0.00    +0.000 N 
ATOM      3  O   UNL     1       7.625   4.988  19.027  0.00  0.00    +0.000 OA
ATOM      4  N   UNL     1       6.482   5.258  19.796  0.00  0.00    +0.000 NA
ATOM      5  C   UNL     1       5.441   4.927  19.032  0.00  0.00    +0.000 A 
ATOM      6  C   UNL     1       5.872   4.524  17.719  0.00  0.00    +0.000 A 
ATOM      7  C   UNL     1       5.021   3.929  16.654  0.00  0.00    +0.000 C 
ATOM      8  C   UNL     1       3.642   3.755  17.287  0.00  0.00    +0.000 C 
ATOM      9  C   UNL     1       3.207   5.002  18.079  0.00  0.00    +0.000 C 
ATOM     10  C   UNL     1       3.975   5.120  19.393  0.00  0.00    +0.000 C 
ENDROOT
BRANCH   7  11
ATOM     11  N   UNL     1       4.976   4.589  15.339  0.00  0.00    +0.000 NA
ATOM     12  C   UNL     1       5.527   3.924  14.144  0.00  0.00    +0.000 C 
ATOM     13  C   UNL     1       7.036   4.138  13.866  0.00  0.00    +0.000 C 
ATOM     14  O   UNL     1       7.365   5.527  13.812  0.00  0.00    +0.000 OA
ATOM     15  C   UNL     1       7.031   6.165  15.044  0.00  0.00    +0.000 C 
ATOM     16  C   UNL     1       5.533   5.978  15.397  0.00  0.00    +0.000 C 
ENDBRANCH   7  11
BRANCH  10  17
ATOM     17  N   UNL     1       3.406   4.302  20.485  0.00  0.00    +0.000 NA
ATOM     18  C   UNL     1       3.369   2.832  20.383  0.00  0.00    +0.000 C 
ATOM     19  C   UNL     1       2.105   2.211  19.733  0.00  0.00    +0.000 C 
ATOM     20  O   UNL     1       0.911   2.674  20.367  0.00  0.00    +0.000 OA
ATOM     21  C   UNL     1       0.825   4.096  20.267  0.00  0.00    +0.000 C 
ATOM     22  C   UNL     1       2.058   4.781  20.909  0.00  0.00    +0.000 C 
ENDBRANCH  10  17
TORSDOF 2
ENDMDL
MODEL 3
REMARK VINA RESULT:      -6.9      2.336      6.194
REMARK  Name = 
REMARK  2 active torsions:
REMARK  status: ('A' for Active; 'I' for Inactive)
REMARK    1  A    between atoms: C_7  and  N_8
REMARK    2  A    between atoms: C_16  and  N_17
REMARK                            x       y       z     vdW  Elec       q    Type
REMARK                         _______ _______ _______ _____ _____    ______ ____
ROOT
ATOM      1  O   UNL     1       5.702   7.431  17.590  0.00  0.00    +0.000 OA
ATOM      2  N   UNL     1       4.597   6.858  17.634  0.00  0.00    +0.000 N 
ATOM      3  O   UNL     1       3.428   7.706  17.607  0.00  0.00    +0.000 OA
ATOM      4  N   UNL     1       2.295   6.903  17.817  0.00  0.00    +0.000 NA
ATOM      5  C   UNL     1       2.755   5.667  18.008  0.00  0.00    +0.000 A 
ATOM      6  C   UNL     1       4.183   5.614  17.836  0.00  0.00    +0.000 A 
ATOM      7  C   UNL     1       5.066   4.454  18.132  0.00  0.00    +0.000 C 
ATOM      8  C   UNL     1       4.151   3.391  18.738  0.00  0.00    +0.000 C 
ATOM      9  C   UNL     1       2.839   3.238  17.947  0.00  0.00    +0.000 C 
ATOM     10  C   UNL     1       1.902   4.419  18.193  0.00  0.00    +0.000 C 
ENDROOT
BRANCH   7  11
ATOM     11  N   UNL     1       5.926   3.933  17.056  0.00  0.00    +0.000 NA
ATOM     12  C   UNL     1       7.308   4.421  16.894  0.00  0.00    +0.000 C 
ATOM     13  C   UNL     1       7.498   5.687  16.024  0.00  0.00    +0.000 C 
ATOM     14  O   UNL     1       6.913   5.525  14.731  0.00  0.00    +0.000 OA
ATOM     15  C   UNL     1       5.517   5.254  14.847  0.00  0.00    +0.000 C 
ATOM     16  C   UNL     1       5.249   4.003  15.722  0.00  0.00    +0.000 C 
ENDBRANCH   7  11
BRANCH  10  17
ATOM     17  N   UNL     1       1.103   4.291  19.429  0.00  0.00    +0.000 NA
ATOM     18  C   UNL     1       1.491   5.010  20.656  0.00  0.00    +0.000 C 
ATOM     19  C   UNL     1       2.455   4.270  21.621  0.00  0.00    +0.000 C 
ATOM     20  O   UNL     1       1.957   2.976  21.966  0.00  0.00    +0.000 OA
ATOM     21  C   UNL     1       1.793   2.186  20.788  0.00  0.00    +0.000 C 
ATOM     22  C   UNL     1       0.830   2.866  19.783  0.00  0.00    +0.000 C 
ENDBRANCH  10  17
TORSDOF 2
ENDMDL
MODEL 4
REMARK VINA RESULT:      -6.9      3.299      5.419
REMARK  Name = 
REMARK  2 active torsions:
REMARK  status: ('A' for Active; 'I' for Inactive)
REMARK    1  A    between atoms: C_7  and  N_8
REMARK    2  A    between atoms: C_16  and  N_17
REMARK                            x       y       z     vdW  Elec       q    Type
REMARK                         _______ _______ _______ _____ _____    ______ ____
ROOT
ATOM      1  O   UNL     1       6.721   4.470  17.196  0.00  0.00    +0.000 OA
ATOM      2  N   UNL     1       5.689   5.167  17.216  0.00  0.00    +0.000 N 
ATOM      3  O   UNL     1       5.610   6.232  16.244  0.00  0.00    +0.000 OA
ATOM      4  N   UNL     1       4.462   6.994  16.516  0.00  0.00    +0.000 NA
ATOM      5  C   UNL     1       3.917   6.455  17.607  0.00  0.00    +0.000 A 
ATOM      6  C   UNL     1       4.637   5.279  18.017  0.00  0.00    +0.000 A 
ATOM      7  C   UNL     1       4.433   4.512  19.275  0.00  0.00    +0.000 C 
ATOM      8  C   UNL     1       3.379   5.292  20.059  0.00  0.00    +0.000 C 
ATOM      9  C   UNL     1       2.202   5.731  19.169  0.00  0.00    +0.000 C 
ATOM     10  C   UNL     1       2.603   6.880  18.246  0.00  0.00    +0.000 C 
ENDROOT
BRANCH   7  11
ATOM     11  N   UNL     1       4.136   3.073  19.181  0.00  0.00    +0.000 NA
ATOM     12  C   UNL     1       3.442   2.523  18.002  0.00  0.00    +0.000 C 
ATOM     13  C   UNL     1       1.894   2.535  18.041  0.00  0.00    +0.000 C 
ATOM     14  O   UNL     1       1.396   1.885  19.212  0.00  0.00    +0.000 OA
ATOM     15  C   UNL     1       1.890   2.530  20.386  0.00  0.00    +0.000 C 
ATOM     16  C   UNL     1       3.439   2.570  20.407  0.00  0.00    +0.000 C 
ENDBRANCH   7  11
BRANCH  10  17
ATOM     17  N   UNL     1       2.532   8.208  18.892  0.00  0.00    +0.000 NA
ATOM     18  C   UNL     1       1.840   8.381  20.182  0.00  0.00    +0.000 C 
ATOM     19  C   UNL     1       0.326   8.721  20.119  0.00  0.00    +0.000 C 
ATOM     20  O   UNL     1       0.080   9.858  19.291  0.00  0.00    +0.000 OA
ATOM     21  C   UNL     1       0.548   9.606  17.965  0.00  0.00    +0.000 C 
ATOM     22  C   UNL     1       2.060   9.270  17.955  0.00  0.00    +0.000 C 
ENDBRANCH  10  17
TORSDOF 2
ENDMDL
MODEL 5
REMARK VINA RESULT:      -6.8      2.490      3.524
REMARK  Name = 
REMARK  2 active torsions:
REMARK  status: ('A' for Active; 'I' for Inactive)
REMARK    1  A    between atoms: C_7  and  N_8
REMARK    2  A    between atoms: C_16  and  N_17
REMARK                            x       y       z     vdW  Elec       q    Type
REMARK                         _______ _______ _______ _____ _____    ______ ____
ROOT
ATOM      1  O   UNL     1       1.489   7.621  17.791  0.00  0.00    +0.000 OA
ATOM      2  N   UNL     1       2.579   7.039  17.947  0.00  0.00    +0.000 N 
ATOM      3  O   UNL     1       3.769   7.826  17.725  0.00  0.00    +0.000 OA
ATOM      4  N   UNL     1       4.883   6.974  17.797  0.00  0.00    +0.000 NA
ATOM      5  C   UNL     1       4.393   5.751  17.999  0.00  0.00    +0.000 A 
ATOM      6  C   UNL     1       2.963   5.786  18.155  0.00  0.00    +0.000 A 
ATOM      7  C   UNL     1       2.053   4.612  18.226  0.00  0.00    +0.000 C 
ATOM      8  C   UNL     1       2.945   3.392  18.002  0.00  0.00    +0.000 C 
ATOM      9  C   UNL     1       4.247   3.469  18.822  0.00  0.00    +0.000 C 
ATOM     10  C   UNL     1       5.215   4.491  18.231  0.00  0.00    +0.000 C 
ENDROOT
BRANCH   7  11
ATOM     11  N   UNL     1       1.170   4.475  19.397  0.00  0.00    +0.000 NA
ATOM     12  C   UNL     1       1.538   5.079  20.691  0.00  0.00    +0.000 C 
ATOM     13  C   UNL     1       2.420   4.221  21.631  0.00  0.00    +0.000 C 
ATOM     14  O   UNL     1       1.835   2.941  21.871  0.00  0.00    +0.000 OA
ATOM     15  C   UNL     1       1.656   2.237  20.642  0.00  0.00    +0.000 C 
ATOM     16  C   UNL     1       0.792   3.047  19.642  0.00  0.00    +0.000 C 
ENDBRANCH   7  11
BRANCH  10  17
ATOM     17  N   UNL     1       6.022   3.961  17.112  0.00  0.00    +0.000 NA
ATOM     18  C   UNL     1       7.380   4.473  16.854  0.00  0.00    +0.000 C 
ATOM     19  C   UNL     1       7.495   5.690  15.898  0.00  0.00    +0.000 C 
ATOM     20  O   UNL     1       6.836   5.441  14.654  0.00  0.00    +0.000 OA
ATOM     21  C   UNL     1       5.453   5.167  14.881  0.00  0.00    +0.000 C 
ATOM     22  C   UNL     1       5.267   3.951  15.823  0.00  0.00    +0.000 C 
ENDBRANCH  10  17
TORSDOF 2
ENDMDL
MODEL 6
REMARK VINA RESULT:      -6.7      2.406      6.187
REMARK  Name = 
REMARK  2 active torsions:
REMARK  status: ('A' for Active; 'I' for Inactive)
REMARK    1  A    between atoms: C_7  and  N_8
REMARK    2  A    between atoms: C_16  and  N_17
REMARK                            x       y       z     vdW  Elec       q    Type
REMARK                         _______ _______ _______ _____ _____    ______ ____
ROOT
ATOM      1  O   UNL     1       2.936   8.052  18.220  0.00  0.00    +0.000 OA
ATOM      2  N   UNL     1       2.798   6.827  18.035  0.00  0.00    +0.000 N 
ATOM      3  O   UNL     1       1.463   6.367  17.732  0.00  0.00    +0.000 OA
ATOM      4  N   UNL     1       1.475   4.963  17.709  0.00  0.00    +0.000 NA
ATOM      5  C   UNL     1       2.719   4.603  18.026  0.00  0.00    +0.000 A 
ATOM      6  C   UNL     1       3.568   5.756  18.172  0.00  0.00    +0.000 A 
ATOM      7  C   UNL     1       4.965   5.764  18.682  0.00  0.00    +0.000 C 
ATOM      8  C   UNL     1       5.254   4.323  19.100  0.00  0.00    +0.000 C 
ATOM      9  C   UNL     1       4.775   3.308  18.045  0.00  0.00    +0.000 C 
ATOM     10  C   UNL     1       3.254   3.179  18.051  0.00  0.00    +0.000 C 
ENDROOT
BRANCH   7  11
ATOM     11  N   UNL     1       6.020   6.344  17.835  0.00  0.00    +0.000 NA
ATOM     12  C   UNL     1       5.852   6.423  16.372  0.00  0.00    +0.000 C 
ATOM     13  C   UNL     1       6.293   5.183  15.556  0.00  0.00    +0.000 C 
ATOM     14  O   UNL     1       7.644   4.821  15.844  0.00  0.00    +0.000 OA
ATOM     15  C   UNL     1       7.797   4.533  17.234  0.00  0.00    +0.000 C 
ATOM     16  C   UNL     1       7.357   5.730  18.116  0.00  0.00    +0.000 C 
ENDBRANCH   7  11
BRANCH  10  17
ATOM     17  N   UNL     1       2.745   2.253  19.085  0.00  0.00    +0.000 NA
ATOM     18  C   UNL     1       1.299   1.999  19.222  0.00  0.00    +0.000 C 
ATOM     19  C   UNL     1       0.515   2.938  20.176  0.00  0.00    +0.000 C 
ATOM     20  O   UNL     1       1.114   2.984  21.473  0.00  0.00    +0.000 OA
ATOM     21  C   UNL     1       2.459   3.455  21.371  0.00  0.00    +0.000 C 
ATOM     22  C   UNL     1       3.303   2.551  20.437  0.00  0.00    +0.000 C 
ENDBRANCH  10  17
TORSDOF 2
ENDMDL
MODEL 7
REMARK VINA RESULT:      -6.7      1.183      6.142
REMARK  Name = 
REMARK  2 active torsions:
REMARK  status: ('A' for Active; 'I' for Inactive)
REMARK    1  A    between atoms: C_7  and  N_8
REMARK    2  A    between atoms: C_16  and  N_17
REMARK                            x       y       z     vdW  Elec       q    Type
REMARK                         _______ _______ _______ _____ _____    ______ ____
ROOT
ATOM      1  O   UNL     1       8.245   4.615  17.143  0.00  0.00    +0.000 OA
ATOM      2  N   UNL     1       7.153   4.590  17.743  0.00  0.00    +0.000 N 
ATOM      3  O   UNL     1       7.195   4.823  19.168  0.00  0.00    +0.000 OA
ATOM      4  N   UNL     1       5.908   4.608  19.688  0.00  0.00    +0.000 NA
ATOM      5  C   UNL     1       5.157   4.223  18.656  0.00  0.00    +0.000 A 
ATOM      6  C   UNL     1       5.906   4.267  17.428  0.00  0.00    +0.000 A 
ATOM      7  C   UNL     1       5.462   3.753  16.104  0.00  0.00    +0.000 C 
ATOM      8  C   UNL     1       4.107   3.096  16.358  0.00  0.00    +0.000 C 
ATOM      9  C   UNL     1       3.197   3.967  17.243  0.00  0.00    +0.000 C 
ATOM     10  C   UNL     1       3.660   3.953  18.698  0.00  0.00    +0.000 C 
ENDROOT
BRANCH   7  11
ATOM     11  N   UNL     1       5.452   4.678  14.958  0.00  0.00    +0.000 NA
ATOM     12  C   UNL     1       4.991   4.227  13.632  0.00  0.00    +0.000 C 
ATOM     13  C   UNL     1       6.053   3.575  12.714  0.00  0.00    +0.000 C 
ATOM     14  O   UNL     1       7.187   4.426  12.541  0.00  0.00    +0.000 OA
ATOM     15  C   UNL     1       7.788   4.717  13.803  0.00  0.00    +0.000 C 
ATOM     16  C   UNL     1       6.774   5.359  14.784  0.00  0.00    +0.000 C 
ENDBRANCH   7  11
BRANCH  10  17
ATOM     17  N   UNL     1       3.177   2.781  19.459  0.00  0.00    +0.000 NA
ATOM     18  C   UNL     1       1.846   2.207  19.193  0.00  0.00    +0.000 C 
ATOM     19  C   UNL     1       0.662   2.785  20.013  0.00  0.00    +0.000 C 
ATOM     20  O   UNL     1       0.928   2.741  21.416  0.00  0.00    +0.000 OA
ATOM     21  C   UNL     1       2.103   3.495  21.715  0.00  0.00    +0.000 C 
ATOM     22  C   UNL     1       3.329   2.961  20.933  0.00  0.00    +0.000 C 
ENDBRANCH  10  17
TORSDOF 2
ENDMDL
MODEL 8
REMARK VINA RESULT:      -6.7      5.029      7.144
REMARK  Name = 
REMARK  2 active torsions:
REMARK  status: ('A' for Active; 'I' for Inactive)
REMARK    1  A    between atoms: C_7  and  N_8
REMARK    2  A    between atoms: C_16  and  N_17
REMARK                            x       y       z     vdW  Elec       q    Type
REMARK                         _______ _______ _______ _____ _____    ______ ____
ROOT
ATOM      1  O   UNL     1       1.906  10.445  17.894  0.00  0.00    +0.000 OA
ATOM      2  N   UNL     1       2.236   9.272  18.154  0.00  0.00    +0.000 N 
ATOM      3  O   UNL     1       3.003   8.579  17.146  0.00  0.00    +0.000 OA
ATOM      4  N   UNL     1       3.149   7.240  17.545  0.00  0.00    +0.000 NA
ATOM      5  C   UNL     1       2.473   7.125  18.688  0.00  0.00    +0.000 A 
ATOM      6  C   UNL     1       1.951   8.398  19.111  0.00  0.00    +0.000 A 
ATOM      7  C   UNL     1       1.011   8.637  20.238  0.00  0.00    +0.000 C 
ATOM      8  C   UNL     1       0.655   7.250  20.770  0.00  0.00    +0.000 C 
ATOM      9  C   UNL     1       1.896   6.351  20.919  0.00  0.00    +0.000 C 
ATOM     10  C   UNL     1       2.404   5.878  19.558  0.00  0.00    +0.000 C 
ENDROOT
BRANCH   7  11
ATOM     11  N   UNL     1       1.407   9.579  21.297  0.00  0.00    +0.000 NA
ATOM     12  C   UNL     1       1.213   9.239  22.719  0.00  0.00    +0.000 C 
ATOM     13  C   UNL     1      -0.164   9.592  23.334  0.00  0.00    +0.000 C 
ATOM     14  O   UNL     1      -0.483  10.971  23.144  0.00  0.00    +0.000 OA
ATOM     15  C   UNL     1      -0.507  11.288  21.752  0.00  0.00    +0.000 C 
ATOM     16  C   UNL     1       0.838  10.945  21.064  0.00  0.00    +0.000 C 
ENDBRANCH   7  11
BRANCH  10  17
ATOM     17  N   UNL     1       1.684   4.696  19.038  0.00  0.00    +0.000 NA
ATOM     18  C   UNL     1       1.028   3.749  19.957  0.00  0.00    +0.000 C 
ATOM     19  C   UNL     1       1.891   2.562  20.464  0.00  0.00    +0.000 C 
ATOM     20  O   UNL     1       2.478   1.842  19.379  0.00  0.00    +0.000 OA
ATOM     21  C   UNL     1       3.307   2.713  18.608  0.00  0.00    +0.000 C 
ATOM     22  C   UNL     1       2.502   3.918  18.061  0.00  0.00    +0.000 C 
ENDBRANCH  10  17
TORSDOF 2
ENDMDL
MODEL 9
REMARK VINA RESULT:      -6.6      5.442      8.171
REMARK  Name = 
REMARK  2 active torsions:
REMARK  status: ('A' for Active; 'I' for Inactive)
REMARK    1  A    between atoms: C_7  and  N_8
REMARK    2  A    between atoms: C_16  and  N_17
REMARK                            x       y       z     vdW  Elec       q    Type
REMARK                         _______ _______ _______ _____ _____    ______ ____
ROOT
ATOM      1  O   UNL     1       3.777   7.205  17.277  0.00  0.00    +0.000 OA
ATOM      2  N   UNL     1       2.885   7.852  17.860  0.00  0.00    +0.000 N 
ATOM      3  O   UNL     1       2.593   9.165  17.335  0.00  0.00    +0.000 OA
ATOM      4  N   UNL     1       1.683   9.794  18.200  0.00  0.00    +0.000 NA
ATOM      5  C   UNL     1       1.482   8.938  19.202  0.00  0.00    +0.000 A 
ATOM      6  C   UNL     1       2.178   7.700  18.972  0.00  0.00    +0.000 A 
ATOM      7  C   UNL     1       2.330   6.579  19.937  0.00  0.00    +0.000 C 
ATOM      8  C   UNL     1       1.682   7.068  21.232  0.00  0.00    +0.000 C 
ATOM      9  C   UNL     1       0.324   7.749  20.978  0.00  0.00    +0.000 C 
ATOM     10  C   UNL     1       0.506   9.131  20.354  0.00  0.00    +0.000 C 
ENDROOT
BRANCH   7  11
ATOM     11  N   UNL     1       1.878   5.237  19.534  0.00  0.00    +0.000 NA
ATOM     12  C   UNL     1       1.219   4.342  20.504  0.00  0.00    +0.000 C 
ATOM     13  C   UNL     1       2.147   3.445  21.360  0.00  0.00    +0.000 C 
ATOM     14  O   UNL     1       3.025   2.671  20.542  0.00  0.00    +0.000 OA
ATOM     15  C   UNL     1       3.832   3.524  19.732  0.00  0.00    +0.000 C 
ATOM     16  C   UNL     1       2.967   4.466  18.856  0.00  0.00    +0.000 C 
ENDBRANCH   7  11
BRANCH  10  17
ATOM     17  N   UNL     1       0.787  10.193  21.344  0.00  0.00    +0.000 NA
ATOM     18  C   UNL     1       0.347  10.053  22.744  0.00  0.00    +0.000 C 
ATOM     19  C   UNL     1      -1.067  10.595  23.086  0.00  0.00    +0.000 C 
ATOM     20  O   UNL     1      -1.219  11.954  22.674  0.00  0.00    +0.000 OA
ATOM     21  C   UNL     1      -1.017  12.062  21.264  0.00  0.00    +0.000 C 
ATOM     22  C   UNL     1       0.385  11.545  20.855  0.00  0.00    +0.000 C 
ENDBRANCH  10  17
TORSDOF 2
ENDMDL
