MODEL 1
REMARK VINA RESULT:      -6.9      0.000      0.000
REMARK  Name = 
REMARK  6 active torsions:
REMARK  status: ('A' for Active; 'I' for Inactive)
REMARK    1  A    between atoms: C_1  and  O_2
REMARK    2  A    between atoms: O_2  and  C_3
REMARK    3  A    between atoms: C_8  and  N_9
REMARK    4  A    between atoms: C_10  and  S_11
REMARK    5  A    between atoms: N_15  and  C_16
REMARK    6  A    between atoms: C_16  and  C_17
REMARK                            x       y       z     vdW  Elec       q    Type
REMARK                         _______ _______ _______ _____ _____    ______ ____
ROOT
ATOM      1  N   UNL     1       2.597   6.529  19.646  0.00  0.00    +0.000 NA
ATOM      2  C   UNL     1       2.134   7.687  19.266  0.00  0.00    +0.000 C 
ATOM      3  N   UNL     1       1.510   8.539  20.168  0.00  0.00    +0.000 N 
ATOM      4  C   UNL     1       1.283   9.977  19.985  0.00  0.00    +0.000 C 
ATOM      5  C   UNL     1      -0.213  10.307  20.203  0.00  0.00    +0.000 C 
ATOM      6  N   UNL     1      -0.745   9.886  21.520  0.00  0.00    +0.000 NA
ATOM      7  C   UNL     1      -0.411   8.447  21.711  0.00  0.00    +0.000 C 
ATOM      8  C   UNL     1       1.069   8.056  21.485  0.00  0.00    +0.000 C 
ENDROOT
BRANCH   1  14
ATOM      9  C   UNL     1       2.649   4.495  18.214  0.00  0.00    +0.000 A 
ATOM     10  C   UNL     1       3.382   3.645  17.377  0.00  0.00    +0.000 A 
ATOM     11  C   UNL     1       4.692   3.964  17.026  0.00  0.00    +0.000 A 
ATOM     12  C   UNL     1       5.289   5.117  17.524  0.00  0.00    +0.000 A 
ATOM     13  C   UNL     1       4.583   5.933  18.412  0.00  0.00    +0.000 A 
ATOM     14  C   UNL     1       3.270   5.624  18.796  0.00  0.00    +0.000 A 
BRANCH   9  16
ATOM     15  C   UNL     1       1.003   3.181  19.335  0.00  0.00    +0.000 C 
ATOM     16  O   UNL     1       1.325   4.305  18.534  0.00  0.00    +0.000 OA
ENDBRANCH   9  16
ENDBRANCH   1  14
BRANCH   2  17
ATOM     17  S   UNL     1       2.213   8.256  17.590  0.00  0.00    +0.000 S 
ATOM     18  H   UNL     1       3.195   7.406  17.256  0.00  0.00    +0.000 HD
ENDBRANCH   2  17
BRANCH   6  19
ATOM     19  C   UNL     1      -0.247  10.788  22.580  0.00  0.00    +0.000 C 
BRANCH  19  20
ATOM     20  C   UNL     1      -1.182  11.944  22.860  0.00  0.00    +0.000 A 
ATOM     21  C   UNL     1      -0.839  13.264  22.472  0.00  0.00    +0.000 A 
ATOM     22  C   UNL     1      -1.805  14.270  22.433  0.00  0.00    +0.000 A 
ATOM     23  C   UNL     1      -3.095  13.909  22.742  0.00  0.00    +0.000 A 
ATOM     24  C   UNL     1      -3.413  12.648  23.204  0.00  0.00    +0.000 A 
ATOM     25  C   UNL     1      -2.472  11.659  23.330  0.00  0.00    +0.000 A 
ATOM     26  O   UNL     1      -4.756  12.474  23.348  0.00  0.00    +0.000 OA
ATOM     27  C   UNL     1      -5.204  13.604  22.575  0.00  0.00    +0.000 C 
ATOM     28  O   UNL     1      -4.217  14.655  22.527  0.00  0.00    +0.000 OA
ENDBRANCH  19  20
ENDBRANCH   6  19
TORSDOF 5
ENDMDL
MODEL 2
REMARK VINA RESULT:      -6.9      2.129      9.937
REMARK  Name = 
REMARK  6 active torsions:
REMARK  status: ('A' for Active; 'I' for Inactive)
REMARK    1  A    between atoms: C_1  and  O_2
REMARK    2  A    between atoms: O_2  and  C_3
REMARK    3  A    between atoms: C_8  and  N_9
REMARK    4  A    between atoms: C_10  and  S_11
REMARK    5  A    between atoms: N_15  and  C_16
REMARK    6  A    between atoms: C_16  and  C_17
REMARK                            x       y       z     vdW  Elec       q    Type
REMARK                         _______ _______ _______ _____ _____    ______ ____
ROOT
ATOM      1  N   UNL     1      -1.414  11.974  22.925  0.00  0.00    +0.000 NA
ATOM      2  C   UNL     1      -1.055  11.620  21.722  0.00  0.00    +0.000 C 
ATOM      3  N   UNL     1      -0.510  10.366  21.479  0.00  0.00    +0.000 N 
ATOM      4  C   UNL     1      -0.410   9.706  20.173  0.00  0.00    +0.000 C 
ATOM      5  C   UNL     1       1.050   9.265  19.913  0.00  0.00    +0.000 C 
ATOM      6  N   UNL     1       1.616   8.382  20.960  0.00  0.00    +0.000 NA
ATOM      7  C   UNL     1       1.410   9.042  22.279  0.00  0.00    +0.000 C 
ATOM      8  C   UNL     1      -0.029   9.523  22.583  0.00  0.00    +0.000 C 
ENDROOT
BRANCH   1  14
ATOM      9  C   UNL     1      -3.395  13.459  23.181  0.00  0.00    +0.000 A 
ATOM     10  C   UNL     1      -3.905  14.718  23.519  0.00  0.00    +0.000 A 
ATOM     11  C   UNL     1      -3.060  15.706  24.021  0.00  0.00    +0.000 A 
ATOM     12  C   UNL     1      -1.701  15.455  24.169  0.00  0.00    +0.000 A 
ATOM     13  C   UNL     1      -1.178  14.222  23.772  0.00  0.00    +0.000 A 
ATOM     14  C   UNL     1      -2.004  13.218  23.245  0.00  0.00    +0.000 A 
BRANCH   9  16
ATOM     15  C   UNL     1      -5.030  12.615  21.661  0.00  0.00    +0.000 C 
ATOM     16  O   UNL     1      -4.170  12.400  22.768  0.00  0.00    +0.000 OA
ENDBRANCH   9  16
ENDBRANCH   1  14
BRANCH   2  17
ATOM     17  S   UNL     1      -1.182  12.696  20.320  0.00  0.00    +0.000 S 
ATOM     18  H   UNL     1      -0.739  11.768  19.458  0.00  0.00    +0.000 HD
ENDBRANCH   2  17
BRANCH   6  19
ATOM     19  C   UNL     1       1.039   7.025  20.844  0.00  0.00    +0.000 C 
BRANCH  19  20
ATOM     20  C   UNL     1       1.956   6.051  20.139  0.00  0.00    +0.000 A 
ATOM     21  C   UNL     1       3.107   6.510  19.449  0.00  0.00    +0.000 A 
ATOM     22  C   UNL     1       4.115   5.620  19.074  0.00  0.00    +0.000 A 
ATOM     23  C   UNL     1       3.956   4.305  19.442  0.00  0.00    +0.000 A 
ATOM     24  C   UNL     1       2.798   3.844  20.033  0.00  0.00    +0.000 A 
ATOM     25  C   UNL     1       1.755   4.679  20.343  0.00  0.00    +0.000 A 
ATOM     26  O   UNL     1       2.894   2.539  20.409  0.00  0.00    +0.000 OA
ATOM     27  C   UNL     1       4.325   2.395  20.329  0.00  0.00    +0.000 C 
ATOM     28  O   UNL     1       4.913   3.334  19.403  0.00  0.00    +0.000 OA
ENDBRANCH  19  20
ENDBRANCH   6  19
TORSDOF 5
ENDMDL
MODEL 3
REMARK VINA RESULT:      -6.9      2.983     10.047
REMARK  Name = 
REMARK  6 active torsions:
REMARK  status: ('A' for Active; 'I' for Inactive)
REMARK    1  A    between atoms: C_1  and  O_2
REMARK    2  A    between atoms: O_2  and  C_3
REMARK    3  A    between atoms: C_8  and  N_9
REMARK    4  A    between atoms: C_10  and  S_11
REMARK    5  A    between atoms: N_15  and  C_16
REMARK    6  A    between atoms: C_16  and  C_17
REMARK                            x       y       z     vdW  Elec       q    Type
REMARK                         _______ _______ _______ _____ _____    ______ ____
ROOT
ATOM      1  N   UNL     1       0.739  10.119  19.653  0.00  0.00    +0.000 NA
ATOM      2  C   UNL     1       0.796   9.022  20.356  0.00  0.00    +0.000 C 
ATOM      3  N   UNL     1       1.711   8.023  20.049  0.00  0.00    +0.000 N 
ATOM      4  C   UNL     1       2.138   6.938  20.939  0.00  0.00    +0.000 C 
ATOM      5  C   UNL     1       1.953   5.573  20.236  0.00  0.00    +0.000 C 
ATOM      6  N   UNL     1       2.658   5.455  18.938  0.00  0.00    +0.000 NA
ATOM      7  C   UNL     1       2.274   6.624  18.099  0.00  0.00    +0.000 C 
ATOM      8  C   UNL     1       2.418   8.015  18.760  0.00  0.00    +0.000 C 
ENDROOT
BRANCH   1  14
ATOM      9  C   UNL     1       0.232  12.336  20.665  0.00  0.00    +0.000 A 
ATOM     10  C   UNL     1      -0.696  13.360  20.887  0.00  0.00    +0.000 A 
ATOM     11  C   UNL     1      -1.954  13.309  20.290  0.00  0.00    +0.000 A 
ATOM     12  C   UNL     1      -2.306  12.229  19.489  0.00  0.00    +0.000 A 
ATOM     13  C   UNL     1      -1.406  11.173  19.318  0.00  0.00    +0.000 A 
ATOM     14  C   UNL     1      -0.141  11.191  19.923  0.00  0.00    +0.000 A 
BRANCH   9  16
ATOM     15  C   UNL     1       2.363  13.410  20.704  0.00  0.00    +0.000 C 
ATOM     16  O   UNL     1       1.524  12.351  21.136  0.00  0.00    +0.000 OA
ENDBRANCH   9  16
ENDBRANCH   1  14
BRANCH   2  17
ATOM     17  S   UNL     1      -0.293   8.686  21.714  0.00  0.00    +0.000 S 
ATOM     18  H   UNL     1      -0.767   7.556  21.167  0.00  0.00    +0.000 HD
ENDBRANCH   2  17
BRANCH   6  19
ATOM     19  C   UNL     1       4.112   5.300  19.163  0.00  0.00    +0.000 C 
BRANCH  19  20
ATOM     20  C   UNL     1       4.936   5.600  17.931  0.00  0.00    +0.000 A 
ATOM     21  C   UNL     1       6.193   6.247  18.040  0.00  0.00    +0.000 A 
ATOM     22  C   UNL     1       7.091   6.245  16.971  0.00  0.00    +0.000 A 
ATOM     23  C   UNL     1       6.718   5.554  15.843  0.00  0.00    +0.000 A 
ATOM     24  C   UNL     1       5.461   5.001  15.705  0.00  0.00    +0.000 A 
ATOM     25  C   UNL     1       4.526   5.056  16.705  0.00  0.00    +0.000 A 
ATOM     26  O   UNL     1       5.339   4.275  14.558  0.00  0.00    +0.000 OA
ATOM     27  C   UNL     1       6.737   4.144  14.236  0.00  0.00    +0.000 C 
ATOM     28  O   UNL     1       7.526   5.213  14.799  0.00  0.00    +0.000 OA
ENDBRANCH  19  20
ENDBRANCH   6  19
TORSDOF 5
ENDMDL
MODEL 4
REMARK VINA RESULT:      -6.8      1.151      1.697
REMARK  Name = 
REMARK  6 active torsions:
REMARK  status: ('A' for Active; 'I' for Inactive)
REMARK    1  A    between atoms: C_1  and  O_2
REMARK    2  A    between atoms: O_2  and  C_3
REMARK    3  A    between atoms: C_8  and  N_9
REMARK    4  A    between atoms: C_10  and  S_11
REMARK    5  A    between atoms: N_15  and  C_16
REMARK    6  A    between atoms: C_16  and  C_17
REMARK                            x       y       z     vdW  Elec       q    Type
REMARK                         _______ _______ _______ _____ _____    ______ ____
ROOT
ATOM      1  N   UNL     1       2.512   6.762  19.674  0.00  0.00    +0.000 NA
ATOM      2  C   UNL     1       2.001   7.888  19.261  0.00  0.00    +0.000 C 
ATOM      3  N   UNL     1       1.395   8.766  20.150  0.00  0.00    +0.000 N 
ATOM      4  C   UNL     1       1.119  10.187  19.909  0.00  0.00    +0.000 C 
ATOM      5  C   UNL     1      -0.374  10.489  20.180  0.00  0.00    +0.000 C 
ATOM      6  N   UNL     1      -0.835  10.118  21.538  0.00  0.00    +0.000 NA
ATOM      7  C   UNL     1      -0.452   8.700  21.782  0.00  0.00    +0.000 C 
ATOM      8  C   UNL     1       1.026   8.336  21.507  0.00  0.00    +0.000 C 
ENDROOT
BRANCH   1  14
ATOM      9  C   UNL     1       2.571   4.641  18.373  0.00  0.00    +0.000 A 
ATOM     10  C   UNL     1       3.289   3.773  17.542  0.00  0.00    +0.000 A 
ATOM     11  C   UNL     1       4.554   4.128  17.081  0.00  0.00    +0.000 A 
ATOM     12  C   UNL     1       5.124   5.337  17.461  0.00  0.00    +0.000 A 
ATOM     13  C   UNL     1       4.439   6.177  18.343  0.00  0.00    +0.000 A 
ATOM     14  C   UNL     1       3.172   5.834  18.837  0.00  0.00    +0.000 A 
BRANCH   9  16
ATOM     15  C   UNL     1       1.057   3.272  19.609  0.00  0.00    +0.000 C 
ATOM     16  O   UNL     1       1.283   4.412  18.797  0.00  0.00    +0.000 OA
ENDBRANCH   9  16
ENDBRANCH   1  14
BRANCH   2  17
ATOM     17  S   UNL     1       1.989   8.377  17.558  0.00  0.00    +0.000 S 
ATOM     18  H   UNL     1       3.314   8.585  17.519  0.00  0.00    +0.000 HD
ENDBRANCH   2  17
BRANCH   6  19
ATOM     19  C   UNL     1      -0.315  11.084  22.531  0.00  0.00    +0.000 C 
BRANCH  19  20
ATOM     20  C   UNL     1      -1.320  12.153  22.897  0.00  0.00    +0.000 A 
ATOM     21  C   UNL     1      -2.658  11.810  23.223  0.00  0.00    +0.000 A 
ATOM     22  C   UNL     1      -3.494  12.728  23.859  0.00  0.00    +0.000 A 
ATOM     23  C   UNL     1      -2.949  13.946  24.189  0.00  0.00    +0.000 A 
ATOM     24  C   UNL     1      -1.678  14.311  23.793  0.00  0.00    +0.000 A 
ATOM     25  C   UNL     1      -0.859  13.462  23.097  0.00  0.00    +0.000 A 
ATOM     26  O   UNL     1      -1.300  15.512  24.315  0.00  0.00    +0.000 OA
ATOM     27  C   UNL     1      -2.305  15.628  25.340  0.00  0.00    +0.000 C 
ATOM     28  O   UNL     1      -3.496  14.878  25.022  0.00  0.00    +0.000 OA
ENDBRANCH  19  20
ENDBRANCH   6  19
TORSDOF 5
ENDMDL
MODEL 5
REMARK VINA RESULT:      -6.8      3.028     10.089
REMARK  Name = 
REMARK  6 active torsions:
REMARK  status: ('A' for Active; 'I' for Inactive)
REMARK    1  A    between atoms: C_1  and  O_2
REMARK    2  A    between atoms: O_2  and  C_3
REMARK    3  A    between atoms: C_8  and  N_9
REMARK    4  A    between atoms: C_10  and  S_11
REMARK    5  A    between atoms: N_15  and  C_16
REMARK    6  A    between atoms: C_16  and  C_17
REMARK                            x       y       z     vdW  Elec       q    Type
REMARK                         _______ _______ _______ _____ _____    ______ ____
ROOT
ATOM      1  N   UNL     1       0.706  10.172  19.476  0.00  0.00    +0.000 NA
ATOM      2  C   UNL     1       0.775   9.116  20.239  0.00  0.00    +0.000 C 
ATOM      3  N   UNL     1       1.709   8.118  19.996  0.00  0.00    +0.000 N 
ATOM      4  C   UNL     1       2.146   7.092  20.948  0.00  0.00    +0.000 C 
ATOM      5  C   UNL     1       1.991   5.687  20.319  0.00  0.00    +0.000 C 
ATOM      6  N   UNL     1       2.712   5.511  19.036  0.00  0.00    +0.000 NA
ATOM      7  C   UNL     1       2.316   6.625  18.130  0.00  0.00    +0.000 C 
ATOM      8  C   UNL     1       2.430   8.052  18.716  0.00  0.00    +0.000 C 
ENDROOT
BRANCH   1  14
ATOM      9  C   UNL     1      -1.503  11.269  19.144  0.00  0.00    +0.000 A 
ATOM     10  C   UNL     1      -2.339  12.364  19.393  0.00  0.00    +0.000 A 
ATOM     11  C   UNL     1      -1.929  13.380  20.254  0.00  0.00    +0.000 A 
ATOM     12  C   UNL     1      -0.676  13.324  20.855  0.00  0.00    +0.000 A 
ATOM     13  C   UNL     1       0.187  12.266  20.558  0.00  0.00    +0.000 A 
ATOM     14  C   UNL     1      -0.195  11.242  19.679  0.00  0.00    +0.000 A 
BRANCH   9  16
ATOM     15  C   UNL     1      -2.268  10.426  17.047  0.00  0.00    +0.000 C 
ATOM     16  O   UNL     1      -1.865  10.182  18.384  0.00  0.00    +0.000 OA
ENDBRANCH   9  16
ENDBRANCH   1  14
BRANCH   2  17
ATOM     17  S   UNL     1      -0.321   8.836  21.603  0.00  0.00    +0.000 S 
ATOM     18  H   UNL     1       0.642   8.998  22.523  0.00  0.00    +0.000 HD
ENDBRANCH   2  17
BRANCH   6  19
ATOM     19  C   UNL     1       4.165   5.394  19.282  0.00  0.00    +0.000 C 
BRANCH  19  20
ATOM     20  C   UNL     1       4.903   4.711  18.152  0.00  0.00    +0.000 A 
ATOM     21  C   UNL     1       4.323   3.613  17.466  0.00  0.00    +0.000 A 
ATOM     22  C   UNL     1       4.837   3.186  16.241  0.00  0.00    +0.000 A 
ATOM     23  C   UNL     1       5.888   3.903  15.720  0.00  0.00    +0.000 A 
ATOM     24  C   UNL     1       6.508   4.913  16.427  0.00  0.00    +0.000 A 
ATOM     25  C   UNL     1       6.078   5.304  17.669  0.00  0.00    +0.000 A 
ATOM     26  O   UNL     1       7.452   5.557  15.687  0.00  0.00    +0.000 OA
ATOM     27  C   UNL     1       7.063   5.085  14.382  0.00  0.00    +0.000 C 
ATOM     28  O   UNL     1       6.370   3.821  14.447  0.00  0.00    +0.000 OA
ENDBRANCH  19  20
ENDBRANCH   6  19
TORSDOF 5
ENDMDL
MODEL 6
REMARK VINA RESULT:      -6.8      3.052     10.285
REMARK  Name = 
REMARK  6 active torsions:
REMARK  status: ('A' for Active; 'I' for Inactive)
REMARK    1  A    between atoms: C_1  and  O_2
REMARK    2  A    between atoms: O_2  and  C_3
REMARK    3  A    between atoms: C_8  and  N_9
REMARK    4  A    between atoms: C_10  and  S_11
REMARK    5  A    between atoms: N_15  and  C_16
REMARK    6  A    between atoms: C_16  and  C_17
REMARK                            x       y       z     vdW  Elec       q    Type
REMARK                         _______ _______ _______ _____ _____    ______ ____
ROOT
ATOM      1  N   UNL     1       0.734  10.134  19.618  0.00  0.00    +0.000 NA
ATOM      2  C   UNL     1       0.783   9.038  20.322  0.00  0.00    +0.000 C 
ATOM      3  N   UNL     1       1.715   8.048  20.039  0.00  0.00    +0.000 N 
ATOM      4  C   UNL     1       2.129   6.967  20.940  0.00  0.00    +0.000 C 
ATOM      5  C   UNL     1       1.975   5.600  20.232  0.00  0.00    +0.000 C 
ATOM      6  N   UNL     1       2.715   5.489  18.952  0.00  0.00    +0.000 NA
ATOM      7  C   UNL     1       2.341   6.654  18.103  0.00  0.00    +0.000 C 
ATOM      8  C   UNL     1       2.455   8.046  18.768  0.00  0.00    +0.000 C 
ENDROOT
BRANCH   1  14
ATOM      9  C   UNL     1       0.194  12.366  20.578  0.00  0.00    +0.000 A 
ATOM     10  C   UNL     1      -0.750  13.380  20.779  0.00  0.00    +0.000 A 
ATOM     11  C   UNL     1      -2.009  13.295  20.188  0.00  0.00    +0.000 A 
ATOM     12  C   UNL     1      -2.345  12.190  19.414  0.00  0.00    +0.000 A 
ATOM     13  C   UNL     1      -1.429  11.145  19.265  0.00  0.00    +0.000 A 
ATOM     14  C   UNL     1      -0.163  11.198  19.865  0.00  0.00    +0.000 A 
BRANCH   9  16
ATOM     15  C   UNL     1       2.193  13.633  20.884  0.00  0.00    +0.000 C 
ATOM     16  O   UNL     1       1.486  12.414  21.045  0.00  0.00    +0.000 OA
ENDBRANCH   9  16
ENDBRANCH   1  14
BRANCH   2  17
ATOM     17  S   UNL     1      -0.336   8.692  21.651  0.00  0.00    +0.000 S 
ATOM     18  H   UNL     1      -1.411   9.126  20.975  0.00  0.00    +0.000 HD
ENDBRANCH   2  17
BRANCH   6  19
ATOM     19  C   UNL     1       4.163   5.347  19.214  0.00  0.00    +0.000 C 
BRANCH  19  20
ATOM     20  C   UNL     1       4.904   4.667  18.085  0.00  0.00    +0.000 A 
ATOM     21  C   UNL     1       4.314   3.589  17.377  0.00  0.00    +0.000 A 
ATOM     22  C   UNL     1       4.837   3.169  16.153  0.00  0.00    +0.000 A 
ATOM     23  C   UNL     1       5.908   3.873  15.656  0.00  0.00    +0.000 A 
ATOM     24  C   UNL     1       6.536   4.862  16.385  0.00  0.00    +0.000 A 
ATOM     25  C   UNL     1       6.096   5.245  17.626  0.00  0.00    +0.000 A 
ATOM     26  O   UNL     1       7.502   5.499  15.666  0.00  0.00    +0.000 OA
ATOM     27  C   UNL     1       7.123   5.051  14.350  0.00  0.00    +0.000 C 
ATOM     28  O   UNL     1       6.406   3.799  14.389  0.00  0.00    +0.000 OA
ENDBRANCH  19  20
ENDBRANCH   6  19
TORSDOF 5
ENDMDL
MODEL 7
REMARK VINA RESULT:      -6.8      3.325      9.438
REMARK  Name = 
REMARK  6 active torsions:
REMARK  status: ('A' for Active; 'I' for Inactive)
REMARK    1  A    between atoms: C_1  and  O_2
REMARK    2  A    between atoms: O_2  and  C_3
REMARK    3  A    between atoms: C_8  and  N_9
REMARK    4  A    between atoms: C_10  and  S_11
REMARK    5  A    between atoms: N_15  and  C_16
REMARK    6  A    between atoms: C_16  and  C_17
REMARK                            x       y       z     vdW  Elec       q    Type
REMARK                         _______ _______ _______ _____ _____    ______ ____
ROOT
ATOM      1  N   UNL     1       1.414   9.549  19.586  0.00  0.00    +0.000 NA
ATOM      2  C   UNL     1       1.084   8.483  20.263  0.00  0.00    +0.000 C 
ATOM      3  N   UNL     1       1.793   7.298  20.119  0.00  0.00    +0.000 N 
ATOM      4  C   UNL     1       1.782   6.166  21.052  0.00  0.00    +0.000 C 
ATOM      5  C   UNL     1       1.436   4.861  20.297  0.00  0.00    +0.000 C 
ATOM      6  N   UNL     1       2.336   4.558  19.159  0.00  0.00    +0.000 NA
ATOM      7  C   UNL     1       2.396   5.763  18.287  0.00  0.00    +0.000 C 
ATOM      8  C   UNL     1       2.718   7.101  18.994  0.00  0.00    +0.000 C 
ENDROOT
BRANCH   1  14
ATOM      9  C   UNL     1      -0.318  11.191  18.879  0.00  0.00    +0.000 A 
ATOM     10  C   UNL     1      -0.915  12.444  19.058  0.00  0.00    +0.000 A 
ATOM     11  C   UNL     1      -0.522  13.265  20.113  0.00  0.00    +0.000 A 
ATOM     12  C   UNL     1       0.483  12.855  20.982  0.00  0.00    +0.000 A 
ATOM     13  C   UNL     1       1.126  11.633  20.768  0.00  0.00    +0.000 A 
ATOM     14  C   UNL     1       0.762  10.797  19.702  0.00  0.00    +0.000 A 
BRANCH   9  16
ATOM     15  C   UNL     1      -2.097  10.020  17.803  0.00  0.00    +0.000 C 
ATOM     16  O   UNL     1      -0.709  10.281  17.925  0.00  0.00    +0.000 OA
ENDBRANCH   9  16
ENDBRANCH   1  14
BRANCH   2  17
ATOM     17  S   UNL     1      -0.295   8.433  21.374  0.00  0.00    +0.000 S 
ATOM     18  H   UNL     1       0.062   7.253  21.903  0.00  0.00    +0.000 HD
ENDBRANCH   2  17
BRANCH   6  19
ATOM     19  C   UNL     1       3.645   4.085  19.661  0.00  0.00    +0.000 C 
BRANCH  19  20
ATOM     20  C   UNL     1       4.785   4.391  18.715  0.00  0.00    +0.000 A 
ATOM     21  C   UNL     1       4.677   4.100  17.331  0.00  0.00    +0.000 A 
ATOM     22  C   UNL     1       5.571   4.656  16.414  0.00  0.00    +0.000 A 
ATOM     23  C   UNL     1       6.516   5.522  16.910  0.00  0.00    +0.000 A 
ATOM     24  C   UNL     1       6.677   5.736  18.263  0.00  0.00    +0.000 A 
ATOM     25  C   UNL     1       5.867   5.143  19.197  0.00  0.00    +0.000 A 
ATOM     26  O   UNL     1       7.595   6.707  18.528  0.00  0.00    +0.000 OA
ATOM     27  C   UNL     1       7.672   7.294  17.214  0.00  0.00    +0.000 C 
ATOM     28  O   UNL     1       7.309   6.358  16.178  0.00  0.00    +0.000 OA
ENDBRANCH  19  20
ENDBRANCH   6  19
TORSDOF 5
ENDMDL
MODEL 8
REMARK VINA RESULT:      -6.7      3.136      9.844
REMARK  Name = 
REMARK  6 active torsions:
REMARK  status: ('A' for Active; 'I' for Inactive)
REMARK    1  A    between atoms: C_1  and  O_2
REMARK    2  A    between atoms: O_2  and  C_3
REMARK    3  A    between atoms: C_8  and  N_9
REMARK    4  A    between atoms: C_10  and  S_11
REMARK    5  A    between atoms: N_15  and  C_16
REMARK    6  A    between atoms: C_16  and  C_17
REMARK                            x       y       z     vdW  Elec       q    Type
REMARK                         _______ _______ _______ _____ _____    ______ ____
ROOT
ATOM      1  N   UNL     1       1.120   9.833  19.363  0.00  0.00    +0.000 NA
ATOM      2  C   UNL     1       1.116   8.787  20.141  0.00  0.00    +0.000 C 
ATOM      3  N   UNL     1       1.923   7.690  19.869  0.00  0.00    +0.000 N 
ATOM      4  C   UNL     1       2.297   6.635  20.817  0.00  0.00    +0.000 C 
ATOM      5  C   UNL     1       1.958   5.247  20.224  0.00  0.00    +0.000 C 
ATOM      6  N   UNL     1       2.585   4.976  18.909  0.00  0.00    +0.000 NA
ATOM      7  C   UNL     1       2.263   6.114  18.004  0.00  0.00    +0.000 C 
ATOM      8  C   UNL     1       2.562   7.528  18.554  0.00  0.00    +0.000 C 
ENDROOT
BRANCH   1  14
ATOM      9  C   UNL     1      -0.937  11.198  19.047  0.00  0.00    +0.000 A 
ATOM     10  C   UNL     1      -1.637  12.378  19.323  0.00  0.00    +0.000 A 
ATOM     11  C   UNL     1      -1.117  13.311  20.218  0.00  0.00    +0.000 A 
ATOM     12  C   UNL     1       0.112  13.088  20.826  0.00  0.00    +0.000 A 
ATOM     13  C   UNL     1       0.846  11.943  20.503  0.00  0.00    +0.000 A 
ATOM     14  C   UNL     1       0.353  10.998  19.591  0.00  0.00    +0.000 A 
BRANCH   9  16
ATOM     15  C   UNL     1      -2.733  10.326  17.741  0.00  0.00    +0.000 C 
ATOM     16  O   UNL     1      -1.418  10.185  18.252  0.00  0.00    +0.000 OA
ENDBRANCH   9  16
ENDBRANCH   1  14
BRANCH   2  17
ATOM     17  S   UNL     1       0.071   8.647  21.565  0.00  0.00    +0.000 S 
ATOM     18  H   UNL     1       0.334   9.893  21.988  0.00  0.00    +0.000 HD
ENDBRANCH   2  17
BRANCH   6  19
ATOM     19  C   UNL     1       4.028   4.705  19.081  0.00  0.00    +0.000 C 
BRANCH  19  20
ATOM     20  C   UNL     1       4.865   5.197  17.922  0.00  0.00    +0.000 A 
ATOM     21  C   UNL     1       6.063   5.922  18.148  0.00  0.00    +0.000 A 
ATOM     22  C   UNL     1       6.992   6.102  17.122  0.00  0.00    +0.000 A 
ATOM     23  C   UNL     1       6.710   5.511  15.913  0.00  0.00    +0.000 A 
ATOM     24  C   UNL     1       5.506   4.883  15.667  0.00  0.00    +0.000 A 
ATOM     25  C   UNL     1       4.538   4.759  16.630  0.00  0.00    +0.000 A 
ATOM     26  O   UNL     1       5.478   4.279  14.447  0.00  0.00    +0.000 OA
ATOM     27  C   UNL     1       6.892   4.288  14.169  0.00  0.00    +0.000 C 
ATOM     28  O   UNL     1       7.576   5.347  14.872  0.00  0.00    +0.000 OA
ENDBRANCH  19  20
ENDBRANCH   6  19
TORSDOF 5
ENDMDL
MODEL 9
REMARK VINA RESULT:      -6.6      1.410      2.100
REMARK  Name = 
REMARK  6 active torsions:
REMARK  status: ('A' for Active; 'I' for Inactive)
REMARK    1  A    between atoms: C_1  and  O_2
REMARK    2  A    between atoms: O_2  and  C_3
REMARK    3  A    between atoms: C_8  and  N_9
REMARK    4  A    between atoms: C_10  and  S_11
REMARK    5  A    between atoms: N_15  and  C_16
REMARK    6  A    between atoms: C_16  and  C_17
REMARK                            x       y       z     vdW  Elec       q    Type
REMARK                         _______ _______ _______ _____ _____    ______ ____
ROOT
ATOM      1  N   UNL     1       2.314   5.886  20.303  0.00  0.00    +0.000 NA
ATOM      2  C   UNL     1       2.060   6.909  19.535  0.00  0.00    +0.000 C 
ATOM      3  N   UNL     1       1.624   8.114  20.071  0.00  0.00    +0.000 N 
ATOM      4  C   UNL     1       1.657   9.420  19.403  0.00  0.00    +0.000 C 
ATOM      5  C   UNL     1       0.253  10.067  19.437  0.00  0.00    +0.000 C 
ATOM      6  N   UNL     1      -0.315  10.221  20.797  0.00  0.00    +0.000 NA
ATOM      7  C   UNL     1      -0.243   8.898  21.477  0.00  0.00    +0.000 C 
ATOM      8  C   UNL     1       1.135   8.194  21.455  0.00  0.00    +0.000 C 
ENDROOT
BRANCH   1  14
ATOM      9  C   UNL     1       4.151   4.386  19.550  0.00  0.00    +0.000 A 
ATOM     10  C   UNL     1       4.546   3.122  19.095  0.00  0.00    +0.000 A 
ATOM     11  C   UNL     1       3.624   2.081  19.024  0.00  0.00    +0.000 A 
ATOM     12  C   UNL     1       2.298   2.294  19.383  0.00  0.00    +0.000 A 
ATOM     13  C   UNL     1       1.885   3.571  19.775  0.00  0.00    +0.000 A 
ATOM     14  C   UNL     1       2.790   4.640  19.836  0.00  0.00    +0.000 A 
BRANCH   9  16
ATOM     15  C   UNL     1       6.257   5.396  19.060  0.00  0.00    +0.000 C 
ATOM     16  O   UNL     1       5.013   5.440  19.739  0.00  0.00    +0.000 OA
ENDBRANCH   9  16
ENDBRANCH   1  14
BRANCH   2  17
ATOM     17  S   UNL     1       2.200   6.851  17.770  0.00  0.00    +0.000 S 
ATOM     18  H   UNL     1       2.195   8.186  17.638  0.00  0.00    +0.000 HD
ENDBRANCH   2  17
BRANCH   6  19
ATOM     19  C   UNL     1       0.365  11.326  21.508  0.00  0.00    +0.000 C 
BRANCH  19  20
ATOM     20  C   UNL     1      -0.582  12.169  22.332  0.00  0.00    +0.000 A 
ATOM     21  C   UNL     1      -0.507  13.585  22.301  0.00  0.00    +0.000 A 
ATOM     22  C   UNL     1      -1.554  14.366  22.793  0.00  0.00    +0.000 A 
ATOM     23  C   UNL     1      -2.663  13.701  23.259  0.00  0.00    +0.000 A 
ATOM     24  C   UNL     1      -2.700  12.326  23.372  0.00  0.00    +0.000 A 
ATOM     25  C   UNL     1      -1.656  11.533  22.972  0.00  0.00    +0.000 A 
ATOM     26  O   UNL     1      -3.926  11.873  23.755  0.00  0.00    +0.000 OA
ATOM     27  C   UNL     1      -4.691  13.064  23.489  0.00  0.00    +0.000 C 
ATOM     28  O   UNL     1      -3.877  14.255  23.543  0.00  0.00    +0.000 OA
ENDBRANCH  19  20
ENDBRANCH   6  19
TORSDOF 5
ENDMDL
