MODEL 1
REMARK VINA RESULT:      -7.1      0.000      0.000
REMARK  Name = 
REMARK  6 active torsions:
REMARK  status: ('A' for Active; 'I' for Inactive)
REMARK    1  A    between atoms: C_2  and  C_3
REMARK    2  A    between atoms: C_4  and  S_5
REMARK    3  A    between atoms: S_5  and  C_6
REMARK    4  A    between atoms: C_6  and  C_7
REMARK    5  A    between atoms: C_14  and  C_15
REMARK    6  A    between atoms: C_18  and  O_19
REMARK                            x       y       z     vdW  Elec       q    Type
REMARK                         _______ _______ _______ _____ _____    ______ ____
ROOT
ATOM      1  C   UNL     1       3.551   4.215  19.144  0.00  0.00    +0.000 C 
ATOM      2  C   UNL     1       3.413   5.384  18.474  0.00  0.00    +0.000 C 
ATOM      3  S   UNL     1       4.780   6.310  17.921  0.00  0.00    +0.000 S 
ATOM      4  C   UNL     1       6.036   5.061  17.692  0.00  0.00    +0.000 C 
ATOM      5  N   UNL     1       5.925   3.947  18.593  0.00  0.00    +0.000 N 
ATOM      6  C   UNL     1       4.836   3.494  19.263  0.00  0.00    +0.000 C 
ATOM      7  O   UNL     1       4.938   2.479  19.946  0.00  0.00    +0.000 OA
ATOM      8  H   UNL     1       6.742   3.358  18.700  0.00  0.00    +0.000 HD
ENDROOT
BRANCH   4   9
ATOM      9  C   UNL     1       6.173   4.670  16.236  0.00  0.00    +0.000 A 
ATOM     10  C   UNL     1       7.297   5.119  15.510  0.00  0.00    +0.000 A 
ATOM     11  C   UNL     1       7.446   4.824  14.154  0.00  0.00    +0.000 A 
ATOM     12  C   UNL     1       6.467   4.080  13.509  0.00  0.00    +0.000 A 
ATOM     13  C   UNL     1       5.343   3.637  14.197  0.00  0.00    +0.000 A 
ATOM     14  C   UNL     1       5.193   3.930  15.555  0.00  0.00    +0.000 A 
BRANCH  12  15
ATOM     15  O   UNL     1       6.569   3.767  12.187  0.00  0.00    +0.000 OA
ATOM     16  H   UNL     1       7.508   3.686  11.956  0.00  0.00    +0.000 HD
ENDBRANCH  12  15
ENDBRANCH   4   9
BRANCH   1  18
ATOM     17  N   UNL     1       1.407   3.247  20.627  0.00  0.00    +0.000 NA
ATOM     18  C   UNL     1       2.379   3.686  19.955  0.00  0.00    +0.000 C 
ENDBRANCH   1  18
BRANCH   2  19
ATOM     19  S   UNL     1       1.851   6.215  18.345  0.00  0.00    +0.000 S 
BRANCH  19  20
ATOM     20  C   UNL     1       2.314   7.980  18.514  0.00  0.00    +0.000 C 
BRANCH  20  21
ATOM     21  C   UNL     1       1.496   8.719  19.558  0.00  0.00    +0.000 A 
ATOM     22  C   UNL     1       0.793   9.889  19.222  0.00  0.00    +0.000 A 
ATOM     23  C   UNL     1       0.007  10.554  20.170  0.00  0.00    +0.000 A 
ATOM     24  C   UNL     1      -0.092  10.057  21.469  0.00  0.00    +0.000 A 
ATOM     25  C   UNL     1       0.587   8.892  21.816  0.00  0.00    +0.000 A 
ATOM     26  C   UNL     1       1.368   8.225  20.867  0.00  0.00    +0.000 A 
ENDBRANCH  20  21
ENDBRANCH  19  20
ENDBRANCH   2  19
TORSDOF 6
ENDMDL
MODEL 2
REMARK VINA RESULT:      -7.0      2.697      5.036
REMARK  Name = 
REMARK  6 active torsions:
REMARK  status: ('A' for Active; 'I' for Inactive)
REMARK    1  A    between atoms: C_2  and  C_3
REMARK    2  A    between atoms: C_4  and  S_5
REMARK    3  A    between atoms: S_5  and  C_6
REMARK    4  A    between atoms: C_6  and  C_7
REMARK    5  A    between atoms: C_14  and  C_15
REMARK    6  A    between atoms: C_18  and  O_19
REMARK                            x       y       z     vdW  Elec       q    Type
REMARK                         _______ _______ _______ _____ _____    ______ ____
ROOT
ATOM      1  C   UNL     1       6.181   6.023  17.912  0.00  0.00    +0.000 C 
ATOM      2  C   UNL     1       4.911   6.310  17.538  0.00  0.00    +0.000 C 
ATOM      3  S   UNL     1       3.798   5.085  16.997  0.00  0.00    +0.000 S 
ATOM      4  C   UNL     1       4.386   3.620  17.831  0.00  0.00    +0.000 C 
ATOM      5  N   UNL     1       5.806   3.605  18.055  0.00  0.00    +0.000 N 
ATOM      6  C   UNL     1       6.671   4.646  18.128  0.00  0.00    +0.000 C 
ATOM      7  O   UNL     1       7.851   4.421  18.389  0.00  0.00    +0.000 OA
ATOM      8  H   UNL     1       6.228   2.709  18.266  0.00  0.00    +0.000 HD
ENDROOT
BRANCH   4   9
ATOM      9  C   UNL     1       3.560   3.312  19.062  0.00  0.00    +0.000 A 
ATOM     10  C   UNL     1       2.282   3.897  19.192  0.00  0.00    +0.000 A 
ATOM     11  C   UNL     1       1.500   3.681  20.327  0.00  0.00    +0.000 A 
ATOM     12  C   UNL     1       1.994   2.881  21.349  0.00  0.00    +0.000 A 
ATOM     13  C   UNL     1       3.255   2.304  21.253  0.00  0.00    +0.000 A 
ATOM     14  C   UNL     1       4.038   2.518  20.116  0.00  0.00    +0.000 A 
BRANCH  12  15
ATOM     15  O   UNL     1       1.267   2.640  22.476  0.00  0.00    +0.000 OA
ATOM     16  H   UNL     1       0.343   2.889  22.313  0.00  0.00    +0.000 HD
ENDBRANCH  12  15
ENDBRANCH   4   9
BRANCH   1  18
ATOM     17  N   UNL     1       8.058   8.073  18.000  0.00  0.00    +0.000 NA
ATOM     18  C   UNL     1       7.207   7.144  17.960  0.00  0.00    +0.000 C 
ENDBRANCH   1  18
BRANCH   2  19
ATOM     19  S   UNL     1       4.356   7.978  17.298  0.00  0.00    +0.000 S 
BRANCH  19  20
ATOM     20  C   UNL     1       2.532   7.816  17.376  0.00  0.00    +0.000 C 
BRANCH  20  21
ATOM     21  C   UNL     1       1.942   8.291  18.692  0.00  0.00    +0.000 A 
ATOM     22  C   UNL     1       1.207   9.487  18.757  0.00  0.00    +0.000 A 
ATOM     23  C   UNL     1       0.629   9.913  19.959  0.00  0.00    +0.000 A 
ATOM     24  C   UNL     1       0.774   9.146  21.115  0.00  0.00    +0.000 A 
ATOM     25  C   UNL     1       1.489   7.953  21.065  0.00  0.00    +0.000 A 
ATOM     26  C   UNL     1       2.061   7.525  19.863  0.00  0.00    +0.000 A 
ENDBRANCH  20  21
ENDBRANCH  19  20
ENDBRANCH   2  19
TORSDOF 6
ENDMDL
MODEL 3
REMARK VINA RESULT:      -7.0      2.699      5.063
REMARK  Name = 
REMARK  6 active torsions:
REMARK  status: ('A' for Active; 'I' for Inactive)
REMARK    1  A    between atoms: C_2  and  C_3
REMARK    2  A    between atoms: C_4  and  S_5
REMARK    3  A    between atoms: S_5  and  C_6
REMARK    4  A    between atoms: C_6  and  C_7
REMARK    5  A    between atoms: C_14  and  C_15
REMARK    6  A    between atoms: C_18  and  O_19
REMARK                            x       y       z     vdW  Elec       q    Type
REMARK                         _______ _______ _______ _____ _____    ______ ____
ROOT
ATOM      1  C   UNL     1       6.007   5.976  17.915  0.00  0.00    +0.000 C 
ATOM      2  C   UNL     1       4.740   6.260  17.528  0.00  0.00    +0.000 C 
ATOM      3  S   UNL     1       3.611   5.023  17.052  0.00  0.00    +0.000 S 
ATOM      4  C   UNL     1       4.182   3.596  17.961  0.00  0.00    +0.000 C 
ATOM      5  N   UNL     1       5.601   3.574  18.185  0.00  0.00    +0.000 N 
ATOM      6  C   UNL     1       6.480   4.606  18.202  0.00  0.00    +0.000 C 
ATOM      7  O   UNL     1       7.657   4.380  18.473  0.00  0.00    +0.000 OA
ATOM      8  H   UNL     1       6.012   2.685  18.441  0.00  0.00    +0.000 HD
ENDROOT
BRANCH   4   9
ATOM      9  C   UNL     1       3.353   3.363  19.207  0.00  0.00    +0.000 A 
ATOM     10  C   UNL     1       3.882   2.559  20.240  0.00  0.00    +0.000 A 
ATOM     11  C   UNL     1       3.141   2.278  21.388  0.00  0.00    +0.000 A 
ATOM     12  C   UNL     1       1.857   2.794  21.511  0.00  0.00    +0.000 A 
ATOM     13  C   UNL     1       1.307   3.577  20.503  0.00  0.00    +0.000 A 
ATOM     14  C   UNL     1       2.050   3.862  19.353  0.00  0.00    +0.000 A 
BRANCH  12  15
ATOM     15  O   UNL     1       1.096   2.547  22.613  0.00  0.00    +0.000 OA
ATOM     16  H   UNL     1       0.951   1.590  22.686  0.00  0.00    +0.000 HD
ENDBRANCH  12  15
ENDBRANCH   4   9
BRANCH   1  18
ATOM     17  N   UNL     1       7.912   8.003  17.895  0.00  0.00    +0.000 NA
ATOM     18  C   UNL     1       7.048   7.084  17.904  0.00  0.00    +0.000 C 
ENDBRANCH   1  18
BRANCH   2  19
ATOM     19  S   UNL     1       4.207   7.920  17.201  0.00  0.00    +0.000 S 
BRANCH  19  20
ATOM     20  C   UNL     1       2.388   7.809  17.395  0.00  0.00    +0.000 C 
BRANCH  20  21
ATOM     21  C   UNL     1       1.895   8.313  18.740  0.00  0.00    +0.000 A 
ATOM     22  C   UNL     1       1.262   9.564  18.848  0.00  0.00    +0.000 A 
ATOM     23  C   UNL     1       0.772  10.019  20.077  0.00  0.00    +0.000 A 
ATOM     24  C   UNL     1       0.903   9.228  21.218  0.00  0.00    +0.000 A 
ATOM     25  C   UNL     1       1.517   7.982  21.127  0.00  0.00    +0.000 A 
ATOM     26  C   UNL     1       2.001   7.525  19.898  0.00  0.00    +0.000 A 
ENDBRANCH  20  21
ENDBRANCH  19  20
ENDBRANCH   2  19
TORSDOF 6
ENDMDL
MODEL 4
REMARK VINA RESULT:      -7.0      0.548      1.217
REMARK  Name = 
REMARK  6 active torsions:
REMARK  status: ('A' for Active; 'I' for Inactive)
REMARK    1  A    between atoms: C_2  and  C_3
REMARK    2  A    between atoms: C_4  and  S_5
REMARK    3  A    between atoms: S_5  and  C_6
REMARK    4  A    between atoms: C_6  and  C_7
REMARK    5  A    between atoms: C_14  and  C_15
REMARK    6  A    between atoms: C_18  and  O_19
REMARK                            x       y       z     vdW  Elec       q    Type
REMARK                         _______ _______ _______ _____ _____    ______ ____
ROOT
ATOM      1  C   UNL     1       3.513   4.035  19.300  0.00  0.00    +0.000 C 
ATOM      2  C   UNL     1       3.414   5.267  18.743  0.00  0.00    +0.000 C 
ATOM      3  S   UNL     1       4.812   6.199  18.287  0.00  0.00    +0.000 S 
ATOM      4  C   UNL     1       6.032   4.940  17.945  0.00  0.00    +0.000 C 
ATOM      5  N   UNL     1       5.881   3.749  18.735  0.00  0.00    +0.000 N 
ATOM      6  C   UNL     1       4.775   3.268  19.354  0.00  0.00    +0.000 C 
ATOM      7  O   UNL     1       4.842   2.189  19.938  0.00  0.00    +0.000 OA
ATOM      8  H   UNL     1       6.679   3.129  18.789  0.00  0.00    +0.000 HD
ENDROOT
BRANCH   4   9
ATOM      9  C   UNL     1       6.167   4.686  16.458  0.00  0.00    +0.000 A 
ATOM     10  C   UNL     1       5.166   3.942  15.798  0.00  0.00    +0.000 A 
ATOM     11  C   UNL     1       5.266   3.642  14.439  0.00  0.00    +0.000 A 
ATOM     12  C   UNL     1       6.375   4.080  13.727  0.00  0.00    +0.000 A 
ATOM     13  C   UNL     1       7.382   4.802  14.356  0.00  0.00    +0.000 A 
ATOM     14  C   UNL     1       7.282   5.105  15.717  0.00  0.00    +0.000 A 
BRANCH  12  15
ATOM     15  O   UNL     1       6.518   3.812  12.399  0.00  0.00    +0.000 OA
ATOM     16  H   UNL     1       7.458   3.878  12.165  0.00  0.00    +0.000 HD
ENDBRANCH  12  15
ENDBRANCH   4   9
BRANCH   1  18
ATOM     17  N   UNL     1       1.330   2.996  20.675  0.00  0.00    +0.000 NA
ATOM     18  C   UNL     1       2.320   3.467  20.051  0.00  0.00    +0.000 C 
ENDBRANCH   1  18
BRANCH   2  19
ATOM     19  S   UNL     1       1.879   6.153  18.689  0.00  0.00    +0.000 S 
BRANCH  19  20
ATOM     20  C   UNL     1       2.420   7.894  18.493  0.00  0.00    +0.000 C 
BRANCH  20  21
ATOM     21  C   UNL     1       1.395   8.900  18.986  0.00  0.00    +0.000 A 
ATOM     22  C   UNL     1       0.693   9.711  18.077  0.00  0.00    +0.000 A 
ATOM     23  C   UNL     1      -0.279  10.614  18.520  0.00  0.00    +0.000 A 
ATOM     24  C   UNL     1      -0.569  10.718  19.881  0.00  0.00    +0.000 A 
ATOM     25  C   UNL     1       0.107   9.914  20.793  0.00  0.00    +0.000 A 
ATOM     26  C   UNL     1       1.075   9.007  20.349  0.00  0.00    +0.000 A 
ENDBRANCH  20  21
ENDBRANCH  19  20
ENDBRANCH   2  19
TORSDOF 6
ENDMDL
MODEL 5
REMARK VINA RESULT:      -6.9      0.502      1.116
REMARK  Name = 
REMARK  6 active torsions:
REMARK  status: ('A' for Active; 'I' for Inactive)
REMARK    1  A    between atoms: C_2  and  C_3
REMARK    2  A    between atoms: C_4  and  S_5
REMARK    3  A    between atoms: S_5  and  C_6
REMARK    4  A    between atoms: C_6  and  C_7
REMARK    5  A    between atoms: C_14  and  C_15
REMARK    6  A    between atoms: C_18  and  O_19
REMARK                            x       y       z     vdW  Elec       q    Type
REMARK                         _______ _______ _______ _____ _____    ______ ____
ROOT
ATOM      1  C   UNL     1       3.657   4.472  19.131  0.00  0.00    +0.000 C 
ATOM      2  C   UNL     1       3.637   5.651  18.463  0.00  0.00    +0.000 C 
ATOM      3  S   UNL     1       5.086   6.420  17.881  0.00  0.00    +0.000 S 
ATOM      4  C   UNL     1       6.190   5.039  17.626  0.00  0.00    +0.000 C 
ATOM      5  N   UNL     1       5.974   3.943  18.529  0.00  0.00    +0.000 N 
ATOM      6  C   UNL     1       4.856   3.613  19.222  0.00  0.00    +0.000 C 
ATOM      7  O   UNL     1       4.859   2.590  19.903  0.00  0.00    +0.000 OA
ATOM      8  H   UNL     1       6.722   3.266  18.618  0.00  0.00    +0.000 HD
ENDROOT
BRANCH   4   9
ATOM      9  C   UNL     1       6.251   4.639  16.167  0.00  0.00    +0.000 A 
ATOM     10  C   UNL     1       7.340   5.075  15.383  0.00  0.00    +0.000 A 
ATOM     11  C   UNL     1       7.420   4.771  14.023  0.00  0.00    +0.000 A 
ATOM     12  C   UNL     1       6.404   4.031  13.432  0.00  0.00    +0.000 A 
ATOM     13  C   UNL     1       5.313   3.601  14.178  0.00  0.00    +0.000 A 
ATOM     14  C   UNL     1       5.233   3.903  15.540  0.00  0.00    +0.000 A 
BRANCH  12  15
ATOM     15  O   UNL     1       6.438   3.710  12.109  0.00  0.00    +0.000 OA
ATOM     16  H   UNL     1       6.918   4.404  11.629  0.00  0.00    +0.000 HD
ENDBRANCH  12  15
ENDBRANCH   4   9
BRANCH   1  18
ATOM     17  N   UNL     1       1.450   3.747  20.659  0.00  0.00    +0.000 NA
ATOM     18  C   UNL     1       2.451   4.076  19.966  0.00  0.00    +0.000 C 
ENDBRANCH   1  18
BRANCH   2  19
ATOM     19  S   UNL     1       2.175   6.652  18.368  0.00  0.00    +0.000 S 
BRANCH  19  20
ATOM     20  C   UNL     1       2.160   7.506  19.990  0.00  0.00    +0.000 C 
BRANCH  20  21
ATOM     21  C   UNL     1       1.241   8.714  20.024  0.00  0.00    +0.000 A 
ATOM     22  C   UNL     1       0.533   9.042  21.194  0.00  0.00    +0.000 A 
ATOM     23  C   UNL     1      -0.288  10.175  21.244  0.00  0.00    +0.000 A 
ATOM     24  C   UNL     1      -0.411  11.000  20.127  0.00  0.00    +0.000 A 
ATOM     25  C   UNL     1       0.292  10.696  18.964  0.00  0.00    +0.000 A 
ATOM     26  C   UNL     1       1.117   9.568  18.917  0.00  0.00    +0.000 A 
ENDBRANCH  20  21
ENDBRANCH  19  20
ENDBRANCH   2  19
TORSDOF 6
ENDMDL
MODEL 6
REMARK VINA RESULT:      -6.9      0.541      1.529
REMARK  Name = 
REMARK  6 active torsions:
REMARK  status: ('A' for Active; 'I' for Inactive)
REMARK    1  A    between atoms: C_2  and  C_3
REMARK    2  A    between atoms: C_4  and  S_5
REMARK    3  A    between atoms: S_5  and  C_6
REMARK    4  A    between atoms: C_6  and  C_7
REMARK    5  A    between atoms: C_14  and  C_15
REMARK    6  A    between atoms: C_18  and  O_19
REMARK                            x       y       z     vdW  Elec       q    Type
REMARK                         _______ _______ _______ _____ _____    ______ ____
ROOT
ATOM      1  C   UNL     1       3.637   4.308  19.121  0.00  0.00    +0.000 C 
ATOM      2  C   UNL     1       3.496   5.493  18.479  0.00  0.00    +0.000 C 
ATOM      3  S   UNL     1       4.860   6.428  17.934  0.00  0.00    +0.000 S 
ATOM      4  C   UNL     1       6.110   5.181  17.664  0.00  0.00    +0.000 C 
ATOM      5  N   UNL     1       6.004   4.046  18.539  0.00  0.00    +0.000 N 
ATOM      6  C   UNL     1       4.920   3.581  19.209  0.00  0.00    +0.000 C 
ATOM      7  O   UNL     1       5.026   2.550  19.867  0.00  0.00    +0.000 OA
ATOM      8  H   UNL     1       6.819   3.453  18.624  0.00  0.00    +0.000 HD
ENDROOT
BRANCH   4   9
ATOM      9  C   UNL     1       6.230   4.824  16.197  0.00  0.00    +0.000 A 
ATOM     10  C   UNL     1       5.220   4.039  15.599  0.00  0.00    +0.000 A 
ATOM     11  C   UNL     1       5.307   3.646  14.263  0.00  0.00    +0.000 A 
ATOM     12  C   UNL     1       6.411   4.029  13.513  0.00  0.00    +0.000 A 
ATOM     13  C   UNL     1       7.426   4.790  14.080  0.00  0.00    +0.000 A 
ATOM     14  C   UNL     1       7.340   5.187  15.418  0.00  0.00    +0.000 A 
BRANCH  12  15
ATOM     15  O   UNL     1       6.540   3.670  12.205  0.00  0.00    +0.000 OA
ATOM     16  H   UNL     1       7.389   4.003  11.871  0.00  0.00    +0.000 HD
ENDBRANCH  12  15
ENDBRANCH   4   9
BRANCH   1  18
ATOM     17  N   UNL     1       1.504   3.313  20.603  0.00  0.00    +0.000 NA
ATOM     18  C   UNL     1       2.471   3.764  19.931  0.00  0.00    +0.000 C 
ENDBRANCH   1  18
BRANCH   2  19
ATOM     19  S   UNL     1       1.935   6.332  18.387  0.00  0.00    +0.000 S 
BRANCH  19  20
ATOM     20  C   UNL     1       2.414   8.097  18.503  0.00  0.00    +0.000 C 
BRANCH  20  21
ATOM     21  C   UNL     1       1.284   8.996  18.974  0.00  0.00    +0.000 A 
ATOM     22  C   UNL     1       0.981   9.109  20.342  0.00  0.00    +0.000 A 
ATOM     23  C   UNL     1      -0.034   9.963  20.787  0.00  0.00    +0.000 A 
ATOM     24  C   UNL     1      -0.761  10.723  19.870  0.00  0.00    +0.000 A 
ATOM     25  C   UNL     1      -0.466  10.632  18.512  0.00  0.00    +0.000 A 
ATOM     26  C   UNL     1       0.552   9.783  18.070  0.00  0.00    +0.000 A 
ENDBRANCH  20  21
ENDBRANCH  19  20
ENDBRANCH   2  19
TORSDOF 6
ENDMDL
MODEL 7
REMARK VINA RESULT:      -6.8      1.037      1.525
REMARK  Name = 
REMARK  6 active torsions:
REMARK  status: ('A' for Active; 'I' for Inactive)
REMARK    1  A    between atoms: C_2  and  C_3
REMARK    2  A    between atoms: C_4  and  S_5
REMARK    3  A    between atoms: S_5  and  C_6
REMARK    4  A    between atoms: C_6  and  C_7
REMARK    5  A    between atoms: C_14  and  C_15
REMARK    6  A    between atoms: C_18  and  O_19
REMARK                            x       y       z     vdW  Elec       q    Type
REMARK                         _______ _______ _______ _____ _____    ______ ____
ROOT
ATOM      1  C   UNL     1       3.462   3.539  20.095  0.00  0.00    +0.000 C 
ATOM      2  C   UNL     1       3.226   4.765  19.567  0.00  0.00    +0.000 C 
ATOM      3  S   UNL     1       4.508   5.812  19.029  0.00  0.00    +0.000 S 
ATOM      4  C   UNL     1       5.798   4.660  18.582  0.00  0.00    +0.000 C 
ATOM      5  N   UNL     1       5.799   3.453  19.361  0.00  0.00    +0.000 N 
ATOM      6  C   UNL     1       4.782   2.877  20.048  0.00  0.00    +0.000 C 
ATOM      7  O   UNL     1       4.977   1.801  20.608  0.00  0.00    +0.000 OA
ATOM      8  H   UNL     1       6.646   2.898  19.349  0.00  0.00    +0.000 HD
ENDROOT
BRANCH   4   9
ATOM      9  C   UNL     1       5.847   4.434  17.086  0.00  0.00    +0.000 A 
ATOM     10  C   UNL     1       7.050   4.690  16.394  0.00  0.00    +0.000 A 
ATOM     11  C   UNL     1       7.134   4.540  15.009  0.00  0.00    +0.000 A 
ATOM     12  C   UNL     1       6.009   4.137  14.301  0.00  0.00    +0.000 A 
ATOM     13  C   UNL     1       4.808   3.892  14.955  0.00  0.00    +0.000 A 
ATOM     14  C   UNL     1       4.723   4.039  16.343  0.00  0.00    +0.000 A 
BRANCH  12  15
ATOM     15  O   UNL     1       6.042   3.977  12.948  0.00  0.00    +0.000 OA
ATOM     16  H   UNL     1       5.641   3.121  12.725  0.00  0.00    +0.000 HD
ENDBRANCH  12  15
ENDBRANCH   4   9
BRANCH   1  18
ATOM     17  N   UNL     1       1.473   2.312  21.602  0.00  0.00    +0.000 NA
ATOM     18  C   UNL     1       2.375   2.868  20.918  0.00  0.00    +0.000 C 
ENDBRANCH   1  18
BRANCH   2  19
ATOM     19  S   UNL     1       1.624   5.524  19.634  0.00  0.00    +0.000 S 
BRANCH  19  20
ATOM     20  C   UNL     1       1.930   7.033  20.629  0.00  0.00    +0.000 C 
BRANCH  20  21
ATOM     21  C   UNL     1       1.551   8.314  19.908  0.00  0.00    +0.000 A 
ATOM     22  C   UNL     1       1.969   8.542  18.585  0.00  0.00    +0.000 A 
ATOM     23  C   UNL     1       1.592   9.704  17.901  0.00  0.00    +0.000 A 
ATOM     24  C   UNL     1       0.788  10.655  18.528  0.00  0.00    +0.000 A 
ATOM     25  C   UNL     1       0.355  10.440  19.834  0.00  0.00    +0.000 A 
ATOM     26  C   UNL     1       0.727   9.276  20.514  0.00  0.00    +0.000 A 
ENDBRANCH  20  21
ENDBRANCH  19  20
ENDBRANCH   2  19
TORSDOF 6
ENDMDL
MODEL 8
REMARK VINA RESULT:      -6.8      7.957     10.707
REMARK  Name = 
REMARK  6 active torsions:
REMARK  status: ('A' for Active; 'I' for Inactive)
REMARK    1  A    between atoms: C_2  and  C_3
REMARK    2  A    between atoms: C_4  and  S_5
REMARK    3  A    between atoms: S_5  and  C_6
REMARK    4  A    between atoms: C_6  and  C_7
REMARK    5  A    between atoms: C_14  and  C_15
REMARK    6  A    between atoms: C_18  and  O_19
REMARK                            x       y       z     vdW  Elec       q    Type
REMARK                         _______ _______ _______ _____ _____    ______ ____
ROOT
ATOM      1  C   UNL     1      -4.881  12.695  22.176  0.00  0.00    +0.000 C 
ATOM      2  C   UNL     1      -4.330  12.889  20.953  0.00  0.00    +0.000 C 
ATOM      3  S   UNL     1      -2.668  13.365  20.742  0.00  0.00    +0.000 S 
ATOM      4  C   UNL     1      -1.881  12.704  22.203  0.00  0.00    +0.000 C 
ATOM      5  N   UNL     1      -2.734  12.660  23.358  0.00  0.00    +0.000 N 
ATOM      6  C   UNL     1      -4.088  12.630  23.421  0.00  0.00    +0.000 C 
ATOM      7  O   UNL     1      -4.630  12.533  24.519  0.00  0.00    +0.000 OA
ATOM      8  H   UNL     1      -2.283  12.561  24.259  0.00  0.00    +0.000 HD
ENDROOT
BRANCH   4   9
ATOM      9  C   UNL     1      -1.166  11.402  21.908  0.00  0.00    +0.000 A 
ATOM     10  C   UNL     1      -0.846  10.540  22.979  0.00  0.00    +0.000 A 
ATOM     11  C   UNL     1      -0.149   9.350  22.766  0.00  0.00    +0.000 A 
ATOM     12  C   UNL     1       0.242   9.015  21.476  0.00  0.00    +0.000 A 
ATOM     13  C   UNL     1      -0.047   9.852  20.406  0.00  0.00    +0.000 A 
ATOM     14  C   UNL     1      -0.748  11.043  20.617  0.00  0.00    +0.000 A 
BRANCH  12  15
ATOM     15  O   UNL     1       0.925   7.864  21.218  0.00  0.00    +0.000 OA
ATOM     16  H   UNL     1       1.870   8.072  21.134  0.00  0.00    +0.000 HD
ENDBRANCH  12  15
ENDBRANCH   4   9
BRANCH   1  18
ATOM     17  N   UNL     1      -7.650  12.711  22.428  0.00  0.00    +0.000 NA
ATOM     18  C   UNL     1      -6.394  12.704  22.313  0.00  0.00    +0.000 C 
ENDBRANCH   1  18
BRANCH   2  19
ATOM     19  S   UNL     1      -5.314  12.952  19.479  0.00  0.00    +0.000 S 
BRANCH  19  20
ATOM     20  C   UNL     1      -5.342  11.202  18.932  0.00  0.00    +0.000 C 
BRANCH  20  21
ATOM     21  C   UNL     1      -4.342  10.902  17.830  0.00  0.00    +0.000 A 
ATOM     22  C   UNL     1      -3.192  10.137  18.094  0.00  0.00    +0.000 A 
ATOM     23  C   UNL     1      -2.286   9.824  17.075  0.00  0.00    +0.000 A 
ATOM     24  C   UNL     1      -2.516  10.268  15.773  0.00  0.00    +0.000 A 
ATOM     25  C   UNL     1      -3.656  11.016  15.491  0.00  0.00    +0.000 A 
ATOM     26  C   UNL     1      -4.565  11.323  16.509  0.00  0.00    +0.000 A 
ENDBRANCH  20  21
ENDBRANCH  19  20
ENDBRANCH   2  19
TORSDOF 6
ENDMDL
MODEL 9
REMARK VINA RESULT:      -6.7      4.164      7.764
REMARK  Name = 
REMARK  6 active torsions:
REMARK  status: ('A' for Active; 'I' for Inactive)
REMARK    1  A    between atoms: C_2  and  C_3
REMARK    2  A    between atoms: C_4  and  S_5
REMARK    3  A    between atoms: S_5  and  C_6
REMARK    4  A    between atoms: C_6  and  C_7
REMARK    5  A    between atoms: C_14  and  C_15
REMARK    6  A    between atoms: C_18  and  O_19
REMARK                            x       y       z     vdW  Elec       q    Type
REMARK                         _______ _______ _______ _____ _____    ______ ____
ROOT
ATOM      1  C   UNL     1       6.386   5.696  17.682  0.00  0.00    +0.000 C 
ATOM      2  C   UNL     1       5.804   5.076  16.626  0.00  0.00    +0.000 C 
ATOM      3  S   UNL     1       5.403   3.382  16.644  0.00  0.00    +0.000 S 
ATOM      4  C   UNL     1       5.144   3.056  18.381  0.00  0.00    +0.000 C 
ATOM      5  N   UNL     1       5.946   3.868  19.255  0.00  0.00    +0.000 N 
ATOM      6  C   UNL     1       6.517   5.074  19.016  0.00  0.00    +0.000 C 
ATOM      7  O   UNL     1       7.122   5.636  19.926  0.00  0.00    +0.000 OA
ATOM      8  H   UNL     1       6.050   3.551  20.211  0.00  0.00    +0.000 HD
ENDROOT
BRANCH   4   9
ATOM      9  C   UNL     1       3.671   3.037  18.730  0.00  0.00    +0.000 A 
ATOM     10  C   UNL     1       2.744   3.577  17.812  0.00  0.00    +0.000 A 
ATOM     11  C   UNL     1       1.380   3.625  18.106  0.00  0.00    +0.000 A 
ATOM     12  C   UNL     1       0.931   3.137  19.326  0.00  0.00    +0.000 A 
ATOM     13  C   UNL     1       1.824   2.612  20.253  0.00  0.00    +0.000 A 
ATOM     14  C   UNL     1       3.190   2.562  19.960  0.00  0.00    +0.000 A 
BRANCH  12  15
ATOM     15  O   UNL     1      -0.390   3.161  19.657  0.00  0.00    +0.000 OA
ATOM     16  H   UNL     1      -0.478   3.478  20.571  0.00  0.00    +0.000 HD
ENDBRANCH  12  15
ENDBRANCH   4   9
BRANCH   1  18
ATOM     17  N   UNL     1       7.668   8.131  17.279  0.00  0.00    +0.000 NA
ATOM     18  C   UNL     1       7.087   7.027  17.462  0.00  0.00    +0.000 C 
ENDBRANCH   1  18
BRANCH   2  19
ATOM     19  S   UNL     1       5.658   5.859  15.041  0.00  0.00    +0.000 S 
BRANCH  19  20
ATOM     20  C   UNL     1       6.953   5.021  14.052  0.00  0.00    +0.000 C 
BRANCH  20  21
ATOM     21  C   UNL     1       6.392   4.062  13.017  0.00  0.00    +0.000 A 
ATOM     22  C   UNL     1       7.246   3.222  12.281  0.00  0.00    +0.000 A 
ATOM     23  C   UNL     1       6.733   2.309  11.352  0.00  0.00    +0.000 A 
ATOM     24  C   UNL     1       5.357   2.218  11.147  0.00  0.00    +0.000 A 
ATOM     25  C   UNL     1       4.496   3.034  11.876  0.00  0.00    +0.000 A 
ATOM     26  C   UNL     1       5.009   3.941  12.809  0.00  0.00    +0.000 A 
ENDBRANCH  20  21
ENDBRANCH  19  20
ENDBRANCH   2  19
TORSDOF 6
ENDMDL
