MODEL 1
REMARK VINA RESULT:      -8.9      0.000      0.000
REMARK  Name = 
REMARK  5 active torsions:
REMARK  status: ('A' for Active; 'I' for Inactive)
REMARK    1  A    between atoms: C_2  and  C_4
REMARK    2  A    between atoms: C_7  and  C_8
REMARK    3  A    between atoms: C_8  and  N_9
REMARK    4  A    between atoms: N_13  and  C_14
REMARK    5  A    between atoms: C_20  and  C_21
REMARK                            x       y       z     vdW  Elec       q    Type
REMARK                         _______ _______ _______ _____ _____    ______ ____
ROOT
ATOM      1  N   UNL     1       1.701  10.571  17.732  0.00  0.00    +0.000 N 
ATOM      2  C   UNL     1       1.858   9.410  18.424  0.00  0.00    +0.000 A 
ATOM      3  N   UNL     1       1.306   9.317  19.682  0.00  0.00    +0.000 NA
ATOM      4  C   UNL     1       1.443   8.219  20.369  0.00  0.00    +0.000 A 
ATOM      5  N   UNL     1       0.946   8.017  21.644  0.00  0.00    +0.000 N 
ATOM      6  N   UNL     1       2.152   7.166  19.783  0.00  0.00    +0.000 N 
ATOM      7  N   UNL     1       2.355   5.962  20.371  0.00  0.00    +0.000 NA
ATOM      8  C   UNL     1       3.065   5.306  19.444  0.00  0.00    +0.000 A 
ATOM      9  C   UNL     1       3.317   6.085  18.286  0.00  0.00    +0.000 A 
ATOM     10  C   UNL     1       2.689   7.289  18.534  0.00  0.00    +0.000 A 
ATOM     11  N   UNL     1       2.531   8.450  17.842  0.00  0.00    +0.000 NA
ATOM     12  H   UNL     1       2.162  10.591  16.833  0.00  0.00    +0.000 HD
ATOM     13  H   UNL     1       1.066   7.064  21.985  0.00  0.00    +0.000 HD
ENDROOT
BRANCH   9  14
ATOM     14  C   UNL     1       4.053   5.709  17.121  0.00  0.00    +0.000 C 
ATOM     15  C   UNL     1       5.323   5.288  17.082  0.00  0.00    +0.000 C 
ATOM     16  N   UNL     1       6.183   5.121  18.127  0.00  0.00    +0.000 N 
ATOM     17  C   UNL     1       7.402   4.661  17.679  0.00  0.00    +0.000 C 
ATOM     18  O   UNL     1       8.382   4.440  18.368  0.00  0.00    +0.000 OA
ATOM     19  N   UNL     1       7.309   4.510  16.320  0.00  0.00    +0.000 N 
ATOM     20  C   UNL     1       6.079   4.888  15.857  0.00  0.00    +0.000 C 
ATOM     21  O   UNL     1       5.683   4.910  14.709  0.00  0.00    +0.000 OA
ATOM     22  H   UNL     1       5.986   5.393  19.084  0.00  0.00    +0.000 HD
ATOM     23  H   UNL     1       8.072   4.206  15.741  0.00  0.00    +0.000 HD
ENDBRANCH   9  14
BRANCH   5  24
ATOM     24  C   UNL     1      -0.205   8.800  22.080  0.00  0.00    +0.000 C 
ATOM     25  C   UNL     1      -0.253   9.403  23.456  0.00  0.00    +0.000 C 
ATOM     26  C   UNL     1      -0.091  10.288  22.255  0.00  0.00    +0.000 C 
ENDBRANCH   5  24
BRANCH   1  27
ATOM     27  C   UNL     1       1.528  11.852  18.377  0.00  0.00    +0.000 C 
BRANCH  27  31
ATOM     28  C   UNL     1      -2.562  12.507  19.631  0.00  0.00    +0.000 A 
ATOM     29  C   UNL     1      -2.295  11.654  18.558  0.00  0.00    +0.000 A 
ATOM     30  C   UNL     1      -0.975  11.445  18.143  0.00  0.00    +0.000 A 
ATOM     31  C   UNL     1       0.091  12.100  18.776  0.00  0.00    +0.000 A 
ATOM     32  C   UNL     1      -0.189  12.943  19.863  0.00  0.00    +0.000 A 
ATOM     33  C   UNL     1      -1.507  13.152  20.283  0.00  0.00    +0.000 A 
BRANCH  28  35
ATOM     34  N   UNL     1      -4.914  12.870  19.131  0.00  0.00    +0.000 N 
ATOM     35  C   UNL     1      -3.950  12.755  20.094  0.00  0.00    +0.000 C 
ATOM     36  O   UNL     1      -4.230  12.820  21.282  0.00  0.00    +0.000 OA
ATOM     37  H   UNL     1      -5.870  12.944  19.457  0.00  0.00    +0.000 HD
ATOM     38  H   UNL     1      -4.764  12.574  18.178  0.00  0.00    +0.000 HD
ENDBRANCH  28  35
ENDBRANCH  27  31
ENDBRANCH   1  27
TORSDOF 5
ENDMDL
MODEL 2
REMARK VINA RESULT:      -8.9      2.530      4.010
REMARK  Name = 
REMARK  5 active torsions:
REMARK  status: ('A' for Active; 'I' for Inactive)
REMARK    1  A    between atoms: C_2  and  C_4
REMARK    2  A    between atoms: C_7  and  C_8
REMARK    3  A    between atoms: C_8  and  N_9
REMARK    4  A    between atoms: N_13  and  C_14
REMARK    5  A    between atoms: C_20  and  C_21
REMARK                            x       y       z     vdW  Elec       q    Type
REMARK                         _______ _______ _______ _____ _____    ______ ____
ROOT
ATOM      1  N   UNL     1       2.812   8.325  17.623  0.00  0.00    +0.000 N 
ATOM      2  C   UNL     1       3.434   7.130  17.814  0.00  0.00    +0.000 A 
ATOM      3  N   UNL     1       3.060   6.361  18.892  0.00  0.00    +0.000 NA
ATOM      4  C   UNL     1       3.640   5.214  19.102  0.00  0.00    +0.000 A 
ATOM      5  N   UNL     1       3.358   4.367  20.158  0.00  0.00    +0.000 N 
ATOM      6  N   UNL     1       4.630   4.810  18.201  0.00  0.00    +0.000 N 
ATOM      7  N   UNL     1       5.303   3.636  18.283  0.00  0.00    +0.000 NA
ATOM      8  C   UNL     1       6.122   3.699  17.225  0.00  0.00    +0.000 A 
ATOM      9  C   UNL     1       5.978   4.901  16.486  0.00  0.00    +0.000 A 
ATOM     10  C   UNL     1       4.980   5.595  17.141  0.00  0.00    +0.000 A 
ATOM     11  N   UNL     1       4.357   6.789  16.951  0.00  0.00    +0.000 NA
ATOM     12  H   UNL     1       3.158   8.860  16.838  0.00  0.00    +0.000 HD
ATOM     13  H   UNL     1       3.842   3.471  20.105  0.00  0.00    +0.000 HD
ENDROOT
BRANCH   9  14
ATOM     14  C   UNL     1       6.700   5.304  15.321  0.00  0.00    +0.000 C 
ATOM     15  C   UNL     1       6.680   4.705  14.125  0.00  0.00    +0.000 C 
ATOM     16  N   UNL     1       5.973   3.599  13.752  0.00  0.00    +0.000 N 
ATOM     17  C   UNL     1       6.211   3.298  12.429  0.00  0.00    +0.000 C 
ATOM     18  O   UNL     1       5.747   2.355  11.814  0.00  0.00    +0.000 OA
ATOM     19  N   UNL     1       7.071   4.247  11.941  0.00  0.00    +0.000 N 
ATOM     20  C   UNL     1       7.432   5.142  12.910  0.00  0.00    +0.000 C 
ATOM     21  O   UNL     1       8.201   6.078  12.819  0.00  0.00    +0.000 OA
ATOM     22  H   UNL     1       5.430   3.022  14.386  0.00  0.00    +0.000 HD
ATOM     23  H   UNL     1       7.424   4.246  11.000  0.00  0.00    +0.000 HD
ENDBRANCH   9  14
BRANCH   5  24
ATOM     24  C   UNL     1       2.043   4.440  20.784  0.00  0.00    +0.000 C 
ATOM     25  C   UNL     1       0.861   3.731  20.186  0.00  0.00    +0.000 C 
ATOM     26  C   UNL     1       1.459   3.239  21.471  0.00  0.00    +0.000 C 
ENDBRANCH   5  24
BRANCH   1  27
ATOM     27  C   UNL     1       2.242   9.095  18.705  0.00  0.00    +0.000 C 
BRANCH  27  31
ATOM     28  C   UNL     1      -1.617  10.811  17.757  0.00  0.00    +0.000 A 
ATOM     29  C   UNL     1      -1.224   9.614  17.154  0.00  0.00    +0.000 A 
ATOM     30  C   UNL     1       0.026   9.059  17.450  0.00  0.00    +0.000 A 
ATOM     31  C   UNL     1       0.907   9.700  18.332  0.00  0.00    +0.000 A 
ATOM     32  C   UNL     1       0.495  10.894  18.945  0.00  0.00    +0.000 A 
ATOM     33  C   UNL     1      -0.755  11.450  18.653  0.00  0.00    +0.000 A 
BRANCH  28  35
ATOM     34  N   UNL     1      -3.301  11.508  16.147  0.00  0.00    +0.000 N 
ATOM     35  C   UNL     1      -2.933  11.428  17.462  0.00  0.00    +0.000 C 
ATOM     36  O   UNL     1      -3.674  11.819  18.352  0.00  0.00    +0.000 OA
ATOM     37  H   UNL     1      -4.237  11.843  15.960  0.00  0.00    +0.000 HD
ATOM     38  H   UNL     1      -2.838  10.976  15.424  0.00  0.00    +0.000 HD
ENDBRANCH  28  35
ENDBRANCH  27  31
ENDBRANCH   1  27
TORSDOF 5
ENDMDL
MODEL 3
REMARK VINA RESULT:      -8.7      0.842      1.199
REMARK  Name = 
REMARK  5 active torsions:
REMARK  status: ('A' for Active; 'I' for Inactive)
REMARK    1  A    between atoms: C_2  and  C_4
REMARK    2  A    between atoms: C_7  and  C_8
REMARK    3  A    between atoms: C_8  and  N_9
REMARK    4  A    between atoms: N_13  and  C_14
REMARK    5  A    between atoms: C_20  and  C_21
REMARK                            x       y       z     vdW  Elec       q    Type
REMARK                         _______ _______ _______ _____ _____    ______ ____
ROOT
ATOM      1  N   UNL     1       1.832  10.262  17.647  0.00  0.00    +0.000 N 
ATOM      2  C   UNL     1       1.918   9.134  18.401  0.00  0.00    +0.000 A 
ATOM      3  N   UNL     1       1.360   9.141  19.660  0.00  0.00    +0.000 NA
ATOM      4  C   UNL     1       1.430   8.076  20.406  0.00  0.00    +0.000 A 
ATOM      5  N   UNL     1       0.920   7.973  21.687  0.00  0.00    +0.000 N 
ATOM      6  N   UNL     1       2.076   6.953  19.880  0.00  0.00    +0.000 N 
ATOM      7  N   UNL     1       2.206   5.772  20.534  0.00  0.00    +0.000 NA
ATOM      8  C   UNL     1       2.877   5.025  19.646  0.00  0.00    +0.000 A 
ATOM      9  C   UNL     1       3.177   5.724  18.450  0.00  0.00    +0.000 A 
ATOM     10  C   UNL     1       2.621   6.975  18.629  0.00  0.00    +0.000 A 
ATOM     11  N   UNL     1       2.534   8.105  17.875  0.00  0.00    +0.000 NA
ATOM     12  H   UNL     1       2.295  10.206  16.750  0.00  0.00    +0.000 HD
ATOM     13  H   UNL     1       0.982   7.034  22.079  0.00  0.00    +0.000 HD
ENDROOT
BRANCH   9  14
ATOM     14  C   UNL     1       3.891   5.243  17.310  0.00  0.00    +0.000 C 
ATOM     15  C   UNL     1       5.113   5.620  16.917  0.00  0.00    +0.000 C 
ATOM     16  N   UNL     1       5.940   6.529  17.509  0.00  0.00    +0.000 N 
ATOM     17  C   UNL     1       7.121   6.635  16.808  0.00  0.00    +0.000 C 
ATOM     18  O   UNL     1       8.047   7.380  17.071  0.00  0.00    +0.000 OA
ATOM     19  N   UNL     1       7.054   5.757  15.757  0.00  0.00    +0.000 N 
ATOM     20  C   UNL     1       5.854   5.102  15.728  0.00  0.00    +0.000 C 
ATOM     21  O   UNL     1       5.461   4.290  14.914  0.00  0.00    +0.000 OA
ATOM     22  H   UNL     1       5.682   7.117  18.294  0.00  0.00    +0.000 HD
ATOM     23  H   UNL     1       7.782   5.651  15.073  0.00  0.00    +0.000 HD
ENDBRANCH   9  14
BRANCH   5  24
ATOM     24  C   UNL     1      -0.182   8.845  22.075  0.00  0.00    +0.000 C 
ATOM     25  C   UNL     1      -0.269   9.411  23.465  0.00  0.00    +0.000 C 
ATOM     26  C   UNL     1       0.052  10.311  22.308  0.00  0.00    +0.000 C 
ENDBRANCH   5  24
BRANCH   1  27
ATOM     27  C   UNL     1       1.735  11.585  18.221  0.00  0.00    +0.000 C 
BRANCH  27  31
ATOM     28  C   UNL     1      -2.263  12.469  19.625  0.00  0.00    +0.000 A 
ATOM     29  C   UNL     1      -1.166  13.098  20.218  0.00  0.00    +0.000 A 
ATOM     30  C   UNL     1       0.130  12.810  19.773  0.00  0.00    +0.000 A 
ATOM     31  C   UNL     1       0.349  11.876  18.750  0.00  0.00    +0.000 A 
ATOM     32  C   UNL     1      -0.763  11.262  18.152  0.00  0.00    +0.000 A 
ATOM     33  C   UNL     1      -2.059  11.550  18.592  0.00  0.00    +0.000 A 
BRANCH  28  35
ATOM     34  N   UNL     1      -4.640  12.635  19.140  0.00  0.00    +0.000 N 
ATOM     35  C   UNL     1      -3.648  12.747  20.075  0.00  0.00    +0.000 C 
ATOM     36  O   UNL     1      -3.902  13.031  21.237  0.00  0.00    +0.000 OA
ATOM     37  H   UNL     1      -5.590  12.734  19.477  0.00  0.00    +0.000 HD
ATOM     38  H   UNL     1      -4.500  12.166  18.258  0.00  0.00    +0.000 HD
ENDBRANCH  28  35
ENDBRANCH  27  31
ENDBRANCH   1  27
TORSDOF 5
ENDMDL
MODEL 4
REMARK VINA RESULT:      -8.5      3.739      8.974
REMARK  Name = 
REMARK  5 active torsions:
REMARK  status: ('A' for Active; 'I' for Inactive)
REMARK    1  A    between atoms: C_2  and  C_4
REMARK    2  A    between atoms: C_7  and  C_8
REMARK    3  A    between atoms: C_8  and  N_9
REMARK    4  A    between atoms: N_13  and  C_14
REMARK    5  A    between atoms: C_20  and  C_21
REMARK                            x       y       z     vdW  Elec       q    Type
REMARK                         _______ _______ _______ _____ _____    ______ ____
ROOT
ATOM      1  N   UNL     1       1.528   9.415  19.291  0.00  0.00    +0.000 N 
ATOM      2  C   UNL     1       0.882  10.610  19.224  0.00  0.00    +0.000 A 
ATOM      3  N   UNL     1      -0.166  10.741  18.341  0.00  0.00    +0.000 NA
ATOM      4  C   UNL     1      -0.801  11.875  18.252  0.00  0.00    +0.000 A 
ATOM      5  N   UNL     1      -1.854  12.126  17.393  0.00  0.00    +0.000 N 
ATOM      6  N   UNL     1      -0.383  12.922  19.078  0.00  0.00    +0.000 N 
ATOM      7  N   UNL     1      -0.961  14.148  19.108  0.00  0.00    +0.000 NA
ATOM      8  C   UNL     1      -0.232  14.788  20.032  0.00  0.00    +0.000 A 
ATOM      9  C   UNL     1       0.801  13.983  20.576  0.00  0.00    +0.000 A 
ATOM     10  C   UNL     1       0.661  12.763  19.944  0.00  0.00    +0.000 A 
ATOM     11  N   UNL     1       1.306  11.567  20.011  0.00  0.00    +0.000 NA
ATOM     12  H   UNL     1       2.312   9.395  19.929  0.00  0.00    +0.000 HD
ATOM     13  H   UNL     1      -2.289  13.037  17.532  0.00  0.00    +0.000 HD
ENDROOT
BRANCH   9  14
ATOM     14  C   UNL     1       1.769  14.348  21.561  0.00  0.00    +0.000 C 
ATOM     15  C   UNL     1       3.057  14.639  21.343  0.00  0.00    +0.000 C 
ATOM     16  N   UNL     1       3.722  14.658  20.152  0.00  0.00    +0.000 N 
ATOM     17  C   UNL     1       5.038  15.017  20.341  0.00  0.00    +0.000 C 
ATOM     18  O   UNL     1       5.891  15.097  19.475  0.00  0.00    +0.000 OA
ATOM     19  N   UNL     1       5.211  15.254  21.680  0.00  0.00    +0.000 N 
ATOM     20  C   UNL     1       4.058  15.030  22.380  0.00  0.00    +0.000 C 
ATOM     21  O   UNL     1       3.879  15.113  23.579  0.00  0.00    +0.000 OA
ATOM     22  H   UNL     1       3.329  14.353  19.268  0.00  0.00    +0.000 HD
ATOM     23  H   UNL     1       6.091  15.511  22.090  0.00  0.00    +0.000 HD
ENDBRANCH   9  14
BRANCH   5  24
ATOM     24  C   UNL     1      -2.664  11.004  16.930  0.00  0.00    +0.000 C 
ATOM     25  C   UNL     1      -4.009  11.230  16.298  0.00  0.00    +0.000 C 
ATOM     26  C   UNL     1      -2.856  10.760  15.460  0.00  0.00    +0.000 C 
ENDBRANCH   5  24
BRANCH   1  27
ATOM     27  C   UNL     1       1.603   8.499  18.177  0.00  0.00    +0.000 C 
BRANCH  27  31
ATOM     28  C   UNL     1       4.518   5.343  18.702  0.00  0.00    +0.000 A 
ATOM     29  C   UNL     1       3.472   5.479  19.618  0.00  0.00    +0.000 A 
ATOM     30  C   UNL     1       2.531   6.503  19.457  0.00  0.00    +0.000 A 
ATOM     31  C   UNL     1       2.634   7.416  18.398  0.00  0.00    +0.000 A 
ATOM     32  C   UNL     1       3.681   7.259  17.475  0.00  0.00    +0.000 A 
ATOM     33  C   UNL     1       4.621   6.235  17.631  0.00  0.00    +0.000 A 
BRANCH  28  35
ATOM     34  N   UNL     1       5.092   3.045  19.252  0.00  0.00    +0.000 N 
ATOM     35  C   UNL     1       5.535   4.273  18.846  0.00  0.00    +0.000 C 
ATOM     36  O   UNL     1       6.713   4.466  18.580  0.00  0.00    +0.000 OA
ATOM     37  H   UNL     1       5.775   2.298  19.256  0.00  0.00    +0.000 HD
ATOM     38  H   UNL     1       4.115   2.790  19.232  0.00  0.00    +0.000 HD
ENDBRANCH  28  35
ENDBRANCH  27  31
ENDBRANCH   1  27
TORSDOF 5
ENDMDL
MODEL 5
REMARK VINA RESULT:      -8.4      3.473      9.057
REMARK  Name = 
REMARK  5 active torsions:
REMARK  status: ('A' for Active; 'I' for Inactive)
REMARK    1  A    between atoms: C_2  and  C_4
REMARK    2  A    between atoms: C_7  and  C_8
REMARK    3  A    between atoms: C_8  and  N_9
REMARK    4  A    between atoms: N_13  and  C_14
REMARK    5  A    between atoms: C_20  and  C_21
REMARK                            x       y       z     vdW  Elec       q    Type
REMARK                         _______ _______ _______ _____ _____    ______ ____
ROOT
ATOM      1  N   UNL     1       1.053   9.834  17.886  0.00  0.00    +0.000 N 
ATOM      2  C   UNL     1       0.751  10.993  18.531  0.00  0.00    +0.000 A 
ATOM      3  N   UNL     1       1.779  11.848  18.860  0.00  0.00    +0.000 NA
ATOM      4  C   UNL     1       1.521  12.964  19.481  0.00  0.00    +0.000 A 
ATOM      5  N   UNL     1       2.471  13.888  19.873  0.00  0.00    +0.000 N 
ATOM      6  N   UNL     1       0.185  13.247  19.782  0.00  0.00    +0.000 N 
ATOM      7  N   UNL     1      -0.232  14.377  20.405  0.00  0.00    +0.000 NA
ATOM      8  C   UNL     1      -1.559  14.197  20.468  0.00  0.00    +0.000 A 
ATOM      9  C   UNL     1      -1.977  12.966  19.901  0.00  0.00    +0.000 A 
ATOM     10  C   UNL     1      -0.813  12.380  19.444  0.00  0.00    +0.000 A 
ATOM     11  N   UNL     1      -0.510  11.221  18.799  0.00  0.00    +0.000 NA
ATOM     12  H   UNL     1       0.260   9.232  17.708  0.00  0.00    +0.000 HD
ATOM     13  H   UNL     1       2.075  14.745  20.258  0.00  0.00    +0.000 HD
ENDROOT
BRANCH   9  14
ATOM     14  C   UNL     1      -3.306  12.449  19.815  0.00  0.00    +0.000 C 
ATOM     15  C   UNL     1      -3.898  11.951  18.723  0.00  0.00    +0.000 C 
ATOM     16  N   UNL     1      -3.374  11.823  17.469  0.00  0.00    +0.000 N 
ATOM     17  C   UNL     1      -4.295  11.255  16.618  0.00  0.00    +0.000 C 
ATOM     18  O   UNL     1      -4.134  11.036  15.431  0.00  0.00    +0.000 OA
ATOM     19  N   UNL     1      -5.424  10.994  17.349  0.00  0.00    +0.000 N 
ATOM     20  C   UNL     1      -5.285  11.403  18.647  0.00  0.00    +0.000 C 
ATOM     21  O   UNL     1      -6.104  11.351  19.543  0.00  0.00    +0.000 OA
ATOM     22  H   UNL     1      -2.472  12.188  17.182  0.00  0.00    +0.000 HD
ATOM     23  H   UNL     1      -6.260  10.597  16.959  0.00  0.00    +0.000 HD
ENDBRANCH   9  14
BRANCH   5  24
ATOM     24  C   UNL     1       3.739  13.939  19.154  0.00  0.00    +0.000 C 
ATOM     25  C   UNL     1       3.908  14.817  17.946  0.00  0.00    +0.000 C 
ATOM     26  C   UNL     1       4.607  15.162  19.228  0.00  0.00    +0.000 C 
ENDBRANCH   5  24
BRANCH   1  27
ATOM     27  C   UNL     1       2.327   9.168  18.024  0.00  0.00    +0.000 C 
BRANCH  27  31
ATOM     28  C   UNL     1       1.903   5.420  20.148  0.00  0.00    +0.000 A 
ATOM     29  C   UNL     1       1.640   6.623  20.807  0.00  0.00    +0.000 A 
ATOM     30  C   UNL     1       1.784   7.838  20.128  0.00  0.00    +0.000 A 
ATOM     31  C   UNL     1       2.212   7.871  18.793  0.00  0.00    +0.000 A 
ATOM     32  C   UNL     1       2.457   6.654  18.136  0.00  0.00    +0.000 A 
ATOM     33  C   UNL     1       2.312   5.438  18.812  0.00  0.00    +0.000 A 
BRANCH  28  35
ATOM     34  N   UNL     1       0.712   3.325  20.472  0.00  0.00    +0.000 N 
ATOM     35  C   UNL     1       1.766   4.115  20.839  0.00  0.00    +0.000 C 
ATOM     36  O   UNL     1       2.576   3.743  21.676  0.00  0.00    +0.000 OA
ATOM     37  H   UNL     1       0.680   2.399  20.880  0.00  0.00    +0.000 HD
ATOM     38  H   UNL     1       0.186   3.485  19.626  0.00  0.00    +0.000 HD
ENDBRANCH  28  35
ENDBRANCH  27  31
ENDBRANCH   1  27
TORSDOF 5
ENDMDL
MODEL 6
REMARK VINA RESULT:      -8.3      3.820      8.771
REMARK  Name = 
REMARK  5 active torsions:
REMARK  status: ('A' for Active; 'I' for Inactive)
REMARK    1  A    between atoms: C_2  and  C_4
REMARK    2  A    between atoms: C_7  and  C_8
REMARK    3  A    between atoms: C_8  and  N_9
REMARK    4  A    between atoms: N_13  and  C_14
REMARK    5  A    between atoms: C_20  and  C_21
REMARK                            x       y       z     vdW  Elec       q    Type
REMARK                         _______ _______ _______ _____ _____    ______ ____
ROOT
ATOM      1  N   UNL     1       1.802   9.578  19.039  0.00  0.00    +0.000 N 
ATOM      2  C   UNL     1       1.217  10.798  18.906  0.00  0.00    +0.000 A 
ATOM      3  N   UNL     1       0.015  10.880  18.239  0.00  0.00    +0.000 NA
ATOM      4  C   UNL     1      -0.567  12.036  18.093  0.00  0.00    +0.000 A 
ATOM      5  N   UNL     1      -1.763  12.241  17.431  0.00  0.00    +0.000 N 
ATOM      6  N   UNL     1       0.065  13.158  18.638  0.00  0.00    +0.000 N 
ATOM      7  N   UNL     1      -0.433  14.417  18.581  0.00  0.00    +0.000 NA
ATOM      8  C   UNL     1       0.503  15.127  19.225  0.00  0.00    +0.000 A 
ATOM      9  C   UNL     1       1.586  14.331  19.678  0.00  0.00    +0.000 A 
ATOM     10  C   UNL     1       1.257  13.045  19.294  0.00  0.00    +0.000 A 
ATOM     11  N   UNL     1       1.842  11.824  19.427  0.00  0.00    +0.000 NA
ATOM     12  H   UNL     1       2.701   9.590  19.503  0.00  0.00    +0.000 HD
ATOM     13  H   UNL     1      -2.114  13.195  17.502  0.00  0.00    +0.000 HD
ENDROOT
BRANCH   9  14
ATOM     14  C   UNL     1       2.755  14.759  20.378  0.00  0.00    +0.000 C 
ATOM     15  C   UNL     1       3.987  14.880  19.872  0.00  0.00    +0.000 C 
ATOM     16  N   UNL     1       4.397  14.632  18.595  0.00  0.00    +0.000 N 
ATOM     17  C   UNL     1       5.745  14.885  18.463  0.00  0.00    +0.000 C 
ATOM     18  O   UNL     1       6.407  14.734  17.453  0.00  0.00    +0.000 OA
ATOM     19  N   UNL     1       6.200  15.326  19.679  0.00  0.00    +0.000 N 
ATOM     20  C   UNL     1       5.201  15.339  20.612  0.00  0.00    +0.000 C 
ATOM     21  O   UNL     1       5.275  15.640  21.787  0.00  0.00    +0.000 OA
ATOM     22  H   UNL     1       3.814  14.223  17.872  0.00  0.00    +0.000 HD
ATOM     23  H   UNL     1       7.159  15.561  19.861  0.00  0.00    +0.000 HD
ENDBRANCH   9  14
BRANCH   5  24
ATOM     24  C   UNL     1      -2.706  11.132  17.327  0.00  0.00    +0.000 C 
ATOM     25  C   UNL     1      -3.906  11.220  16.426  0.00  0.00    +0.000 C 
ATOM     26  C   UNL     1      -2.770  10.303  16.076  0.00  0.00    +0.000 C 
ENDBRANCH   5  24
BRANCH   1  27
ATOM     27  C   UNL     1       1.598   8.502  18.096  0.00  0.00    +0.000 C 
BRANCH  27  31
ATOM     28  C   UNL     1       4.623   5.448  18.599  0.00  0.00    +0.000 A 
ATOM     29  C   UNL     1       4.746   6.381  17.567  0.00  0.00    +0.000 A 
ATOM     30  C   UNL     1       3.766   7.365  17.394  0.00  0.00    +0.000 A 
ATOM     31  C   UNL     1       2.644   7.418  18.233  0.00  0.00    +0.000 A 
ATOM     32  C   UNL     1       2.540   6.485  19.277  0.00  0.00    +0.000 A 
ATOM     33  C   UNL     1       3.518   5.501  19.453  0.00  0.00    +0.000 A 
BRANCH  28  35
ATOM     34  N   UNL     1       5.203   3.199  19.321  0.00  0.00    +0.000 N 
ATOM     35  C   UNL     1       5.640   4.388  18.807  0.00  0.00    +0.000 C 
ATOM     36  O   UNL     1       6.812   4.553  18.500  0.00  0.00    +0.000 OA
ATOM     37  H   UNL     1       5.884   2.452  19.371  0.00  0.00    +0.000 HD
ATOM     38  H   UNL     1       4.225   2.948  19.344  0.00  0.00    +0.000 HD
ENDBRANCH  28  35
ENDBRANCH  27  31
ENDBRANCH   1  27
TORSDOF 5
ENDMDL
MODEL 7
REMARK VINA RESULT:      -8.3      3.861      8.828
REMARK  Name = 
REMARK  5 active torsions:
REMARK  status: ('A' for Active; 'I' for Inactive)
REMARK    1  A    between atoms: C_2  and  C_4
REMARK    2  A    between atoms: C_7  and  C_8
REMARK    3  A    between atoms: C_8  and  N_9
REMARK    4  A    between atoms: N_13  and  C_14
REMARK    5  A    between atoms: C_20  and  C_21
REMARK                            x       y       z     vdW  Elec       q    Type
REMARK                         _______ _______ _______ _____ _____    ______ ____
ROOT
ATOM      1  N   UNL     1       1.903   9.732  18.964  0.00  0.00    +0.000 N 
ATOM      2  C   UNL     1       1.259  10.925  18.855  0.00  0.00    +0.000 A 
ATOM      3  N   UNL     1       0.055  10.962  18.188  0.00  0.00    +0.000 NA
ATOM      4  C   UNL     1      -0.583  12.091  18.065  0.00  0.00    +0.000 A 
ATOM      5  N   UNL     1      -1.787  12.250  17.405  0.00  0.00    +0.000 N 
ATOM      6  N   UNL     1      -0.006  13.231  18.633  0.00  0.00    +0.000 N 
ATOM      7  N   UNL     1      -0.565  14.466  18.600  0.00  0.00    +0.000 NA
ATOM      8  C   UNL     1       0.336  15.206  19.259  0.00  0.00    +0.000 A 
ATOM      9  C   UNL     1       1.456  14.455  19.697  0.00  0.00    +0.000 A 
ATOM     10  C   UNL     1       1.190  13.163  19.288  0.00  0.00    +0.000 A 
ATOM     11  N   UNL     1       1.834  11.969  19.396  0.00  0.00    +0.000 NA
ATOM     12  H   UNL     1       2.800   9.778  19.429  0.00  0.00    +0.000 HD
ATOM     13  H   UNL     1      -2.183  13.186  17.495  0.00  0.00    +0.000 HD
ENDROOT
BRANCH   9  14
ATOM     14  C   UNL     1       2.603  14.925  20.407  0.00  0.00    +0.000 C 
ATOM     15  C   UNL     1       3.847  15.037  19.927  0.00  0.00    +0.000 C 
ATOM     16  N   UNL     1       4.292  14.737  18.673  0.00  0.00    +0.000 N 
ATOM     17  C   UNL     1       5.640  14.998  18.564  0.00  0.00    +0.000 C 
ATOM     18  O   UNL     1       6.329  14.809  17.579  0.00  0.00    +0.000 OA
ATOM     19  N   UNL     1       6.060  15.496  19.770  0.00  0.00    +0.000 N 
ATOM     20  C   UNL     1       5.037  15.540  20.677  0.00  0.00    +0.000 C 
ATOM     21  O   UNL     1       5.078  15.893  21.839  0.00  0.00    +0.000 OA
ATOM     22  H   UNL     1       3.731  14.291  17.955  0.00  0.00    +0.000 HD
ATOM     23  H   UNL     1       7.012  15.748  19.967  0.00  0.00    +0.000 HD
ENDBRANCH   9  14
BRANCH   5  24
ATOM     24  C   UNL     1      -2.675  11.100  17.278  0.00  0.00    +0.000 C 
ATOM     25  C   UNL     1      -3.923  11.175  16.444  0.00  0.00    +0.000 C 
ATOM     26  C   UNL     1      -2.761  10.345  15.982  0.00  0.00    +0.000 C 
ENDBRANCH   5  24
BRANCH   1  27
ATOM     27  C   UNL     1       1.751   8.666  18.000  0.00  0.00    +0.000 C 
BRANCH  27  31
ATOM     28  C   UNL     1       4.378   5.297  18.692  0.00  0.00    +0.000 A 
ATOM     29  C   UNL     1       3.325   5.548  19.576  0.00  0.00    +0.000 A 
ATOM     30  C   UNL     1       2.478   6.640  19.361  0.00  0.00    +0.000 A 
ATOM     31  C   UNL     1       2.682   7.508  18.279  0.00  0.00    +0.000 A 
ATOM     32  C   UNL     1       3.733   7.237  17.389  0.00  0.00    +0.000 A 
ATOM     33  C   UNL     1       4.581   6.144  17.599  0.00  0.00    +0.000 A 
BRANCH  28  35
ATOM     34  N   UNL     1       6.513   4.212  18.270  0.00  0.00    +0.000 N 
ATOM     35  C   UNL     1       5.297   4.150  18.893  0.00  0.00    +0.000 C 
ATOM     36  O   UNL     1       5.000   3.206  19.611  0.00  0.00    +0.000 OA
ATOM     37  H   UNL     1       7.169   3.473  18.488  0.00  0.00    +0.000 HD
ATOM     38  H   UNL     1       6.881   5.072  17.889  0.00  0.00    +0.000 HD
ENDBRANCH  28  35
ENDBRANCH  27  31
ENDBRANCH   1  27
TORSDOF 5
ENDMDL
MODEL 8
REMARK VINA RESULT:      -8.2      3.906      8.708
REMARK  Name = 
REMARK  5 active torsions:
REMARK  status: ('A' for Active; 'I' for Inactive)
REMARK    1  A    between atoms: C_2  and  C_4
REMARK    2  A    between atoms: C_7  and  C_8
REMARK    3  A    between atoms: C_8  and  N_9
REMARK    4  A    between atoms: N_13  and  C_14
REMARK    5  A    between atoms: C_20  and  C_21
REMARK                            x       y       z     vdW  Elec       q    Type
REMARK                         _______ _______ _______ _____ _____    ______ ____
ROOT
ATOM      1  N   UNL     1       2.172   9.958  18.632  0.00  0.00    +0.000 N 
ATOM      2  C   UNL     1       1.498  11.139  18.605  0.00  0.00    +0.000 A 
ATOM      3  N   UNL     1       0.143  11.117  18.366  0.00  0.00    +0.000 NA
ATOM      4  C   UNL     1      -0.528  12.233  18.331  0.00  0.00    +0.000 A 
ATOM      5  N   UNL     1      -1.884  12.333  18.085  0.00  0.00    +0.000 N 
ATOM      6  N   UNL     1       0.175  13.422  18.549  0.00  0.00    +0.000 N 
ATOM      7  N   UNL     1      -0.394  14.653  18.561  0.00  0.00    +0.000 NA
ATOM      8  C   UNL     1       0.653  15.451  18.805  0.00  0.00    +0.000 A 
ATOM      9  C   UNL     1       1.873  14.739  18.937  0.00  0.00    +0.000 A 
ATOM     10  C   UNL     1       1.519  13.413  18.783  0.00  0.00    +0.000 A 
ATOM     11  N   UNL     1       2.192  12.231  18.810  0.00  0.00    +0.000 NA
ATOM     12  H   UNL     1       3.169  10.044  18.773  0.00  0.00    +0.000 HD
ATOM     13  H   UNL     1      -2.253  13.277  18.193  0.00  0.00    +0.000 HD
ENDROOT
BRANCH   9  14
ATOM     14  C   UNL     1       3.176  15.272  19.179  0.00  0.00    +0.000 C 
ATOM     15  C   UNL     1       3.984  14.967  20.201  0.00  0.00    +0.000 C 
ATOM     16  N   UNL     1       3.751  14.092  21.221  0.00  0.00    +0.000 N 
ATOM     17  C   UNL     1       4.832  14.047  22.074  0.00  0.00    +0.000 C 
ATOM     18  O   UNL     1       4.917  13.381  23.090  0.00  0.00    +0.000 OA
ATOM     19  N   UNL     1       5.784  14.898  21.575  0.00  0.00    +0.000 N 
ATOM     20  C   UNL     1       5.349  15.524  20.439  0.00  0.00    +0.000 C 
ATOM     21  O   UNL     1       5.929  16.358  19.772  0.00  0.00    +0.000 OA
ATOM     22  H   UNL     1       2.869  13.617  21.383  0.00  0.00    +0.000 HD
ATOM     23  H   UNL     1       6.667  15.069  22.022  0.00  0.00    +0.000 HD
ENDBRANCH   9  14
BRANCH   5  24
ATOM     24  C   UNL     1      -2.737  11.188  18.382  0.00  0.00    +0.000 C 
ATOM     25  C   UNL     1      -4.151  11.125  17.877  0.00  0.00    +0.000 C 
ATOM     26  C   UNL     1      -3.107  10.213  17.301  0.00  0.00    +0.000 C 
ENDBRANCH   5  24
BRANCH   1  27
ATOM     27  C   UNL     1       1.741   8.792  17.895  0.00  0.00    +0.000 C 
BRANCH  27  31
ATOM     28  C   UNL     1       4.400   5.458  18.635  0.00  0.00    +0.000 A 
ATOM     29  C   UNL     1       4.583   6.251  17.499  0.00  0.00    +0.000 A 
ATOM     30  C   UNL     1       3.721   7.325  17.251  0.00  0.00    +0.000 A 
ATOM     31  C   UNL     1       2.655   7.608  18.117  0.00  0.00    +0.000 A 
ATOM     32  C   UNL     1       2.492   6.815  19.263  0.00  0.00    +0.000 A 
ATOM     33  C   UNL     1       3.353   5.741  19.516  0.00  0.00    +0.000 A 
BRANCH  28  35
ATOM     34  N   UNL     1       6.566   4.371  18.433  0.00  0.00    +0.000 N 
ATOM     35  C   UNL     1       5.292   4.309  18.926  0.00  0.00    +0.000 C 
ATOM     36  O   UNL     1       4.921   3.362  19.604  0.00  0.00    +0.000 OA
ATOM     37  H   UNL     1       7.195   3.630  18.715  0.00  0.00    +0.000 HD
ATOM     38  H   UNL     1       6.973   5.231  18.096  0.00  0.00    +0.000 HD
ENDBRANCH  28  35
ENDBRANCH  27  31
ENDBRANCH   1  27
TORSDOF 5
ENDMDL
MODEL 9
REMARK VINA RESULT:      -8.1      3.232      9.823
REMARK  Name = 
REMARK  5 active torsions:
REMARK  status: ('A' for Active; 'I' for Inactive)
REMARK    1  A    between atoms: C_2  and  C_4
REMARK    2  A    between atoms: C_7  and  C_8
REMARK    3  A    between atoms: C_8  and  N_9
REMARK    4  A    between atoms: N_13  and  C_14
REMARK    5  A    between atoms: C_20  and  C_21
REMARK                            x       y       z     vdW  Elec       q    Type
REMARK                         _______ _______ _______ _____ _____    ______ ____
ROOT
ATOM      1  N   UNL     1       0.646  10.142  19.015  0.00  0.00    +0.000 N 
ATOM      2  C   UNL     1       0.768  11.333  19.660  0.00  0.00    +0.000 A 
ATOM      3  N   UNL     1       1.758  12.200  19.255  0.00  0.00    +0.000 NA
ATOM      4  C   UNL     1       1.901  13.347  19.856  0.00  0.00    +0.000 A 
ATOM      5  N   UNL     1       2.867  14.286  19.546  0.00  0.00    +0.000 N 
ATOM      6  N   UNL     1       1.021  13.650  20.899  0.00  0.00    +0.000 N 
ATOM      7  N   UNL     1       1.039  14.811  21.599  0.00  0.00    +0.000 NA
ATOM      8  C   UNL     1       0.033  14.639  22.467  0.00  0.00    +0.000 A 
ATOM      9  C   UNL     1      -0.610  13.383  22.327  0.00  0.00    +0.000 A 
ATOM     10  C   UNL     1       0.049  12.770  21.279  0.00  0.00    +0.000 A 
ATOM     11  N   UNL     1      -0.073  11.578  20.634  0.00  0.00    +0.000 NA
ATOM     12  H   UNL     1      -0.074   9.535  19.384  0.00  0.00    +0.000 HD
ATOM     13  H   UNL     1       2.764  15.163  20.056  0.00  0.00    +0.000 HD
ENDROOT
BRANCH   9  14
ATOM     14  C   UNL     1      -1.699  12.866  23.093  0.00  0.00    +0.000 C 
ATOM     15  C   UNL     1      -2.992  12.878  22.749  0.00  0.00    +0.000 C 
ATOM     16  N   UNL     1      -3.551  13.373  21.607  0.00  0.00    +0.000 N 
ATOM     17  C   UNL     1      -4.916  13.189  21.620  0.00  0.00    +0.000 C 
ATOM     18  O   UNL     1      -5.695  13.547  20.755  0.00  0.00    +0.000 OA
ATOM     19  N   UNL     1      -5.232  12.543  22.786  0.00  0.00    +0.000 N 
ATOM     20  C   UNL     1      -4.122  12.326  23.555  0.00  0.00    +0.000 C 
ATOM     21  O   UNL     1      -4.058  11.812  24.654  0.00  0.00    +0.000 OA
ATOM     22  H   UNL     1      -3.046  13.893  20.897  0.00  0.00    +0.000 HD
ATOM     23  H   UNL     1      -6.171  12.307  23.055  0.00  0.00    +0.000 HD
ENDBRANCH   9  14
BRANCH   5  24
ATOM     24  C   UNL     1       3.429  14.296  18.201  0.00  0.00    +0.000 C 
ATOM     25  C   UNL     1       3.726  15.591  17.496  0.00  0.00    +0.000 C 
ATOM     26  C   UNL     1       4.852  14.721  17.974  0.00  0.00    +0.000 C 
ENDBRANCH   5  24
BRANCH   1  27
ATOM     27  C   UNL     1       1.757   9.479  18.373  0.00  0.00    +0.000 C 
BRANCH  27  31
ATOM     28  C   UNL     1       2.321   5.456  19.865  0.00  0.00    +0.000 A 
ATOM     29  C   UNL     1       1.852   6.453  20.723  0.00  0.00    +0.000 A 
ATOM     30  C   UNL     1       1.676   7.758  20.248  0.00  0.00    +0.000 A 
ATOM     31  C   UNL     1       1.985   8.088  18.921  0.00  0.00    +0.000 A 
ATOM     32  C   UNL     1       2.440   7.074  18.064  0.00  0.00    +0.000 A 
ATOM     33  C   UNL     1       2.615   5.768  18.535  0.00  0.00    +0.000 A 
BRANCH  28  35
ATOM     34  N   UNL     1       2.114   3.774  21.609  0.00  0.00    +0.000 N 
ATOM     35  C   UNL     1       2.524   4.064  20.337  0.00  0.00    +0.000 C 
ATOM     36  O   UNL     1       3.003   3.203  19.614  0.00  0.00    +0.000 OA
ATOM     37  H   UNL     1       2.169   2.803  21.889  0.00  0.00    +0.000 HD
ATOM     38  H   UNL     1       1.496   4.379  22.129  0.00  0.00    +0.000 HD
ENDBRANCH  28  35
ENDBRANCH  27  31
ENDBRANCH   1  27
TORSDOF 5
ENDMDL
