MODEL 1
REMARK VINA RESULT:      -7.3      0.000      0.000
REMARK  Name = 
REMARK  4 active torsions:
REMARK  status: ('A' for Active; 'I' for Inactive)
REMARK    1  A    between atoms: C_11  and  C_12
REMARK    2  A    between atoms: C_12  and  N_13
REMARK    3  A    between atoms: N_16  and  C_17
REMARK    4  A    between atoms: C_17  and  C_18
REMARK                            x       y       z     vdW  Elec       q    Type
REMARK                         _______ _______ _______ _____ _____    ______ ____
ROOT
ATOM      1  N   UNL     1       0.393   8.494  20.793  0.00  0.00    +0.000 NA
ATOM      2  C   UNL     1      -0.363   8.557  22.064  0.00  0.00    +0.000 C 
ATOM      3  C   UNL     1      -0.103   9.773  22.997  0.00  0.00    +0.000 C 
ATOM      4  N   UNL     1      -0.039  11.102  22.352  0.00  0.00    +0.000 NA
ATOM      5  C   UNL     1       0.805  10.990  21.142  0.00  0.00    +0.000 C 
ATOM      6  C   UNL     1       0.393   9.844  20.179  0.00  0.00    +0.000 C 
ENDROOT
BRANCH   1   7
ATOM      7  C   UNL     1       1.784   8.001  20.895  0.00  0.00    +0.000 C 
BRANCH   7  18
ATOM      8  O   UNL     1       2.439   7.650  18.192  0.00  0.00    +0.000 OA
ATOM      9  C   UNL     1       2.456   6.642  18.891  0.00  0.00    +0.000 C 
ATOM     10  C   UNL     1       2.902   5.342  18.347  0.00  0.00    +0.000 A 
ATOM     11  C   UNL     1       3.854   5.319  17.325  0.00  0.00    +0.000 A 
ATOM     12  C   UNL     1       4.401   4.100  16.931  0.00  0.00    +0.000 A 
ATOM     13  C   UNL     1       3.976   2.918  17.537  0.00  0.00    +0.000 A 
ATOM     14  C   UNL     1       2.991   2.944  18.530  0.00  0.00    +0.000 A 
ATOM     15  C   UNL     1       2.439   4.161  18.952  0.00  0.00    +0.000 A 
ATOM     16  C   UNL     1       1.421   4.181  20.075  0.00  0.00    +0.000 C 
ATOM     17  C   UNL     1       0.900   5.593  20.421  0.00  0.00    +0.000 C 
ATOM     18  C   UNL     1       2.059   6.589  20.356  0.00  0.00    +0.000 C 
ENDBRANCH   7  18
ENDBRANCH   1   7
BRANCH   4  19
ATOM     19  C   UNL     1      -1.358  11.657  21.996  0.00  0.00    +0.000 C 
BRANCH  19  20
ATOM     20  C   UNL     1      -1.975  12.588  23.020  0.00  0.00    +0.000 A 
ATOM     21  C   UNL     1      -1.341  13.778  23.409  0.00  0.00    +0.000 A 
ATOM     22  C   UNL     1      -1.967  14.660  24.294  0.00  0.00    +0.000 A 
ATOM     23  C   UNL     1      -3.236  14.369  24.794  0.00  0.00    +0.000 A 
ATOM     24  C   UNL     1      -3.880  13.197  24.409  0.00  0.00    +0.000 A 
ATOM     25  C   UNL     1      -3.256  12.315  23.526  0.00  0.00    +0.000 A 
ENDBRANCH  19  20
ENDBRANCH   4  19
TORSDOF 4
ENDMDL
MODEL 2
REMARK VINA RESULT:      -7.3      3.192      4.273
REMARK  Name = 
REMARK  4 active torsions:
REMARK  status: ('A' for Active; 'I' for Inactive)
REMARK    1  A    between atoms: C_11  and  C_12
REMARK    2  A    between atoms: C_12  and  N_13
REMARK    3  A    between atoms: N_16  and  C_17
REMARK    4  A    between atoms: C_17  and  C_18
REMARK                            x       y       z     vdW  Elec       q    Type
REMARK                         _______ _______ _______ _____ _____    ______ ____
ROOT
ATOM      1  N   UNL     1       1.707   9.500  17.621  0.00  0.00    +0.000 NA
ATOM      2  C   UNL     1       0.261   9.250  17.820  0.00  0.00    +0.000 C 
ATOM      3  C   UNL     1      -0.422   9.914  19.049  0.00  0.00    +0.000 C 
ATOM      4  N   UNL     1      -0.087  11.331  19.308  0.00  0.00    +0.000 NA
ATOM      5  C   UNL     1       1.379  11.492  19.184  0.00  0.00    +0.000 C 
ATOM      6  C   UNL     1       1.973  10.939  17.861  0.00  0.00    +0.000 C 
ENDROOT
BRANCH   1   7
ATOM      7  C   UNL     1       2.621   8.686  18.452  0.00  0.00    +0.000 C 
BRANCH   7  18
ATOM      8  O   UNL     1       2.062   6.929  20.563  0.00  0.00    +0.000 OA
ATOM      9  C   UNL     1       2.230   6.418  19.460  0.00  0.00    +0.000 C 
ATOM     10  C   UNL     1       2.042   4.966  19.254  0.00  0.00    +0.000 A 
ATOM     11  C   UNL     1       1.119   4.278  20.044  0.00  0.00    +0.000 A 
ATOM     12  C   UNL     1       0.814   2.954  19.739  0.00  0.00    +0.000 A 
ATOM     13  C   UNL     1       1.450   2.322  18.669  0.00  0.00    +0.000 A 
ATOM     14  C   UNL     1       2.406   3.004  17.909  0.00  0.00    +0.000 A 
ATOM     15  C   UNL     1       2.715   4.342  18.191  0.00  0.00    +0.000 A 
ATOM     16  C   UNL     1       3.703   5.090  17.317  0.00  0.00    +0.000 C 
ATOM     17  C   UNL     1       3.946   6.549  17.757  0.00  0.00    +0.000 C 
ATOM     18  C   UNL     1       2.621   7.171  18.201  0.00  0.00    +0.000 C 
ENDBRANCH   7  18
ENDBRANCH   1   7
BRANCH   4  19
ATOM     19  C   UNL     1      -0.775  12.280  18.413  0.00  0.00    +0.000 C 
BRANCH  19  20
ATOM     20  C   UNL     1      -2.208  11.931  18.064  0.00  0.00    +0.000 A 
ATOM     21  C   UNL     1      -2.549  11.381  16.819  0.00  0.00    +0.000 A 
ATOM     22  C   UNL     1      -3.864  10.994  16.550  0.00  0.00    +0.000 A 
ATOM     23  C   UNL     1      -4.852  11.143  17.523  0.00  0.00    +0.000 A 
ATOM     24  C   UNL     1      -4.526  11.679  18.765  0.00  0.00    +0.000 A 
ATOM     25  C   UNL     1      -3.213  12.067  19.035  0.00  0.00    +0.000 A 
ENDBRANCH  19  20
ENDBRANCH   4  19
TORSDOF 4
ENDMDL
MODEL 3
REMARK VINA RESULT:      -7.3      0.327      1.016
REMARK  Name = 
REMARK  4 active torsions:
REMARK  status: ('A' for Active; 'I' for Inactive)
REMARK    1  A    between atoms: C_11  and  C_12
REMARK    2  A    between atoms: C_12  and  N_13
REMARK    3  A    between atoms: N_16  and  C_17
REMARK    4  A    between atoms: C_17  and  C_18
REMARK                            x       y       z     vdW  Elec       q    Type
REMARK                         _______ _______ _______ _____ _____    ______ ____
ROOT
ATOM      1  N   UNL     1       0.372   8.585  20.918  0.00  0.00    +0.000 NA
ATOM      2  C   UNL     1      -0.427   8.602  22.164  0.00  0.00    +0.000 C 
ATOM      3  C   UNL     1      -0.225   9.801  23.134  0.00  0.00    +0.000 C 
ATOM      4  N   UNL     1      -0.169  11.146  22.521  0.00  0.00    +0.000 NA
ATOM      5  C   UNL     1       0.717  11.080  21.338  0.00  0.00    +0.000 C 
ATOM      6  C   UNL     1       0.363   9.949  20.336  0.00  0.00    +0.000 C 
ENDROOT
BRANCH   1   7
ATOM      7  C   UNL     1       1.769   8.119  21.056  0.00  0.00    +0.000 C 
BRANCH   7  18
ATOM      8  O   UNL     1       2.451   8.015  18.339  0.00  0.00    +0.000 OA
ATOM      9  C   UNL     1       2.515   6.957  18.957  0.00  0.00    +0.000 C 
ATOM     10  C   UNL     1       3.026   5.727  18.315  0.00  0.00    +0.000 A 
ATOM     11  C   UNL     1       3.982   5.832  17.302  0.00  0.00    +0.000 A 
ATOM     12  C   UNL     1       4.590   4.677  16.817  0.00  0.00    +0.000 A 
ATOM     13  C   UNL     1       4.221   3.430  17.325  0.00  0.00    +0.000 A 
ATOM     14  C   UNL     1       3.232   3.330  18.309  0.00  0.00    +0.000 A 
ATOM     15  C   UNL     1       2.619   4.482  18.821  0.00  0.00    +0.000 A 
ATOM     16  C   UNL     1       1.598   4.363  19.935  0.00  0.00    +0.000 C 
ATOM     17  C   UNL     1       1.007   5.716  20.386  0.00  0.00    +0.000 C 
ATOM     18  C   UNL     1       2.115   6.769  20.410  0.00  0.00    +0.000 C 
ENDBRANCH   7  18
ENDBRANCH   1   7
BRANCH   4  19
ATOM     19  C   UNL     1      -1.487  11.681  22.134  0.00  0.00    +0.000 C 
BRANCH  19  20
ATOM     20  C   UNL     1      -2.076  12.716  23.072  0.00  0.00    +0.000 A 
ATOM     21  C   UNL     1      -3.349  12.555  23.639  0.00  0.00    +0.000 A 
ATOM     22  C   UNL     1      -3.837  13.483  24.563  0.00  0.00    +0.000 A 
ATOM     23  C   UNL     1      -3.058  14.577  24.937  0.00  0.00    +0.000 A 
ATOM     24  C   UNL     1      -1.789  14.744  24.389  0.00  0.00    +0.000 A 
ATOM     25  C   UNL     1      -1.300  13.818  23.466  0.00  0.00    +0.000 A 
ENDBRANCH  19  20
ENDBRANCH   4  19
TORSDOF 4
ENDMDL
MODEL 4
REMARK VINA RESULT:      -7.2      3.463     10.366
REMARK  Name = 
REMARK  4 active torsions:
REMARK  status: ('A' for Active; 'I' for Inactive)
REMARK    1  A    between atoms: C_11  and  C_12
REMARK    2  A    between atoms: C_12  and  N_13
REMARK    3  A    between atoms: N_16  and  C_17
REMARK    4  A    between atoms: C_17  and  C_18
REMARK                            x       y       z     vdW  Elec       q    Type
REMARK                         _______ _______ _______ _____ _____    ______ ____
ROOT
ATOM      1  N   UNL     1       4.578   5.334  19.249  0.00  0.00    +0.000 NA
ATOM      2  C   UNL     1       4.861   3.915  18.937  0.00  0.00    +0.000 C 
ATOM      3  C   UNL     1       4.480   3.398  17.521  0.00  0.00    +0.000 C 
ATOM      4  N   UNL     1       4.831   4.272  16.381  0.00  0.00    +0.000 NA
ATOM      5  C   UNL     1       4.438   5.658  16.720  0.00  0.00    +0.000 C 
ATOM      6  C   UNL     1       4.981   6.160  18.085  0.00  0.00    +0.000 C 
ENDROOT
BRANCH   1   7
ATOM      7  C   UNL     1       3.179   5.647  19.613  0.00  0.00    +0.000 C 
BRANCH   7  18
ATOM      8  O   UNL     1       1.229   6.834  21.239  0.00  0.00    +0.000 OA
ATOM      9  C   UNL     1       1.680   7.529  20.334  0.00  0.00    +0.000 C 
ATOM     10  C   UNL     1       1.283   8.946  20.189  0.00  0.00    +0.000 A 
ATOM     11  C   UNL     1       0.937   9.678  21.327  0.00  0.00    +0.000 A 
ATOM     12  C   UNL     1       0.731  11.051  21.217  0.00  0.00    +0.000 A 
ATOM     13  C   UNL     1       0.843  11.675  19.973  0.00  0.00    +0.000 A 
ATOM     14  C   UNL     1       1.147  10.927  18.830  0.00  0.00    +0.000 A 
ATOM     15  C   UNL     1       1.374   9.547  18.923  0.00  0.00    +0.000 A 
ATOM     16  C   UNL     1       1.768   8.761  17.688  0.00  0.00    +0.000 C 
ATOM     17  C   UNL     1       1.975   7.254  17.948  0.00  0.00    +0.000 C 
ATOM     18  C   UNL     1       2.680   7.063  19.291  0.00  0.00    +0.000 C 
ENDBRANCH   7  18
ENDBRANCH   1   7
BRANCH   4  19
ATOM     19  C   UNL     1       6.258   4.228  16.012  0.00  0.00    +0.000 C 
BRANCH  19  20
ATOM     20  C   UNL     1       6.556   4.329  14.530  0.00  0.00    +0.000 A 
ATOM     21  C   UNL     1       7.537   5.202  14.035  0.00  0.00    +0.000 A 
ATOM     22  C   UNL     1       7.850   5.219  12.673  0.00  0.00    +0.000 A 
ATOM     23  C   UNL     1       7.195   4.361  11.791  0.00  0.00    +0.000 A 
ATOM     24  C   UNL     1       6.226   3.484  12.271  0.00  0.00    +0.000 A 
ATOM     25  C   UNL     1       5.912   3.466  13.630  0.00  0.00    +0.000 A 
ENDBRANCH  19  20
ENDBRANCH   4  19
TORSDOF 4
ENDMDL
MODEL 5
REMARK VINA RESULT:      -7.2      3.352     10.510
REMARK  Name = 
REMARK  4 active torsions:
REMARK  status: ('A' for Active; 'I' for Inactive)
REMARK    1  A    between atoms: C_11  and  C_12
REMARK    2  A    between atoms: C_12  and  N_13
REMARK    3  A    between atoms: N_16  and  C_17
REMARK    4  A    between atoms: C_17  and  C_18
REMARK                            x       y       z     vdW  Elec       q    Type
REMARK                         _______ _______ _______ _____ _____    ______ ____
ROOT
ATOM      1  N   UNL     1       4.747   6.592  18.332  0.00  0.00    +0.000 NA
ATOM      2  C   UNL     1       5.733   5.602  18.823  0.00  0.00    +0.000 C 
ATOM      3  C   UNL     1       5.763   4.211  18.131  0.00  0.00    +0.000 C 
ATOM      4  N   UNL     1       5.695   4.204  16.653  0.00  0.00    +0.000 NA
ATOM      5  C   UNL     1       4.630   5.141  16.234  0.00  0.00    +0.000 C 
ATOM      6  C   UNL     1       4.749   6.561  16.849  0.00  0.00    +0.000 C 
ENDROOT
BRANCH   1   7
ATOM      7  C   UNL     1       3.363   6.420  18.825  0.00  0.00    +0.000 C 
BRANCH   7  18
ATOM      8  O   UNL     1       1.413   6.443  20.838  0.00  0.00    +0.000 OA
ATOM      9  C   UNL     1       1.610   7.507  20.259  0.00  0.00    +0.000 C 
ATOM     10  C   UNL     1       0.925   8.746  20.683  0.00  0.00    +0.000 A 
ATOM     11  C   UNL     1       0.571   8.907  22.025  0.00  0.00    +0.000 A 
ATOM     12  C   UNL     1       0.084  10.137  22.458  0.00  0.00    +0.000 A 
ATOM     13  C   UNL     1      -0.072  11.184  21.549  0.00  0.00    +0.000 A 
ATOM     14  C   UNL     1       0.243  11.002  20.198  0.00  0.00    +0.000 A 
ATOM     15  C   UNL     1       0.749   9.777  19.745  0.00  0.00    +0.000 A 
ATOM     16  C   UNL     1       1.149   9.615  18.291  0.00  0.00    +0.000 C 
ATOM     17  C   UNL     1       1.681   8.208  17.943  0.00  0.00    +0.000 C 
ATOM     18  C   UNL     1       2.558   7.701  19.089  0.00  0.00    +0.000 C 
ENDBRANCH   7  18
ENDBRANCH   1   7
BRANCH   4  19
ATOM     19  C   UNL     1       6.966   4.558  15.996  0.00  0.00    +0.000 C 
BRANCH  19  20
ATOM     20  C   UNL     1       6.952   4.529  14.481  0.00  0.00    +0.000 A 
ATOM     21  C   UNL     1       7.751   5.397  13.721  0.00  0.00    +0.000 A 
ATOM     22  C   UNL     1       7.781   5.296  12.327  0.00  0.00    +0.000 A 
ATOM     23  C   UNL     1       7.022   4.324  11.677  0.00  0.00    +0.000 A 
ATOM     24  C   UNL     1       6.232   3.451  12.420  0.00  0.00    +0.000 A 
ATOM     25  C   UNL     1       6.200   3.550  13.812  0.00  0.00    +0.000 A 
ENDBRANCH  19  20
ENDBRANCH   4  19
TORSDOF 4
ENDMDL
MODEL 6
REMARK VINA RESULT:      -7.1      1.148      1.807
REMARK  Name = 
REMARK  4 active torsions:
REMARK  status: ('A' for Active; 'I' for Inactive)
REMARK    1  A    between atoms: C_11  and  C_12
REMARK    2  A    between atoms: C_12  and  N_13
REMARK    3  A    between atoms: N_16  and  C_17
REMARK    4  A    between atoms: C_17  and  C_18
REMARK                            x       y       z     vdW  Elec       q    Type
REMARK                         _______ _______ _______ _____ _____    ______ ____
ROOT
ATOM      1  N   UNL     1       0.101   8.371  20.963  0.00  0.00    +0.000 NA
ATOM      2  C   UNL     1      -0.591   8.678  22.236  0.00  0.00    +0.000 C 
ATOM      3  C   UNL     1      -0.119   9.930  23.028  0.00  0.00    +0.000 C 
ATOM      4  N   UNL     1       0.118  11.160  22.243  0.00  0.00    +0.000 NA
ATOM      5  C   UNL     1       0.891  10.798  21.035  0.00  0.00    +0.000 C 
ATOM      6  C   UNL     1       0.279   9.635  20.209  0.00  0.00    +0.000 C 
ENDROOT
BRANCH   1   7
ATOM      7  C   UNL     1       1.405   7.686  21.089  0.00  0.00    +0.000 C 
BRANCH   7  18
ATOM      8  O   UNL     1       2.251   5.096  21.748  0.00  0.00    +0.000 OA
ATOM      9  C   UNL     1       2.143   5.345  20.551  0.00  0.00    +0.000 C 
ATOM     10  C   UNL     1       2.351   4.296  19.531  0.00  0.00    +0.000 A 
ATOM     11  C   UNL     1       2.053   2.968  19.846  0.00  0.00    +0.000 A 
ATOM     12  C   UNL     1       2.082   2.006  18.839  0.00  0.00    +0.000 A 
ATOM     13  C   UNL     1       2.433   2.370  17.539  0.00  0.00    +0.000 A 
ATOM     14  C   UNL     1       2.773   3.694  17.240  0.00  0.00    +0.000 A 
ATOM     15  C   UNL     1       2.735   4.680  18.235  0.00  0.00    +0.000 A 
ATOM     16  C   UNL     1       3.040   6.122  17.883  0.00  0.00    +0.000 C 
ATOM     17  C   UNL     1       2.965   7.087  19.085  0.00  0.00    +0.000 C 
ATOM     18  C   UNL     1       1.780   6.701  19.972  0.00  0.00    +0.000 C 
ENDBRANCH   7  18
ENDBRANCH   1   7
BRANCH   4  19
ATOM     19  C   UNL     1      -1.116  11.869  21.858  0.00  0.00    +0.000 C 
BRANCH  19  20
ATOM     20  C   UNL     1      -1.765  12.698  22.949  0.00  0.00    +0.000 A 
ATOM     21  C   UNL     1      -1.170  13.874  23.431  0.00  0.00    +0.000 A 
ATOM     22  C   UNL     1      -1.827  14.663  24.380  0.00  0.00    +0.000 A 
ATOM     23  C   UNL     1      -3.086  14.292  24.851  0.00  0.00    +0.000 A 
ATOM     24  C   UNL     1      -3.690  13.133  24.374  0.00  0.00    +0.000 A 
ATOM     25  C   UNL     1      -3.036  12.343  23.427  0.00  0.00    +0.000 A 
ENDBRANCH  19  20
ENDBRANCH   4  19
TORSDOF 4
ENDMDL
MODEL 7
REMARK VINA RESULT:      -7.1      1.158      1.723
REMARK  Name = 
REMARK  4 active torsions:
REMARK  status: ('A' for Active; 'I' for Inactive)
REMARK    1  A    between atoms: C_11  and  C_12
REMARK    2  A    between atoms: C_12  and  N_13
REMARK    3  A    between atoms: N_16  and  C_17
REMARK    4  A    between atoms: C_17  and  C_18
REMARK                            x       y       z     vdW  Elec       q    Type
REMARK                         _______ _______ _______ _____ _____    ______ ____
ROOT
ATOM      1  N   UNL     1       1.560   8.903  20.939  0.00  0.00    +0.000 NA
ATOM      2  C   UNL     1       0.960   9.944  20.074  0.00  0.00    +0.000 C 
ATOM      3  C   UNL     1      -0.520  10.338  20.342  0.00  0.00    +0.000 C 
ATOM      4  N   UNL     1      -0.907  10.534  21.756  0.00  0.00    +0.000 NA
ATOM      5  C   UNL     1      -0.355   9.414  22.548  0.00  0.00    +0.000 C 
ATOM      6  C   UNL     1       1.164   9.173  22.343  0.00  0.00    +0.000 C 
ENDROOT
BRANCH   1   7
ATOM      7  C   UNL     1       1.223   7.505  20.593  0.00  0.00    +0.000 C 
BRANCH   7  18
ATOM      8  O   UNL     1       1.955   7.651  17.892  0.00  0.00    +0.000 OA
ATOM      9  C   UNL     1       2.634   6.915  18.600  0.00  0.00    +0.000 C 
ATOM     10  C   UNL     1       3.832   6.233  18.067  0.00  0.00    +0.000 A 
ATOM     11  C   UNL     1       4.562   6.837  17.041  0.00  0.00    +0.000 A 
ATOM     12  C   UNL     1       5.781   6.284  16.656  0.00  0.00    +0.000 A 
ATOM     13  C   UNL     1       6.246   5.124  17.275  0.00  0.00    +0.000 A 
ATOM     14  C   UNL     1       5.489   4.500  18.272  0.00  0.00    +0.000 A 
ATOM     15  C   UNL     1       4.267   5.048  18.685  0.00  0.00    +0.000 A 
ATOM     16  C   UNL     1       3.488   4.399  19.812  0.00  0.00    +0.000 C 
ATOM     17  C   UNL     1       2.161   5.113  20.146  0.00  0.00    +0.000 C 
ATOM     18  C   UNL     1       2.367   6.626  20.067  0.00  0.00    +0.000 C 
ENDBRANCH   7  18
ENDBRANCH   1   7
BRANCH   4  19
ATOM     19  C   UNL     1      -0.463  11.820  22.323  0.00  0.00    +0.000 C 
BRANCH  19  20
ATOM     20  C   UNL     1      -1.510  12.592  23.100  0.00  0.00    +0.000 A 
ATOM     21  C   UNL     1      -1.303  13.923  23.492  0.00  0.00    +0.000 A 
ATOM     22  C   UNL     1      -2.315  14.639  24.137  0.00  0.00    +0.000 A 
ATOM     23  C   UNL     1      -3.548  14.039  24.390  0.00  0.00    +0.000 A 
ATOM     24  C   UNL     1      -3.770  12.722  23.998  0.00  0.00    +0.000 A 
ATOM     25  C   UNL     1      -2.760  12.005  23.354  0.00  0.00    +0.000 A 
ENDBRANCH  19  20
ENDBRANCH   4  19
TORSDOF 4
ENDMDL
MODEL 8
REMARK VINA RESULT:      -7.1      1.952      9.590
REMARK  Name = 
REMARK  4 active torsions:
REMARK  status: ('A' for Active; 'I' for Inactive)
REMARK    1  A    between atoms: C_11  and  C_12
REMARK    2  A    between atoms: C_12  and  N_13
REMARK    3  A    between atoms: N_16  and  C_17
REMARK    4  A    between atoms: C_17  and  C_18
REMARK                            x       y       z     vdW  Elec       q    Type
REMARK                         _______ _______ _______ _____ _____    ______ ____
ROOT
ATOM      1  N   UNL     1       2.272   7.114  20.159  0.00  0.00    +0.000 NA
ATOM      2  C   UNL     1       1.843   5.749  20.540  0.00  0.00    +0.000 C 
ATOM      3  C   UNL     1       1.623   4.718  19.397  0.00  0.00    +0.000 C 
ATOM      4  N   UNL     1       2.653   4.673  18.337  0.00  0.00    +0.000 NA
ATOM      5  C   UNL     1       2.968   6.063  17.938  0.00  0.00    +0.000 C 
ATOM      6  C   UNL     1       3.326   7.002  19.121  0.00  0.00    +0.000 C 
ENDROOT
BRANCH   1   7
ATOM      7  C   UNL     1       1.202   8.014  19.678  0.00  0.00    +0.000 C 
BRANCH   7  18
ATOM      8  O   UNL     1       0.677  10.734  19.248  0.00  0.00    +0.000 OA
ATOM      9  C   UNL     1       0.215  10.246  20.275  0.00  0.00    +0.000 C 
ATOM     10  C   UNL     1      -0.655  11.036  21.171  0.00  0.00    +0.000 A 
ATOM     11  C   UNL     1      -1.457  12.044  20.630  0.00  0.00    +0.000 A 
ATOM     12  C   UNL     1      -2.401  12.671  21.440  0.00  0.00    +0.000 A 
ATOM     13  C   UNL     1      -2.518  12.308  22.783  0.00  0.00    +0.000 A 
ATOM     14  C   UNL     1      -1.682  11.328  23.328  0.00  0.00    +0.000 A 
ATOM     15  C   UNL     1      -0.736  10.674  22.526  0.00  0.00    +0.000 A 
ATOM     16  C   UNL     1       0.118   9.568  23.113  0.00  0.00    +0.000 C 
ATOM     17  C   UNL     1       1.116   8.951  22.110  0.00  0.00    +0.000 C 
ATOM     18  C   UNL     1       0.444   8.820  20.743  0.00  0.00    +0.000 C 
ENDBRANCH   7  18
ENDBRANCH   1   7
BRANCH   4  19
ATOM     19  C   UNL     1       3.887   3.971  18.733  0.00  0.00    +0.000 C 
BRANCH  19  20
ATOM     20  C   UNL     1       5.042   4.071  17.756  0.00  0.00    +0.000 A 
ATOM     21  C   UNL     1       4.882   3.767  16.396  0.00  0.00    +0.000 A 
ATOM     22  C   UNL     1       5.940   3.944  15.500  0.00  0.00    +0.000 A 
ATOM     23  C   UNL     1       7.166   4.433  15.950  0.00  0.00    +0.000 A 
ATOM     24  C   UNL     1       7.334   4.747  17.296  0.00  0.00    +0.000 A 
ATOM     25  C   UNL     1       6.279   4.571  18.191  0.00  0.00    +0.000 A 
ENDBRANCH  19  20
ENDBRANCH   4  19
TORSDOF 4
ENDMDL
MODEL 9
REMARK VINA RESULT:      -7.0      4.033      5.268
REMARK  Name = 
REMARK  4 active torsions:
REMARK  status: ('A' for Active; 'I' for Inactive)
REMARK    1  A    between atoms: C_11  and  C_12
REMARK    2  A    between atoms: C_12  and  N_13
REMARK    3  A    between atoms: N_16  and  C_17
REMARK    4  A    between atoms: C_17  and  C_18
REMARK                            x       y       z     vdW  Elec       q    Type
REMARK                         _______ _______ _______ _____ _____    ______ ____
ROOT
ATOM      1  N   UNL     1       1.039  11.832  19.768  0.00  0.00    +0.000 NA
ATOM      2  C   UNL     1       0.922  12.687  18.565  0.00  0.00    +0.000 C 
ATOM      3  C   UNL     1      -0.324  13.611  18.458  0.00  0.00    +0.000 C 
ATOM      4  N   UNL     1      -0.703  14.356  19.677  0.00  0.00    +0.000 NA
ATOM      5  C   UNL     1      -0.655  13.423  20.824  0.00  0.00    +0.000 C 
ATOM      6  C   UNL     1       0.679  12.641  20.957  0.00  0.00    +0.000 C 
ENDROOT
BRANCH   1   7
ATOM      7  C   UNL     1       0.234  10.591  19.757  0.00  0.00    +0.000 C 
BRANCH   7  18
ATOM      8  O   UNL     1       1.454   8.778  21.513  0.00  0.00    +0.000 OA
ATOM      9  C   UNL     1       1.446   8.465  20.327  0.00  0.00    +0.000 C 
ATOM     10  C   UNL     1       1.960   7.153  19.879  0.00  0.00    +0.000 A 
ATOM     11  C   UNL     1       1.874   6.056  20.740  0.00  0.00    +0.000 A 
ATOM     12  C   UNL     1       2.198   4.789  20.261  0.00  0.00    +0.000 A 
ATOM     13  C   UNL     1       2.629   4.631  18.943  0.00  0.00    +0.000 A 
ATOM     14  C   UNL     1       2.754   5.740  18.100  0.00  0.00    +0.000 A 
ATOM     15  C   UNL     1       2.419   7.022  18.558  0.00  0.00    +0.000 A 
ATOM     16  C   UNL     1       2.495   8.206  17.614  0.00  0.00    +0.000 C 
ATOM     17  C   UNL     1       2.103   9.549  18.265  0.00  0.00    +0.000 C 
ATOM     18  C   UNL     1       0.912   9.331  19.199  0.00  0.00    +0.000 C 
ENDBRANCH   7  18
ENDBRANCH   1   7
BRANCH   4  19
ATOM     19  C   UNL     1       0.145  15.531  19.947  0.00  0.00    +0.000 C 
BRANCH  19  20
ATOM     20  C   UNL     1       0.314  16.498  18.793  0.00  0.00    +0.000 A 
ATOM     21  C   UNL     1      -0.773  17.218  18.271  0.00  0.00    +0.000 A 
ATOM     22  C   UNL     1      -0.578  18.163  17.261  0.00  0.00    +0.000 A 
ATOM     23  C   UNL     1       0.702  18.407  16.765  0.00  0.00    +0.000 A 
ATOM     24  C   UNL     1       1.789  17.707  17.280  0.00  0.00    +0.000 A 
ATOM     25  C   UNL     1       1.597  16.762  18.289  0.00  0.00    +0.000 A 
ENDBRANCH  19  20
ENDBRANCH   4  19
TORSDOF 4
ENDMDL
