MODEL 1
REMARK VINA RESULT:      -6.8      0.000      0.000
REMARK  Name = 
REMARK  6 active torsions:
REMARK  status: ('A' for Active; 'I' for Inactive)
REMARK    1  A    between atoms: C_1  and  C_2
REMARK    2  A    between atoms: C_2  and  N_3
REMARK    3  A    between atoms: N_3  and  C_4
REMARK    4  A    between atoms: N_3  and  C_12
REMARK    5  A    between atoms: C_4  and  C_5
REMARK    6  A    between atoms: C_12  and  C_13
REMARK                            x       y       z     vdW  Elec       q    Type
REMARK                         _______ _______ _______ _____ _____    ______ ____
ROOT
ATOM      1  N   UNL     1       3.209   6.175  18.577  0.00  0.00    +0.000 NA
ENDROOT
BRANCH   1   3
ATOM      2  C   UNL     1       1.944   8.322  18.000  0.00  0.00    +0.000 C 
ATOM      3  C   UNL     1       3.233   7.504  17.930  0.00  0.00    +0.000 C 
ENDBRANCH   1   3
BRANCH   1   4
ATOM      4  C   UNL     1       4.591   5.682  18.765  0.00  0.00    +0.000 C 
BRANCH   4   5
ATOM      5  C   UNL     1       5.401   5.496  17.518  0.00  0.00    +0.000 A 
ATOM      6  C   UNL     1       5.023   4.704  16.457  0.00  0.00    +0.000 A 
ATOM      7  N   UNL     1       5.745   4.578  15.321  0.00  0.00    +0.000 NA
ATOM      8  C   UNL     1       6.877   5.285  15.250  0.00  0.00    +0.000 A 
ATOM      9  N   UNL     1       7.659   5.150  14.118  0.00  0.00    +0.000 N 
ATOM     10  N   UNL     1       7.344   6.078  16.216  0.00  0.00    +0.000 NA
ATOM     11  C   UNL     1       6.588   6.175  17.324  0.00  0.00    +0.000 A 
ATOM     12  H   UNL     1       7.462   4.258  13.685  0.00  0.00    +0.000 HD
ATOM     13  H   UNL     1       8.617   5.351  14.354  0.00  0.00    +0.000 HD
ENDBRANCH   4   5
ENDBRANCH   1   4
BRANCH   1  14
ATOM     14  C   UNL     1       2.423   6.145  19.826  0.00  0.00    +0.000 C 
BRANCH  14  15
ATOM     15  C   UNL     1       1.558   4.875  20.048  0.00  0.00    +0.000 C 
ATOM     16  C   UNL     1       2.122   4.071  21.235  0.00  0.00    +0.000 C 
ATOM     17  C   UNL     1       1.509   2.680  21.350  0.00  0.00    +0.000 C 
ATOM     18  O   UNL     1       1.581   1.980  20.112  0.00  0.00    +0.000 OA
ATOM     19  C   UNL     1       0.852   2.649  19.088  0.00  0.00    +0.000 C 
ATOM     20  C   UNL     1       1.486   3.999  18.787  0.00  0.00    +0.000 C 
ENDBRANCH  14  15
ENDBRANCH   1  14
TORSDOF 5
ENDMDL
MODEL 2
REMARK VINA RESULT:      -6.7      0.178      1.118
REMARK  Name = 
REMARK  6 active torsions:
REMARK  status: ('A' for Active; 'I' for Inactive)
REMARK    1  A    between atoms: C_1  and  C_2
REMARK    2  A    between atoms: C_2  and  N_3
REMARK    3  A    between atoms: N_3  and  C_4
REMARK    4  A    between atoms: N_3  and  C_12
REMARK    5  A    between atoms: C_4  and  C_5
REMARK    6  A    between atoms: C_12  and  C_13
REMARK                            x       y       z     vdW  Elec       q    Type
REMARK                         _______ _______ _______ _____ _____    ______ ____
ROOT
ATOM      1  N   UNL     1       3.106   6.227  18.617  0.00  0.00    +0.000 NA
ENDROOT
BRANCH   1   3
ATOM      2  C   UNL     1       2.001   8.529  18.472  0.00  0.00    +0.000 C 
ATOM      3  C   UNL     1       3.044   7.542  17.946  0.00  0.00    +0.000 C 
ENDBRANCH   1   3
BRANCH   1   4
ATOM      4  C   UNL     1       4.516   5.837  18.832  0.00  0.00    +0.000 C 
BRANCH   4   5
ATOM      5  C   UNL     1       5.357   5.693  17.599  0.00  0.00    +0.000 A 
ATOM      6  C   UNL     1       6.555   6.339  17.396  0.00  0.00    +0.000 A 
ATOM      7  N   UNL     1       7.322   6.169  16.296  0.00  0.00    +0.000 NA
ATOM      8  C   UNL     1       6.869   5.309  15.379  0.00  0.00    +0.000 A 
ATOM      9  N   UNL     1       7.610   5.138  14.223  0.00  0.00    +0.000 N 
ATOM     10  N   UNL     1       5.722   4.633  15.466  0.00  0.00    +0.000 NA
ATOM     11  C   UNL     1       4.997   4.832  16.581  0.00  0.00    +0.000 A 
ATOM     12  H   UNL     1       8.174   5.963  14.069  0.00  0.00    +0.000 HD
ATOM     13  H   UNL     1       6.996   4.848  13.479  0.00  0.00    +0.000 HD
ENDBRANCH   4   5
ENDBRANCH   1   4
BRANCH   1  14
ATOM     14  C   UNL     1       2.306   6.161  19.855  0.00  0.00    +0.000 C 
BRANCH  14  15
ATOM     15  C   UNL     1       1.497   4.853  20.067  0.00  0.00    +0.000 C 
ATOM     16  C   UNL     1       2.085   4.072  21.259  0.00  0.00    +0.000 C 
ATOM     17  C   UNL     1       1.535   2.656  21.366  0.00  0.00    +0.000 C 
ATOM     18  O   UNL     1       1.650   1.961  20.128  0.00  0.00    +0.000 OA
ATOM     19  C   UNL     1       0.900   2.599  19.098  0.00  0.00    +0.000 C 
ATOM     20  C   UNL     1       1.476   3.976  18.805  0.00  0.00    +0.000 C 
ENDBRANCH  14  15
ENDBRANCH   1  14
TORSDOF 5
ENDMDL
MODEL 3
REMARK VINA RESULT:      -6.5      3.046      5.866
REMARK  Name = 
REMARK  6 active torsions:
REMARK  status: ('A' for Active; 'I' for Inactive)
REMARK    1  A    between atoms: C_1  and  C_2
REMARK    2  A    between atoms: C_2  and  N_3
REMARK    3  A    between atoms: N_3  and  C_4
REMARK    4  A    between atoms: N_3  and  C_12
REMARK    5  A    between atoms: C_4  and  C_5
REMARK    6  A    between atoms: C_12  and  C_13
REMARK                            x       y       z     vdW  Elec       q    Type
REMARK                         _______ _______ _______ _____ _____    ______ ____
ROOT
ATOM      1  N   UNL     1       2.646   4.763  18.354  0.00  0.00    +0.000 NA
ENDROOT
BRANCH   1   3
ATOM      2  C   UNL     1       1.088   4.122  20.279  0.00  0.00    +0.000 C 
ATOM      3  C   UNL     1       1.473   3.985  18.805  0.00  0.00    +0.000 C 
ENDBRANCH   1   3
BRANCH   1   4
ATOM      4  C   UNL     1       2.966   5.813  19.346  0.00  0.00    +0.000 C 
BRANCH   4   5
ATOM      5  C   UNL     1       2.491   7.196  19.018  0.00  0.00    +0.000 A 
ATOM      6  C   UNL     1       2.714   7.829  17.815  0.00  0.00    +0.000 A 
ATOM      7  N   UNL     1       2.247   9.062  17.519  0.00  0.00    +0.000 NA
ATOM      8  C   UNL     1       1.519   9.669  18.462  0.00  0.00    +0.000 A 
ATOM      9  N   UNL     1       1.056  10.947  18.206  0.00  0.00    +0.000 N 
ATOM     10  N   UNL     1       1.245   9.156  19.663  0.00  0.00    +0.000 NA
ATOM     11  C   UNL     1       1.728   7.925  19.909  0.00  0.00    +0.000 A 
ATOM     12  H   UNL     1       1.651  11.380  17.513  0.00  0.00    +0.000 HD
ATOM     13  H   UNL     1       0.931  11.431  19.080  0.00  0.00    +0.000 HD
ENDBRANCH   4   5
ENDBRANCH   1   4
BRANCH   1  14
ATOM     14  C   UNL     1       3.814   3.924  18.022  0.00  0.00    +0.000 C 
BRANCH  14  15
ATOM     15  C   UNL     1       5.062   4.683  17.497  0.00  0.00    +0.000 C 
ATOM     16  C   UNL     1       5.491   4.091  16.140  0.00  0.00    +0.000 C 
ATOM     17  C   UNL     1       6.858   4.585  15.685  0.00  0.00    +0.000 C 
ATOM     18  O   UNL     1       7.836   4.414  16.708  0.00  0.00    +0.000 OA
ATOM     19  C   UNL     1       7.512   5.166  17.874  0.00  0.00    +0.000 C 
ATOM     20  C   UNL     1       6.228   4.641  18.498  0.00  0.00    +0.000 C 
ENDBRANCH  14  15
ENDBRANCH   1  14
TORSDOF 5
ENDMDL
MODEL 4
REMARK VINA RESULT:      -6.4      1.054      1.305
REMARK  Name = 
REMARK  6 active torsions:
REMARK  status: ('A' for Active; 'I' for Inactive)
REMARK    1  A    between atoms: C_1  and  C_2
REMARK    2  A    between atoms: C_2  and  N_3
REMARK    3  A    between atoms: N_3  and  C_4
REMARK    4  A    between atoms: N_3  and  C_12
REMARK    5  A    between atoms: C_4  and  C_5
REMARK    6  A    between atoms: C_12  and  C_13
REMARK                            x       y       z     vdW  Elec       q    Type
REMARK                         _______ _______ _______ _____ _____    ______ ____
ROOT
ATOM      1  N   UNL     1       2.810   6.545  18.395  0.00  0.00    +0.000 NA
ENDROOT
BRANCH   1   3
ATOM      2  C   UNL     1       1.700   8.790  18.916  0.00  0.00    +0.000 C 
ATOM      3  C   UNL     1       2.233   7.803  17.877  0.00  0.00    +0.000 C 
ENDBRANCH   1   3
BRANCH   1   4
ATOM      4  C   UNL     1       4.278   6.554  18.217  0.00  0.00    +0.000 C 
BRANCH   4   5
ATOM      5  C   UNL     1       4.805   5.784  17.044  0.00  0.00    +0.000 A 
ATOM      6  C   UNL     1       5.238   6.358  15.870  0.00  0.00    +0.000 A 
ATOM      7  N   UNL     1       5.748   5.654  14.835  0.00  0.00    +0.000 NA
ATOM      8  C   UNL     1       5.836   4.330  14.997  0.00  0.00    +0.000 A 
ATOM      9  N   UNL     1       6.318   3.574  13.944  0.00  0.00    +0.000 N 
ATOM     10  N   UNL     1       5.442   3.666  16.086  0.00  0.00    +0.000 NA
ATOM     11  C   UNL     1       4.947   4.411  17.090  0.00  0.00    +0.000 A 
ATOM     12  H   UNL     1       6.172   4.081  13.082  0.00  0.00    +0.000 HD
ATOM     13  H   UNL     1       5.940   2.643  14.007  0.00  0.00    +0.000 HD
ENDBRANCH   4   5
ENDBRANCH   1   4
BRANCH   1  14
ATOM     14  C   UNL     1       2.409   6.244  19.783  0.00  0.00    +0.000 C 
BRANCH  14  15
ATOM     15  C   UNL     1       1.562   4.959  19.978  0.00  0.00    +0.000 C 
ATOM     16  C   UNL     1       2.087   4.175  21.197  0.00  0.00    +0.000 C 
ATOM     17  C   UNL     1       1.498   2.774  21.297  0.00  0.00    +0.000 C 
ATOM     18  O   UNL     1       1.641   2.065  20.070  0.00  0.00    +0.000 OA
ATOM     19  C   UNL     1       0.945   2.710  19.007  0.00  0.00    +0.000 C 
ATOM     20  C   UNL     1       1.564   4.070  18.723  0.00  0.00    +0.000 C 
ENDBRANCH  14  15
ENDBRANCH   1  14
TORSDOF 5
ENDMDL
MODEL 5
REMARK VINA RESULT:      -6.4      2.971      5.949
REMARK  Name = 
REMARK  6 active torsions:
REMARK  status: ('A' for Active; 'I' for Inactive)
REMARK    1  A    between atoms: C_1  and  C_2
REMARK    2  A    between atoms: C_2  and  N_3
REMARK    3  A    between atoms: N_3  and  C_4
REMARK    4  A    between atoms: N_3  and  C_12
REMARK    5  A    between atoms: C_4  and  C_5
REMARK    6  A    between atoms: C_12  and  C_13
REMARK                            x       y       z     vdW  Elec       q    Type
REMARK                         _______ _______ _______ _____ _____    ______ ____
ROOT
ATOM      1  N   UNL     1       2.957   6.783  18.076  0.00  0.00    +0.000 NA
ENDROOT
BRANCH   1   3
ATOM      2  C   UNL     1       2.334   9.259  17.931  0.00  0.00    +0.000 C 
ATOM      3  C   UNL     1       1.923   7.795  17.777  0.00  0.00    +0.000 C 
ENDBRANCH   1   3
BRANCH   1   4
ATOM      4  C   UNL     1       2.414   5.426  17.851  0.00  0.00    +0.000 C 
BRANCH   4   5
ATOM      5  C   UNL     1       2.154   4.607  19.079  0.00  0.00    +0.000 A 
ATOM      6  C   UNL     1       2.647   4.905  20.330  0.00  0.00    +0.000 A 
ATOM      7  N   UNL     1       2.372   4.180  21.437  0.00  0.00    +0.000 NA
ATOM      8  C   UNL     1       1.562   3.129  21.277  0.00  0.00    +0.000 A 
ATOM      9  N   UNL     1       1.289   2.342  22.381  0.00  0.00    +0.000 N 
ATOM     10  N   UNL     1       1.032   2.743  20.115  0.00  0.00    +0.000 NA
ATOM     11  C   UNL     1       1.331   3.499  19.044  0.00  0.00    +0.000 A 
ATOM     12  H   UNL     1       2.037   2.447  23.053  0.00  0.00    +0.000 HD
ATOM     13  H   UNL     1       1.066   1.410  22.074  0.00  0.00    +0.000 HD
ENDBRANCH   4   5
ENDBRANCH   1   4
BRANCH   1  14
ATOM     14  C   UNL     1       4.226   7.011  17.357  0.00  0.00    +0.000 C 
BRANCH  14  15
ATOM     15  C   UNL     1       5.082   5.746  17.083  0.00  0.00    +0.000 C 
ATOM     16  C   UNL     1       6.349   5.783  17.961  0.00  0.00    +0.000 C 
ATOM     17  C   UNL     1       7.375   4.730  17.561  0.00  0.00    +0.000 C 
ATOM     18  O   UNL     1       7.656   4.784  16.166  0.00  0.00    +0.000 OA
ATOM     19  C   UNL     1       6.494   4.518  15.386  0.00  0.00    +0.000 C 
ATOM     20  C   UNL     1       5.457   5.611  15.599  0.00  0.00    +0.000 C 
ENDBRANCH  14  15
ENDBRANCH   1  14
TORSDOF 5
ENDMDL
MODEL 6
REMARK VINA RESULT:      -6.3      3.072      5.996
REMARK  Name = 
REMARK  6 active torsions:
REMARK  status: ('A' for Active; 'I' for Inactive)
REMARK    1  A    between atoms: C_1  and  C_2
REMARK    2  A    between atoms: C_2  and  N_3
REMARK    3  A    between atoms: N_3  and  C_4
REMARK    4  A    between atoms: N_3  and  C_12
REMARK    5  A    between atoms: C_4  and  C_5
REMARK    6  A    between atoms: C_12  and  C_13
REMARK                            x       y       z     vdW  Elec       q    Type
REMARK                         _______ _______ _______ _____ _____    ______ ____
ROOT
ATOM      1  N   UNL     1       2.660   4.920  18.243  0.00  0.00    +0.000 NA
ENDROOT
BRANCH   1   3
ATOM      2  C   UNL     1       1.710   2.689  19.056  0.00  0.00    +0.000 C 
ATOM      3  C   UNL     1       1.512   4.185  18.813  0.00  0.00    +0.000 C 
ENDBRANCH   1   3
BRANCH   1   4
ATOM      4  C   UNL     1       3.083   5.992  19.170  0.00  0.00    +0.000 C 
BRANCH   4   5
ATOM      5  C   UNL     1       2.446   7.333  18.960  0.00  0.00    +0.000 A 
ATOM      6  C   UNL     1       1.695   7.993  19.907  0.00  0.00    +0.000 A 
ATOM      7  N   UNL     1       1.160   9.220  19.718  0.00  0.00    +0.000 NA
ATOM      8  C   UNL     1       1.404   9.804  18.541  0.00  0.00    +0.000 A 
ATOM      9  N   UNL     1       0.841  11.044  18.299  0.00  0.00    +0.000 N 
ATOM     10  N   UNL     1       2.112   9.259  17.549  0.00  0.00    +0.000 NA
ATOM     11  C   UNL     1       2.627   8.040  17.787  0.00  0.00    +0.000 A 
ATOM     12  H   UNL     1       0.024  11.154  18.884  0.00  0.00    +0.000 HD
ATOM     13  H   UNL     1       0.723  11.163  17.306  0.00  0.00    +0.000 HD
ENDBRANCH   4   5
ENDBRANCH   1   4
BRANCH   1  14
ATOM     14  C   UNL     1       3.779   4.042  17.846  0.00  0.00    +0.000 C 
BRANCH  14  15
ATOM     15  C   UNL     1       5.075   4.766  17.393  0.00  0.00    +0.000 C 
ATOM     16  C   UNL     1       5.516   4.222  16.020  0.00  0.00    +0.000 C 
ATOM     17  C   UNL     1       6.917   4.672  15.628  0.00  0.00    +0.000 C 
ATOM     18  O   UNL     1       7.856   4.404  16.666  0.00  0.00    +0.000 OA
ATOM     19  C   UNL     1       7.533   5.111  17.860  0.00  0.00    +0.000 C 
ATOM     20  C   UNL     1       6.209   4.618  18.421  0.00  0.00    +0.000 C 
ENDBRANCH  14  15
ENDBRANCH   1  14
TORSDOF 5
ENDMDL
MODEL 7
REMARK VINA RESULT:      -6.3      1.093      2.049
REMARK  Name = 
REMARK  6 active torsions:
REMARK  status: ('A' for Active; 'I' for Inactive)
REMARK    1  A    between atoms: C_1  and  C_2
REMARK    2  A    between atoms: C_2  and  N_3
REMARK    3  A    between atoms: N_3  and  C_4
REMARK    4  A    between atoms: N_3  and  C_12
REMARK    5  A    between atoms: C_4  and  C_5
REMARK    6  A    between atoms: C_12  and  C_13
REMARK                            x       y       z     vdW  Elec       q    Type
REMARK                         _______ _______ _______ _____ _____    ______ ____
ROOT
ATOM      1  N   UNL     1       4.274   5.641  18.110  0.00  0.00    +0.000 NA
ENDROOT
BRANCH   1   3
ATOM      2  C   UNL     1       2.788   7.719  17.977  0.00  0.00    +0.000 C 
ATOM      3  C   UNL     1       4.111   7.032  17.638  0.00  0.00    +0.000 C 
ENDBRANCH   1   3
BRANCH   1   4
ATOM      4  C   UNL     1       5.660   5.186  17.868  0.00  0.00    +0.000 C 
BRANCH   4   5
ATOM      5  C   UNL     1       6.041   4.966  16.435  0.00  0.00    +0.000 A 
ATOM      6  C   UNL     1       7.169   5.488  15.843  0.00  0.00    +0.000 A 
ATOM      7  N   UNL     1       7.521   5.249  14.560  0.00  0.00    +0.000 NA
ATOM      8  C   UNL     1       6.715   4.446  13.858  0.00  0.00    +0.000 A 
ATOM      9  N   UNL     1       7.024   4.209  12.531  0.00  0.00    +0.000 N 
ATOM     10  N   UNL     1       5.595   3.890  14.325  0.00  0.00    +0.000 NA
ATOM     11  C   UNL     1       5.290   4.154  15.608  0.00  0.00    +0.000 A 
ATOM     12  H   UNL     1       7.587   4.973  12.183  0.00  0.00    +0.000 HD
ATOM     13  H   UNL     1       6.179   3.989  12.031  0.00  0.00    +0.000 HD
ENDBRANCH   4   5
ENDBRANCH   1   4
BRANCH   1  14
ATOM     14  C   UNL     1       3.850   5.444  19.511  0.00  0.00    +0.000 C 
BRANCH  14  15
ATOM     15  C   UNL     1       3.119   4.109  19.812  0.00  0.00    +0.000 C 
ATOM     16  C   UNL     1       2.318   3.669  18.570  0.00  0.00    +0.000 C 
ATOM     17  C   UNL     1       1.356   2.524  18.862  0.00  0.00    +0.000 C 
ATOM     18  O   UNL     1       0.533   2.815  19.988  0.00  0.00    +0.000 OA
ATOM     19  C   UNL     1       1.306   2.993  21.171  0.00  0.00    +0.000 C 
ATOM     20  C   UNL     1       2.197   4.219  21.037  0.00  0.00    +0.000 C 
ENDBRANCH  14  15
ENDBRANCH   1  14
TORSDOF 5
ENDMDL
MODEL 8
REMARK VINA RESULT:      -6.2      0.640      1.692
REMARK  Name = 
REMARK  6 active torsions:
REMARK  status: ('A' for Active; 'I' for Inactive)
REMARK    1  A    between atoms: C_1  and  C_2
REMARK    2  A    between atoms: C_2  and  N_3
REMARK    3  A    between atoms: N_3  and  C_4
REMARK    4  A    between atoms: N_3  and  C_12
REMARK    5  A    between atoms: C_4  and  C_5
REMARK    6  A    between atoms: C_12  and  C_13
REMARK                            x       y       z     vdW  Elec       q    Type
REMARK                         _______ _______ _______ _____ _____    ______ ____
ROOT
ATOM      1  N   UNL     1       3.099   6.551  18.006  0.00  0.00    +0.000 NA
ENDROOT
BRANCH   1   3
ATOM      2  C   UNL     1       1.844   8.765  18.265  0.00  0.00    +0.000 C 
ATOM      3  C   UNL     1       3.024   7.990  17.678  0.00  0.00    +0.000 C 
ENDBRANCH   1   3
BRANCH   1   4
ATOM      4  C   UNL     1       4.497   6.175  18.306  0.00  0.00    +0.000 C 
BRANCH   4   5
ATOM      5  C   UNL     1       5.384   5.934  17.122  0.00  0.00    +0.000 A 
ATOM      6  C   UNL     1       6.681   6.384  17.019  0.00  0.00    +0.000 A 
ATOM      7  N   UNL     1       7.482   6.126  15.961  0.00  0.00    +0.000 NA
ATOM      8  C   UNL     1       6.961   5.377  14.984  0.00  0.00    +0.000 A 
ATOM      9  N   UNL     1       7.740   5.123  13.870  0.00  0.00    +0.000 N 
ATOM     10  N   UNL     1       5.718   4.892  14.974  0.00  0.00    +0.000 NA
ATOM     11  C   UNL     1       4.961   5.172  16.050  0.00  0.00    +0.000 A 
ATOM     12  H   UNL     1       8.437   5.851  13.784  0.00  0.00    +0.000 HD
ATOM     13  H   UNL     1       7.139   4.958  13.080  0.00  0.00    +0.000 HD
ENDBRANCH   4   5
ENDBRANCH   1   4
BRANCH   1  14
ATOM     14  C   UNL     1       2.162   6.144  19.072  0.00  0.00    +0.000 C 
BRANCH  14  15
ATOM     15  C   UNL     1       2.363   4.711  19.634  0.00  0.00    +0.000 C 
ATOM     16  C   UNL     1       1.413   3.736  18.910  0.00  0.00    +0.000 C 
ATOM     17  C   UNL     1       1.344   2.371  19.582  0.00  0.00    +0.000 C 
ATOM     18  O   UNL     1       1.070   2.493  20.975  0.00  0.00    +0.000 OA
ATOM     19  C   UNL     1       2.097   3.213  21.650  0.00  0.00    +0.000 C 
ATOM     20  C   UNL     1       2.143   4.651  21.154  0.00  0.00    +0.000 C 
ENDBRANCH  14  15
ENDBRANCH   1  14
TORSDOF 5
ENDMDL
MODEL 9
REMARK VINA RESULT:      -6.2      0.956      1.450
REMARK  Name = 
REMARK  6 active torsions:
REMARK  status: ('A' for Active; 'I' for Inactive)
REMARK    1  A    between atoms: C_1  and  C_2
REMARK    2  A    between atoms: C_2  and  N_3
REMARK    3  A    between atoms: N_3  and  C_4
REMARK    4  A    between atoms: N_3  and  C_12
REMARK    5  A    between atoms: C_4  and  C_5
REMARK    6  A    between atoms: C_12  and  C_13
REMARK                            x       y       z     vdW  Elec       q    Type
REMARK                         _______ _______ _______ _____ _____    ______ ____
ROOT
ATOM      1  N   UNL     1       3.211   6.006  17.504  0.00  0.00    +0.000 NA
ENDROOT
BRANCH   1   3
ATOM      2  C   UNL     1       2.337   8.372  17.925  0.00  0.00    +0.000 C 
ATOM      3  C   UNL     1       3.524   7.414  17.822  0.00  0.00    +0.000 C 
ENDBRANCH   1   3
BRANCH   1   4
ATOM      4  C   UNL     1       4.413   5.166  17.701  0.00  0.00    +0.000 C 
BRANCH   4   5
ATOM      5  C   UNL     1       5.396   5.147  16.570  0.00  0.00    +0.000 A 
ATOM      6  C   UNL     1       5.199   4.483  15.380  0.00  0.00    +0.000 A 
ATOM      7  N   UNL     1       6.078   4.507  14.354  0.00  0.00    +0.000 NA
ATOM      8  C   UNL     1       7.184   5.236  14.530  0.00  0.00    +0.000 A 
ATOM      9  N   UNL     1       8.123   5.253  13.515  0.00  0.00    +0.000 N 
ATOM     10  N   UNL     1       7.483   5.914  15.640  0.00  0.00    +0.000 NA
ATOM     11  C   UNL     1       6.576   5.863  16.631  0.00  0.00    +0.000 A 
ATOM     12  H   UNL     1       8.018   4.417  12.956  0.00  0.00    +0.000 HD
ATOM     13  H   UNL     1       9.030   5.439  13.909  0.00  0.00    +0.000 HD
ENDBRANCH   4   5
ENDBRANCH   1   4
BRANCH   1  14
ATOM     14  C   UNL     1       2.035   5.489  18.231  0.00  0.00    +0.000 C 
BRANCH  14  15
ATOM     15  C   UNL     1       2.315   4.339  19.236  0.00  0.00    +0.000 C 
ATOM     16  C   UNL     1       1.389   3.147  18.925  0.00  0.00    +0.000 C 
ATOM     17  C   UNL     1       1.399   2.089  20.022  0.00  0.00    +0.000 C 
ATOM     18  O   UNL     1       1.160   2.669  21.301  0.00  0.00    +0.000 OA
ATOM     19  C   UNL     1       2.172   3.608  21.649  0.00  0.00    +0.000 C 
ATOM     20  C   UNL     1       2.141   4.792  20.694  0.00  0.00    +0.000 C 
ENDBRANCH  14  15
ENDBRANCH   1  14
TORSDOF 5
ENDMDL
