MODEL 1
REMARK VINA RESULT:      -7.5      0.000      0.000
REMARK  Name = 
REMARK  6 active torsions:
REMARK  status: ('A' for Active; 'I' for Inactive)
REMARK    1  A    between atoms: C_1  and  O_2
REMARK    2  A    between atoms: O_2  and  C_3
REMARK    3  A    between atoms: C_6  and  C_7
REMARK    4  A    between atoms: C_10  and  C_11
REMARK    5  A    between atoms: N_13  and  C_14
REMARK    6  A    between atoms: C_16  and  N_17
REMARK                            x       y       z     vdW  Elec       q    Type
REMARK                         _______ _______ _______ _____ _____    ______ ____
ROOT
ATOM      1  C   UNL     1       2.386   7.617  18.475  0.00  0.00    +0.000 A 
ATOM      2  C   UNL     1       2.004   8.821  17.864  0.00  0.00    +0.000 A 
ATOM      3  C   UNL     1       1.360   9.833  18.591  0.00  0.00    +0.000 A 
ATOM      4  C   UNL     1       1.062   9.671  19.954  0.00  0.00    +0.000 A 
ATOM      5  C   UNL     1       1.436   8.483  20.566  0.00  0.00    +0.000 A 
ATOM      6  F   UNL     1       1.201   8.275  21.871  0.00  0.00    +0.000 F 
ATOM      7  C   UNL     1       2.082   7.475  19.844  0.00  0.00    +0.000 A 
ENDROOT
BRANCH   1  11
ATOM      8  C   UNL     1       4.752   4.501  16.644  0.00  0.00    +0.000 A 
ATOM      9  C   UNL     1       5.045   5.840  16.398  0.00  0.00    +0.000 A 
ATOM     10  C   UNL     1       4.254   6.858  16.951  0.00  0.00    +0.000 A 
ATOM     11  C   UNL     1       3.139   6.561  17.753  0.00  0.00    +0.000 A 
ATOM     12  C   UNL     1       2.812   5.201  17.908  0.00  0.00    +0.000 A 
ATOM     13  C   UNL     1       3.612   4.182  17.375  0.00  0.00    +0.000 A 
BRANCH   8  15
ATOM     14  C   UNL     1       6.303   4.026  14.928  0.00  0.00    +0.000 C 
ATOM     15  O   UNL     1       5.616   3.591  16.099  0.00  0.00    +0.000 OA
ENDBRANCH   8  15
ENDBRANCH   1  11
BRANCH   4  16
ATOM     16  C   UNL     1       0.356  10.775  20.656  0.00  0.00    +0.000 C 
ATOM     17  O   UNL     1       0.929  11.322  21.595  0.00  0.00    +0.000 OA
ATOM     18  N   UNL     1      -0.908  11.163  20.232  0.00  0.00    +0.000 N 
ATOM     19  H   UNL     1      -1.330  10.646  19.466  0.00  0.00    +0.000 HD
BRANCH  18  20
ATOM     20  C   UNL     1      -1.618  12.220  20.900  0.00  0.00    +0.000 C 
ATOM     21  C   UNL     1      -2.249  12.182  22.361  0.00  0.00    +0.000 C 
ATOM     22  C   UNL     1      -2.705  13.515  21.668  0.00  0.00    +0.000 C 
ATOM     23  C   UNL     1      -3.061  12.574  20.456  0.00  0.00    +0.000 C 
ATOM     24  C   UNL     1      -1.403  13.800  20.835  0.00  0.00    +0.000 C 
BRANCH  22  25
ATOM     25  N   UNL     1      -3.812  14.353  21.930  0.00  0.00    +0.000 NA
ATOM     26  C   UNL     1      -3.840  14.895  22.963  0.00  0.00    +0.000 C 
ATOM     27  S   UNL     1      -3.954  15.690  24.338  0.00  0.00    +0.000 S 
ENDBRANCH  22  25
ENDBRANCH  18  20
ENDBRANCH   4  16
TORSDOF 5
ENDMDL
MODEL 2
REMARK VINA RESULT:      -7.3      1.525      2.104
REMARK  Name = 
REMARK  6 active torsions:
REMARK  status: ('A' for Active; 'I' for Inactive)
REMARK    1  A    between atoms: C_1  and  O_2
REMARK    2  A    between atoms: O_2  and  C_3
REMARK    3  A    between atoms: C_6  and  C_7
REMARK    4  A    between atoms: C_10  and  C_11
REMARK    5  A    between atoms: N_13  and  C_14
REMARK    6  A    between atoms: C_16  and  N_17
REMARK                            x       y       z     vdW  Elec       q    Type
REMARK                         _______ _______ _______ _____ _____    ______ ____
ROOT
ATOM      1  C   UNL     1       3.102   6.976  18.346  0.00  0.00    +0.000 A 
ATOM      2  C   UNL     1       2.694   6.646  19.647  0.00  0.00    +0.000 A 
ATOM      3  C   UNL     1       1.810   7.468  20.362  0.00  0.00    +0.000 A 
ATOM      4  C   UNL     1       1.314   8.658  19.805  0.00  0.00    +0.000 A 
ATOM      5  C   UNL     1       1.714   8.993  18.518  0.00  0.00    +0.000 A 
ATOM      6  F   UNL     1       1.257  10.104  17.920  0.00  0.00    +0.000 F 
ATOM      7  C   UNL     1       2.591   8.172  17.803  0.00  0.00    +0.000 A 
ENDROOT
BRANCH   1  11
ATOM      8  C   UNL     1       5.417   4.416  15.747  0.00  0.00    +0.000 A 
ATOM      9  C   UNL     1       4.602   3.863  16.732  0.00  0.00    +0.000 A 
ATOM     10  C   UNL     1       3.882   4.687  17.609  0.00  0.00    +0.000 A 
ATOM     11  C   UNL     1       3.973   6.088  17.535  0.00  0.00    +0.000 A 
ATOM     12  C   UNL     1       4.875   6.617  16.594  0.00  0.00    +0.000 A 
ATOM     13  C   UNL     1       5.578   5.797  15.701  0.00  0.00    +0.000 A 
BRANCH   8  15
ATOM     14  C   UNL     1       6.057   3.894  13.536  0.00  0.00    +0.000 C 
ATOM     15  O   UNL     1       6.034   3.525  14.912  0.00  0.00    +0.000 OA
ENDBRANCH   8  15
ENDBRANCH   1  11
BRANCH   4  16
ATOM     16  C   UNL     1       0.400   9.493  20.628  0.00  0.00    +0.000 C 
ATOM     17  O   UNL     1      -0.575   8.949  21.141  0.00  0.00    +0.000 OA
ATOM     18  N   UNL     1       0.673  10.843  20.805  0.00  0.00    +0.000 N 
ATOM     19  H   UNL     1       1.483  11.229  20.327  0.00  0.00    +0.000 HD
BRANCH  18  20
ATOM     20  C   UNL     1      -0.200  11.676  21.586  0.00  0.00    +0.000 C 
ATOM     21  C   UNL     1      -1.001  11.266  22.901  0.00  0.00    +0.000 C 
ATOM     22  C   UNL     1      -1.479  12.697  22.466  0.00  0.00    +0.000 C 
ATOM     23  C   UNL     1      -1.603  12.045  21.036  0.00  0.00    +0.000 C 
ATOM     24  C   UNL     1      -0.113  13.237  21.906  0.00  0.00    +0.000 C 
BRANCH  22  25
ATOM     25  N   UNL     1      -2.676  13.390  22.751  0.00  0.00    +0.000 NA
ATOM     26  C   UNL     1      -2.710  14.015  23.736  0.00  0.00    +0.000 C 
ATOM     27  S   UNL     1      -2.842  14.909  25.046  0.00  0.00    +0.000 S 
ENDBRANCH  22  25
ENDBRANCH  18  20
ENDBRANCH   4  16
TORSDOF 5
ENDMDL
MODEL 3
REMARK VINA RESULT:      -7.2      1.241      1.797
REMARK  Name = 
REMARK  6 active torsions:
REMARK  status: ('A' for Active; 'I' for Inactive)
REMARK    1  A    between atoms: C_1  and  O_2
REMARK    2  A    between atoms: O_2  and  C_3
REMARK    3  A    between atoms: C_6  and  C_7
REMARK    4  A    between atoms: C_10  and  C_11
REMARK    5  A    between atoms: N_13  and  C_14
REMARK    6  A    between atoms: C_16  and  N_17
REMARK                            x       y       z     vdW  Elec       q    Type
REMARK                         _______ _______ _______ _____ _____    ______ ____
ROOT
ATOM      1  C   UNL     1       2.626   7.487  18.369  0.00  0.00    +0.000 A 
ATOM      2  C   UNL     1       2.184   8.601  17.640  0.00  0.00    +0.000 A 
ATOM      3  C   UNL     1       1.387   9.590  18.237  0.00  0.00    +0.000 A 
ATOM      4  C   UNL     1       0.993   9.492  19.581  0.00  0.00    +0.000 A 
ATOM      5  C   UNL     1       1.425   8.392  20.309  0.00  0.00    +0.000 A 
ATOM      6  F   UNL     1       1.103   8.250  21.604  0.00  0.00    +0.000 F 
ATOM      7  C   UNL     1       2.223   7.408  19.717  0.00  0.00    +0.000 A 
ENDROOT
BRANCH   1  11
ATOM      8  C   UNL     1       5.128   4.569  16.396  0.00  0.00    +0.000 A 
ATOM      9  C   UNL     1       4.001   4.162  17.106  0.00  0.00    +0.000 A 
ATOM     10  C   UNL     1       3.209   5.098  17.787  0.00  0.00    +0.000 A 
ATOM     11  C   UNL     1       3.534   6.465  17.789  0.00  0.00    +0.000 A 
ATOM     12  C   UNL     1       4.728   6.835  17.144  0.00  0.00    +0.000 A 
ATOM     13  C   UNL     1       5.509   5.906  16.444  0.00  0.00    +0.000 A 
BRANCH   8  15
ATOM     14  C   UNL     1       6.303   3.952  14.444  0.00  0.00    +0.000 C 
ATOM     15  O   UNL     1       5.800   3.584  15.726  0.00  0.00    +0.000 OA
ENDBRANCH   8  15
ENDBRANCH   1  11
BRANCH   4  16
ATOM     16  C   UNL     1       0.129  10.564  20.141  0.00  0.00    +0.000 C 
ATOM     17  O   UNL     1      -1.089  10.430  20.054  0.00  0.00    +0.000 OA
ATOM     18  N   UNL     1       0.711  11.669  20.750  0.00  0.00    +0.000 N 
ATOM     19  H   UNL     1       1.726  11.724  20.760  0.00  0.00    +0.000 HD
BRANCH  18  20
ATOM     20  C   UNL     1      -0.100  12.726  21.289  0.00  0.00    +0.000 C 
ATOM     21  C   UNL     1      -1.029  13.736  20.481  0.00  0.00    +0.000 C 
ATOM     22  C   UNL     1      -0.979  14.212  21.977  0.00  0.00    +0.000 C 
ATOM     23  C   UNL     1       0.577  14.018  21.817  0.00  0.00    +0.000 C 
ATOM     24  C   UNL     1      -0.904  12.801  22.665  0.00  0.00    +0.000 C 
BRANCH  22  25
ATOM     25  N   UNL     1      -1.221  15.482  22.543  0.00  0.00    +0.000 NA
ATOM     26  C   UNL     1      -2.314  15.722  22.873  0.00  0.00    +0.000 C 
ATOM     27  S   UNL     1      -3.771  16.130  23.370  0.00  0.00    +0.000 S 
ENDBRANCH  22  25
ENDBRANCH  18  20
ENDBRANCH   4  16
TORSDOF 5
ENDMDL
MODEL 4
REMARK VINA RESULT:      -7.2      1.424      1.744
REMARK  Name = 
REMARK  6 active torsions:
REMARK  status: ('A' for Active; 'I' for Inactive)
REMARK    1  A    between atoms: C_1  and  O_2
REMARK    2  A    between atoms: O_2  and  C_3
REMARK    3  A    between atoms: C_6  and  C_7
REMARK    4  A    between atoms: C_10  and  C_11
REMARK    5  A    between atoms: N_13  and  C_14
REMARK    6  A    between atoms: C_16  and  N_17
REMARK                            x       y       z     vdW  Elec       q    Type
REMARK                         _______ _______ _______ _____ _____    ______ ____
ROOT
ATOM      1  C   UNL     1       2.747   7.176  18.416  0.00  0.00    +0.000 A 
ATOM      2  C   UNL     1       2.427   6.846  19.741  0.00  0.00    +0.000 A 
ATOM      3  C   UNL     1       1.617   7.682  20.524  0.00  0.00    +0.000 A 
ATOM      4  C   UNL     1       1.111   8.888  20.013  0.00  0.00    +0.000 A 
ATOM      5  C   UNL     1       1.423   9.224  18.703  0.00  0.00    +0.000 A 
ATOM      6  F   UNL     1       0.952  10.351  18.147  0.00  0.00    +0.000 F 
ATOM      7  C   UNL     1       2.226   8.389  17.920  0.00  0.00    +0.000 A 
ENDROOT
BRANCH   1  11
ATOM      8  C   UNL     1       5.248   4.520  16.103  0.00  0.00    +0.000 A 
ATOM      9  C   UNL     1       5.346   5.899  15.935  0.00  0.00    +0.000 A 
ATOM     10  C   UNL     1       4.506   6.767  16.649  0.00  0.00    +0.000 A 
ATOM     11  C   UNL     1       3.534   6.276  17.537  0.00  0.00    +0.000 A 
ATOM     12  C   UNL     1       3.394   4.878  17.616  0.00  0.00    +0.000 A 
ATOM     13  C   UNL     1       4.246   4.009  16.922  0.00  0.00    +0.000 A 
BRANCH   8  15
ATOM     14  C   UNL     1       6.993   4.496  14.512  0.00  0.00    +0.000 C 
ATOM     15  O   UNL     1       6.148   3.767  15.399  0.00  0.00    +0.000 OA
ENDBRANCH   8  15
ENDBRANCH   1  11
BRANCH   4  16
ATOM     16  C   UNL     1       0.279   9.737  20.907  0.00  0.00    +0.000 C 
ATOM     17  O   UNL     1      -0.518   9.179  21.656  0.00  0.00    +0.000 OA
ATOM     18  N   UNL     1       0.431  11.117  20.881  0.00  0.00    +0.000 N 
ATOM     19  H   UNL     1       1.091  11.509  20.215  0.00  0.00    +0.000 HD
BRANCH  18  20
ATOM     20  C   UNL     1      -0.368  11.963  21.726  0.00  0.00    +0.000 C 
ATOM     21  C   UNL     1      -1.160  11.538  23.041  0.00  0.00    +0.000 C 
ATOM     22  C   UNL     1      -1.558  13.015  22.689  0.00  0.00    +0.000 C 
ATOM     23  C   UNL     1      -1.758  12.444  21.234  0.00  0.00    +0.000 C 
ATOM     24  C   UNL     1      -0.175  13.497  22.117  0.00  0.00    +0.000 C 
BRANCH  22  25
ATOM     25  N   UNL     1      -2.701  13.766  23.041  0.00  0.00    +0.000 NA
ATOM     26  C   UNL     1      -2.661  14.363  24.043  0.00  0.00    +0.000 C 
ATOM     27  S   UNL     1      -2.690  15.226  25.380  0.00  0.00    +0.000 S 
ENDBRANCH  22  25
ENDBRANCH  18  20
ENDBRANCH   4  16
TORSDOF 5
ENDMDL
MODEL 5
REMARK VINA RESULT:      -7.2      0.730      1.188
REMARK  Name = 
REMARK  6 active torsions:
REMARK  status: ('A' for Active; 'I' for Inactive)
REMARK    1  A    between atoms: C_1  and  O_2
REMARK    2  A    between atoms: O_2  and  C_3
REMARK    3  A    between atoms: C_6  and  C_7
REMARK    4  A    between atoms: C_10  and  C_11
REMARK    5  A    between atoms: N_13  and  C_14
REMARK    6  A    between atoms: C_16  and  N_17
REMARK                            x       y       z     vdW  Elec       q    Type
REMARK                         _______ _______ _______ _____ _____    ______ ____
ROOT
ATOM      1  C   UNL     1       2.586   7.524  18.484  0.00  0.00    +0.000 A 
ATOM      2  C   UNL     1       2.228   8.694  17.797  0.00  0.00    +0.000 A 
ATOM      3  C   UNL     1       1.497   9.712  18.427  0.00  0.00    +0.000 A 
ATOM      4  C   UNL     1       1.084   9.589  19.764  0.00  0.00    +0.000 A 
ATOM      5  C   UNL     1       1.433   8.435  20.450  0.00  0.00    +0.000 A 
ATOM      6  F   UNL     1       1.090   8.265  21.737  0.00  0.00    +0.000 F 
ATOM      7  C   UNL     1       2.166   7.421  19.825  0.00  0.00    +0.000 A 
ENDROOT
BRANCH   1  11
ATOM      8  C   UNL     1       4.881   4.503  16.418  0.00  0.00    +0.000 A 
ATOM      9  C   UNL     1       3.767   4.144  17.173  0.00  0.00    +0.000 A 
ATOM     10  C   UNL     1       3.043   5.112  17.883  0.00  0.00    +0.000 A 
ATOM     11  C   UNL     1       3.425   6.465  17.870  0.00  0.00    +0.000 A 
ATOM     12  C   UNL     1       4.607   6.784  17.177  0.00  0.00    +0.000 A 
ATOM     13  C   UNL     1       5.320   5.823  16.448  0.00  0.00    +0.000 A 
BRANCH   8  15
ATOM     14  C   UNL     1       6.206   3.892  14.562  0.00  0.00    +0.000 C 
ATOM     15  O   UNL     1       5.483   3.491  15.723  0.00  0.00    +0.000 OA
ENDBRANCH   8  15
ENDBRANCH   1  11
BRANCH   4  16
ATOM     16  C   UNL     1       0.292  10.697  20.360  0.00  0.00    +0.000 C 
ATOM     17  O   UNL     1       0.759  11.282  21.335  0.00  0.00    +0.000 OA
ATOM     18  N   UNL     1      -0.932  11.045  19.803  0.00  0.00    +0.000 N 
ATOM     19  H   UNL     1      -1.266  10.497  19.015  0.00  0.00    +0.000 HD
BRANCH  18  20
ATOM     20  C   UNL     1      -1.724  12.104  20.366  0.00  0.00    +0.000 C 
ATOM     21  C   UNL     1      -2.457  12.111  21.781  0.00  0.00    +0.000 C 
ATOM     22  C   UNL     1      -2.908  13.391  20.992  0.00  0.00    +0.000 C 
ATOM     23  C   UNL     1      -3.144  12.380  19.806  0.00  0.00    +0.000 C 
ATOM     24  C   UNL     1      -1.561  13.686  20.238  0.00  0.00    +0.000 C 
BRANCH  22  25
ATOM     25  N   UNL     1      -4.059  14.197  21.134  0.00  0.00    +0.000 NA
ATOM     26  C   UNL     1      -3.900  15.301  21.478  0.00  0.00    +0.000 C 
ATOM     27  S   UNL     1      -3.779  16.824  21.924  0.00  0.00    +0.000 S 
ENDBRANCH  22  25
ENDBRANCH  18  20
ENDBRANCH   4  16
TORSDOF 5
ENDMDL
MODEL 6
REMARK VINA RESULT:      -7.1      0.938      1.484
REMARK  Name = 
REMARK  6 active torsions:
REMARK  status: ('A' for Active; 'I' for Inactive)
REMARK    1  A    between atoms: C_1  and  O_2
REMARK    2  A    between atoms: O_2  and  C_3
REMARK    3  A    between atoms: C_6  and  C_7
REMARK    4  A    between atoms: C_10  and  C_11
REMARK    5  A    between atoms: N_13  and  C_14
REMARK    6  A    between atoms: C_16  and  N_17
REMARK                            x       y       z     vdW  Elec       q    Type
REMARK                         _______ _______ _______ _____ _____    ______ ____
ROOT
ATOM      1  C   UNL     1       2.258   7.838  18.670  0.00  0.00    +0.000 A 
ATOM      2  C   UNL     1       1.851   8.948  17.913  0.00  0.00    +0.000 A 
ATOM      3  C   UNL     1       1.132  10.001  18.497  0.00  0.00    +0.000 A 
ATOM      4  C   UNL     1       0.781   9.975  19.857  0.00  0.00    +0.000 A 
ATOM      5  C   UNL     1       1.178   8.881  20.612  0.00  0.00    +0.000 A 
ATOM      6  F   UNL     1       0.896   8.806  21.922  0.00  0.00    +0.000 F 
ATOM      7  C   UNL     1       1.900   7.832  20.033  0.00  0.00    +0.000 A 
ENDROOT
BRANCH   1  11
ATOM      8  C   UNL     1       4.515   4.704  16.735  0.00  0.00    +0.000 A 
ATOM      9  C   UNL     1       3.423   4.388  17.539  0.00  0.00    +0.000 A 
ATOM     10  C   UNL     1       2.712   5.396  18.207  0.00  0.00    +0.000 A 
ATOM     11  C   UNL     1       3.087   6.746  18.101  0.00  0.00    +0.000 A 
ATOM     12  C   UNL     1       4.249   7.026  17.359  0.00  0.00    +0.000 A 
ATOM     13  C   UNL     1       4.948   6.025  16.672  0.00  0.00    +0.000 A 
BRANCH   8  15
ATOM     14  C   UNL     1       6.237   3.986  15.288  0.00  0.00    +0.000 C 
ATOM     15  O   UNL     1       5.105   3.653  16.088  0.00  0.00    +0.000 OA
ENDBRANCH   8  15
ENDBRANCH   1  11
BRANCH   4  16
ATOM     16  C   UNL     1      -0.003  11.115  20.403  0.00  0.00    +0.000 C 
ATOM     17  O   UNL     1       0.102  12.206  19.848  0.00  0.00    +0.000 OA
ATOM     18  N   UNL     1      -0.829  10.917  21.502  0.00  0.00    +0.000 N 
ATOM     19  H   UNL     1      -0.843   9.993  21.924  0.00  0.00    +0.000 HD
BRANCH  18  20
ATOM     20  C   UNL     1      -1.589  12.004  22.057  0.00  0.00    +0.000 C 
ATOM     21  C   UNL     1      -1.028  13.258  22.863  0.00  0.00    +0.000 C 
ATOM     22  C   UNL     1      -2.596  13.289  22.943  0.00  0.00    +0.000 C 
ATOM     23  C   UNL     1      -2.446  11.769  23.329  0.00  0.00    +0.000 C 
ATOM     24  C   UNL     1      -2.912  12.712  21.515  0.00  0.00    +0.000 C 
BRANCH  22  25
ATOM     25  N   UNL     1      -3.454  13.910  23.877  0.00  0.00    +0.000 NA
ATOM     26  C   UNL     1      -3.769  15.013  23.664  0.00  0.00    +0.000 C 
ATOM     27  S   UNL     1      -4.267  16.509  23.446  0.00  0.00    +0.000 S 
ENDBRANCH  22  25
ENDBRANCH  18  20
ENDBRANCH   4  16
TORSDOF 5
ENDMDL
MODEL 7
REMARK VINA RESULT:      -7.1      1.248      1.759
REMARK  Name = 
REMARK  6 active torsions:
REMARK  status: ('A' for Active; 'I' for Inactive)
REMARK    1  A    between atoms: C_1  and  O_2
REMARK    2  A    between atoms: O_2  and  C_3
REMARK    3  A    between atoms: C_6  and  C_7
REMARK    4  A    between atoms: C_10  and  C_11
REMARK    5  A    between atoms: N_13  and  C_14
REMARK    6  A    between atoms: C_16  and  N_17
REMARK                            x       y       z     vdW  Elec       q    Type
REMARK                         _______ _______ _______ _____ _____    ______ ____
ROOT
ATOM      1  C   UNL     1       2.817   7.207  18.479  0.00  0.00    +0.000 A 
ATOM      2  C   UNL     1       2.429   6.865  19.783  0.00  0.00    +0.000 A 
ATOM      3  C   UNL     1       1.696   7.756  20.581  0.00  0.00    +0.000 A 
ATOM      4  C   UNL     1       1.336   9.028  20.106  0.00  0.00    +0.000 A 
ATOM      5  C   UNL     1       1.717   9.375  18.817  0.00  0.00    +0.000 A 
ATOM      6  F   UNL     1       1.384  10.566  18.296  0.00  0.00    +0.000 F 
ATOM      7  C   UNL     1       2.443   8.486  18.019  0.00  0.00    +0.000 A 
ENDROOT
BRANCH   1  11
ATOM      8  C   UNL     1       5.084   4.394  16.110  0.00  0.00    +0.000 A 
ATOM      9  C   UNL     1       5.276   5.764  15.947  0.00  0.00    +0.000 A 
ATOM     10  C   UNL     1       4.512   6.685  16.679  0.00  0.00    +0.000 A 
ATOM     11  C   UNL     1       3.524   6.258  17.582  0.00  0.00    +0.000 A 
ATOM     12  C   UNL     1       3.287   4.873  17.657  0.00  0.00    +0.000 A 
ATOM     13  C   UNL     1       4.063   3.950  16.944  0.00  0.00    +0.000 A 
BRANCH   8  15
ATOM     14  C   UNL     1       6.094   3.953  14.023  0.00  0.00    +0.000 C 
ATOM     15  O   UNL     1       5.916   3.584  15.388  0.00  0.00    +0.000 OA
ENDBRANCH   8  15
ENDBRANCH   1  11
BRANCH   4  16
ATOM     16  C   UNL     1       0.580   9.930  21.015  0.00  0.00    +0.000 C 
ATOM     17  O   UNL     1       0.900   9.956  22.201  0.00  0.00    +0.000 OA
ATOM     18  N   UNL     1      -0.446  10.716  20.506  0.00  0.00    +0.000 N 
ATOM     19  H   UNL     1      -0.672  10.620  19.520  0.00  0.00    +0.000 HD
BRANCH  18  20
ATOM     20  C   UNL     1      -1.201  11.588  21.364  0.00  0.00    +0.000 C 
ATOM     21  C   UNL     1      -2.383  12.569  20.940  0.00  0.00    +0.000 C 
ATOM     22  C   UNL     1      -2.027  12.854  22.443  0.00  0.00    +0.000 C 
ATOM     23  C   UNL     1      -0.541  12.877  21.919  0.00  0.00    +0.000 C 
ATOM     24  C   UNL     1      -1.664  11.388  22.878  0.00  0.00    +0.000 C 
BRANCH  22  25
ATOM     25  N   UNL     1      -2.245  14.004  23.234  0.00  0.00    +0.000 NA
ATOM     26  C   UNL     1      -3.351  14.336  23.401  0.00  0.00    +0.000 C 
ATOM     27  S   UNL     1      -4.827  14.854  23.700  0.00  0.00    +0.000 S 
ENDBRANCH  22  25
ENDBRANCH  18  20
ENDBRANCH   4  16
TORSDOF 5
ENDMDL
MODEL 8
REMARK VINA RESULT:      -7.1      1.215      1.544
REMARK  Name = 
REMARK  6 active torsions:
REMARK  status: ('A' for Active; 'I' for Inactive)
REMARK    1  A    between atoms: C_1  and  O_2
REMARK    2  A    between atoms: O_2  and  C_3
REMARK    3  A    between atoms: C_6  and  C_7
REMARK    4  A    between atoms: C_10  and  C_11
REMARK    5  A    between atoms: N_13  and  C_14
REMARK    6  A    between atoms: C_16  and  N_17
REMARK                            x       y       z     vdW  Elec       q    Type
REMARK                         _______ _______ _______ _____ _____    ______ ____
ROOT
ATOM      1  C   UNL     1       2.104   7.880  19.075  0.00  0.00    +0.000 A 
ATOM      2  C   UNL     1       1.757   7.630  20.411  0.00  0.00    +0.000 A 
ATOM      3  C   UNL     1       1.029   8.567  21.160  0.00  0.00    +0.000 A 
ATOM      4  C   UNL     1       0.635   9.795  20.603  0.00  0.00    +0.000 A 
ATOM      5  C   UNL     1       0.976  10.051  19.282  0.00  0.00    +0.000 A 
ATOM      6  F   UNL     1       0.610  11.194  18.683  0.00  0.00    +0.000 F 
ATOM      7  C   UNL     1       1.697   9.116  18.532  0.00  0.00    +0.000 A 
ENDROOT
BRANCH   1  11
ATOM      8  C   UNL     1       4.313   4.883  16.883  0.00  0.00    +0.000 A 
ATOM      9  C   UNL     1       4.676   6.225  16.797  0.00  0.00    +0.000 A 
ATOM     10  C   UNL     1       3.937   7.209  17.469  0.00  0.00    +0.000 A 
ATOM     11  C   UNL     1       2.804   6.878  18.232  0.00  0.00    +0.000 A 
ATOM     12  C   UNL     1       2.406   5.529  18.225  0.00  0.00    +0.000 A 
ATOM     13  C   UNL     1       3.155   4.540  17.573  0.00  0.00    +0.000 A 
BRANCH   8  15
ATOM     14  C   UNL     1       6.525   4.280  16.322  0.00  0.00    +0.000 C 
ATOM     15  O   UNL     1       5.130   4.000  16.233  0.00  0.00    +0.000 OA
ENDBRANCH   8  15
ENDBRANCH   1  11
BRANCH   4  16
ATOM     16  C   UNL     1      -0.113  10.749  21.462  0.00  0.00    +0.000 C 
ATOM     17  O   UNL     1       0.313  10.963  22.595  0.00  0.00    +0.000 OA
ATOM     18  N   UNL     1      -1.249  11.375  20.967  0.00  0.00    +0.000 N 
ATOM     19  H   UNL     1      -1.556  11.128  20.031  0.00  0.00    +0.000 HD
BRANCH  18  20
ATOM     20  C   UNL     1      -1.998  12.294  21.780  0.00  0.00    +0.000 C 
ATOM     21  C   UNL     1      -2.749  11.978  23.149  0.00  0.00    +0.000 C 
ATOM     22  C   UNL     1      -3.129  13.437  22.711  0.00  0.00    +0.000 C 
ATOM     23  C   UNL     1      -3.396  12.773  21.307  0.00  0.00    +0.000 C 
ATOM     24  C   UNL     1      -1.759  13.847  22.059  0.00  0.00    +0.000 C 
BRANCH  22  25
ATOM     25  N   UNL     1      -4.243  14.236  23.052  0.00  0.00    +0.000 NA
ATOM     26  C   UNL     1      -4.066  15.102  23.815  0.00  0.00    +0.000 C 
ATOM     27  S   UNL     1      -3.918  16.317  24.832  0.00  0.00    +0.000 S 
ENDBRANCH  22  25
ENDBRANCH  18  20
ENDBRANCH   4  16
TORSDOF 5
ENDMDL
MODEL 9
REMARK VINA RESULT:      -7.1      1.519      2.225
REMARK  Name = 
REMARK  6 active torsions:
REMARK  status: ('A' for Active; 'I' for Inactive)
REMARK    1  A    between atoms: C_1  and  O_2
REMARK    2  A    between atoms: O_2  and  C_3
REMARK    3  A    between atoms: C_6  and  C_7
REMARK    4  A    between atoms: C_10  and  C_11
REMARK    5  A    between atoms: N_13  and  C_14
REMARK    6  A    between atoms: C_16  and  N_17
REMARK                            x       y       z     vdW  Elec       q    Type
REMARK                         _______ _______ _______ _____ _____    ______ ____
ROOT
ATOM      1  C   UNL     1       3.137   7.003  18.348  0.00  0.00    +0.000 A 
ATOM      2  C   UNL     1       2.707   6.671  19.641  0.00  0.00    +0.000 A 
ATOM      3  C   UNL     1       1.789   7.479  20.331  0.00  0.00    +0.000 A 
ATOM      4  C   UNL     1       1.281   8.655  19.756  0.00  0.00    +0.000 A 
ATOM      5  C   UNL     1       1.703   8.990  18.477  0.00  0.00    +0.000 A 
ATOM      6  F   UNL     1       1.237  10.088  17.861  0.00  0.00    +0.000 F 
ATOM      7  C   UNL     1       2.613   8.184  17.786  0.00  0.00    +0.000 A 
ENDROOT
BRANCH   1  11
ATOM      8  C   UNL     1       5.613   4.549  15.796  0.00  0.00    +0.000 A 
ATOM      9  C   UNL     1       4.570   3.978  16.520  0.00  0.00    +0.000 A 
ATOM     10  C   UNL     1       3.790   4.758  17.386  0.00  0.00    +0.000 A 
ATOM     11  C   UNL     1       4.045   6.129  17.561  0.00  0.00    +0.000 A 
ATOM     12  C   UNL     1       5.162   6.659  16.890  0.00  0.00    +0.000 A 
ATOM     13  C   UNL     1       5.929   5.887  16.008  0.00  0.00    +0.000 A 
BRANCH   8  15
ATOM     14  C   UNL     1       5.951   3.861  13.563  0.00  0.00    +0.000 C 
ATOM     15  O   UNL     1       6.277   3.711  14.943  0.00  0.00    +0.000 OA
ENDBRANCH   8  15
ENDBRANCH   1  11
BRANCH   4  16
ATOM     16  C   UNL     1       0.331   9.474  20.553  0.00  0.00    +0.000 C 
ATOM     17  O   UNL     1      -0.514   8.888  21.226  0.00  0.00    +0.000 OA
ATOM     18  N   UNL     1       0.427  10.859  20.527  0.00  0.00    +0.000 N 
ATOM     19  H   UNL     1       1.133  11.273  19.925  0.00  0.00    +0.000 HD
BRANCH  18  20
ATOM     20  C   UNL     1      -0.486  11.676  21.279  0.00  0.00    +0.000 C 
ATOM     21  C   UNL     1      -1.831  12.350  20.756  0.00  0.00    +0.000 C 
ATOM     22  C   UNL     1      -1.545  12.892  22.201  0.00  0.00    +0.000 C 
ATOM     23  C   UNL     1      -0.088  13.129  21.649  0.00  0.00    +0.000 C 
ATOM     24  C   UNL     1      -0.910  11.592  22.815  0.00  0.00    +0.000 C 
BRANCH  22  25
ATOM     25  N   UNL     1      -1.983  14.073  22.841  0.00  0.00    +0.000 NA
ATOM     26  C   UNL     1      -3.124  14.314  22.795  0.00  0.00    +0.000 C 
ATOM     27  S   UNL     1      -4.664  14.715  22.802  0.00  0.00    +0.000 S 
ENDBRANCH  22  25
ENDBRANCH  18  20
ENDBRANCH   4  16
TORSDOF 5
ENDMDL
