MODEL 1
REMARK VINA RESULT:      -7.9      0.000      0.000
REMARK  Name = 
REMARK  4 active torsions:
REMARK  status: ('A' for Active; 'I' for Inactive)
REMARK    1  A    between atoms: C_1  and  C_2
REMARK    2  A    between atoms: C_2  and  C_3
REMARK    3  A    between atoms: N_7  and  C_8
REMARK    4  A    between atoms: C_13  and  C_14
REMARK                            x       y       z     vdW  Elec       q    Type
REMARK                         _______ _______ _______ _____ _____    ______ ____
ROOT
ATOM      1  C   UNL     1       1.698   2.555  21.698  0.00  0.00    +0.000 C 
ATOM      2  C   UNL     1       1.561   3.323  20.393  0.00  0.00    +0.000 C 
ATOM      3  C   UNL     1       0.459   2.763  19.500  0.00  0.00    +0.000 C 
ATOM      4  N   UNL     1       1.376   4.729  20.625  0.00  0.00    +0.000 N 
ATOM      5  C   UNL     1       2.298   5.498  19.946  0.00  0.00    +0.000 C 
ATOM      6  O   UNL     1       2.204   6.715  19.915  0.00  0.00    +0.000 OA
ATOM      7  N   UNL     1       3.209   4.665  19.337  0.00  0.00    +0.000 N 
ATOM      8  C   UNL     1       2.880   3.350  19.609  0.00  0.00    +0.000 C 
ATOM      9  O   UNL     1       3.487   2.332  19.298  0.00  0.00    +0.000 OA
ATOM     10  H   UNL     1       0.567   5.162  21.052  0.00  0.00    +0.000 HD
ENDROOT
BRANCH   7  11
ATOM     11  C   UNL     1       4.303   5.092  18.534  0.00  0.00    +0.000 A 
ATOM     12  C   UNL     1       4.173   5.244  17.145  0.00  0.00    +0.000 A 
ATOM     13  C   UNL     1       5.255   5.647  16.355  0.00  0.00    +0.000 A 
ATOM     14  C   UNL     1       6.489   5.882  16.945  0.00  0.00    +0.000 A 
ATOM     15  F   UNL     1       7.520   6.251  16.172  0.00  0.00    +0.000 F 
ATOM     16  C   UNL     1       6.661   5.743  18.316  0.00  0.00    +0.000 A 
ATOM     17  C   UNL     1       5.562   5.355  19.103  0.00  0.00    +0.000 A 
BRANCH  16  18
ATOM     18  C   UNL     1       8.019   5.927  18.921  0.00  0.00    +0.000 C 
ATOM     19  F   UNL     1       8.472   7.210  18.822  0.00  0.00    +0.000 F 
ATOM     20  F   UNL     1       8.028   5.640  20.254  0.00  0.00    +0.000 F 
ENDBRANCH  16  18
ENDBRANCH   7  11
TORSDOF 2
ENDMDL
MODEL 2
REMARK VINA RESULT:      -7.9      1.585      2.247
REMARK  Name = 
REMARK  4 active torsions:
REMARK  status: ('A' for Active; 'I' for Inactive)
REMARK    1  A    between atoms: C_1  and  C_2
REMARK    2  A    between atoms: C_2  and  C_3
REMARK    3  A    between atoms: N_7  and  C_8
REMARK    4  A    between atoms: C_13  and  C_14
REMARK                            x       y       z     vdW  Elec       q    Type
REMARK                         _______ _______ _______ _____ _____    ______ ____
ROOT
ATOM      1  C   UNL     1       0.638   2.477  19.250  0.00  0.00    +0.000 C 
ATOM      2  C   UNL     1       1.774   3.405  19.652  0.00  0.00    +0.000 C 
ATOM      3  C   UNL     1       1.315   4.517  20.589  0.00  0.00    +0.000 C 
ATOM      4  N   UNL     1       2.877   2.676  20.215  0.00  0.00    +0.000 N 
ATOM      5  C   UNL     1       4.067   2.951  19.575  0.00  0.00    +0.000 C 
ATOM      6  O   UNL     1       5.129   2.530  20.009  0.00  0.00    +0.000 OA
ATOM      7  N   UNL     1       3.814   3.763  18.493  0.00  0.00    +0.000 N 
ATOM      8  C   UNL     1       2.459   4.028  18.428  0.00  0.00    +0.000 C 
ATOM      9  O   UNL     1       1.845   4.655  17.572  0.00  0.00    +0.000 OA
ATOM     10  H   UNL     1       2.875   2.175  21.094  0.00  0.00    +0.000 HD
ENDROOT
BRANCH   7  11
ATOM     11  C   UNL     1       4.797   4.269  17.598  0.00  0.00    +0.000 A 
ATOM     12  C   UNL     1       4.975   3.715  16.320  0.00  0.00    +0.000 A 
ATOM     13  C   UNL     1       5.954   4.203  15.448  0.00  0.00    +0.000 A 
ATOM     14  C   UNL     1       6.784   5.237  15.854  0.00  0.00    +0.000 A 
ATOM     15  F   UNL     1       7.730   5.682  15.014  0.00  0.00    +0.000 F 
ATOM     16  C   UNL     1       6.644   5.813  17.111  0.00  0.00    +0.000 A 
ATOM     17  C   UNL     1       5.644   5.328  17.972  0.00  0.00    +0.000 A 
BRANCH  16  18
ATOM     18  C   UNL     1       7.600   6.875  17.556  0.00  0.00    +0.000 C 
ATOM     19  F   UNL     1       7.083   8.133  17.447  0.00  0.00    +0.000 F 
ATOM     20  F   UNL     1       7.943   6.737  18.870  0.00  0.00    +0.000 F 
ENDBRANCH  16  18
ENDBRANCH   7  11
TORSDOF 2
ENDMDL
MODEL 3
REMARK VINA RESULT:      -7.8      1.744      3.179
REMARK  Name = 
REMARK  4 active torsions:
REMARK  status: ('A' for Active; 'I' for Inactive)
REMARK    1  A    between atoms: C_1  and  C_2
REMARK    2  A    between atoms: C_2  and  C_3
REMARK    3  A    between atoms: N_7  and  C_8
REMARK    4  A    between atoms: C_13  and  C_14
REMARK                            x       y       z     vdW  Elec       q    Type
REMARK                         _______ _______ _______ _____ _____    ______ ____
ROOT
ATOM      1  C   UNL     1       0.674   2.191  18.856  0.00  0.00    +0.000 C 
ATOM      2  C   UNL     1       1.695   3.015  19.625  0.00  0.00    +0.000 C 
ATOM      3  C   UNL     1       1.060   3.832  20.745  0.00  0.00    +0.000 C 
ATOM      4  N   UNL     1       2.766   2.197  20.123  0.00  0.00    +0.000 N 
ATOM      5  C   UNL     1       4.005   2.663  19.736  0.00  0.00    +0.000 C 
ATOM      6  O   UNL     1       5.031   2.175  20.183  0.00  0.00    +0.000 OA
ATOM      7  N   UNL     1       3.831   3.721  18.872  0.00  0.00    +0.000 N 
ATOM      8  C   UNL     1       2.481   3.955  18.700  0.00  0.00    +0.000 C 
ATOM      9  O   UNL     1       1.935   4.765  17.960  0.00  0.00    +0.000 OA
ATOM     10  H   UNL     1       2.690   1.485  20.838  0.00  0.00    +0.000 HD
ENDROOT
BRANCH   7  11
ATOM     11  C   UNL     1       4.882   4.471  18.271  0.00  0.00    +0.000 A 
ATOM     12  C   UNL     1       5.725   5.289  19.038  0.00  0.00    +0.000 A 
ATOM     13  C   UNL     1       6.745   6.038  18.443  0.00  0.00    +0.000 A 
ATOM     14  C   UNL     1       6.919   5.995  17.068  0.00  0.00    +0.000 A 
ATOM     15  F   UNL     1       7.890   6.733  16.510  0.00  0.00    +0.000 F 
ATOM     16  C   UNL     1       6.106   5.199  16.271  0.00  0.00    +0.000 A 
ATOM     17  C   UNL     1       5.095   4.435  16.882  0.00  0.00    +0.000 A 
BRANCH  16  18
ATOM     18  C   UNL     1       6.262   5.226  14.782  0.00  0.00    +0.000 C 
ATOM     19  F   UNL     1       7.504   4.838  14.373  0.00  0.00    +0.000 F 
ATOM     20  F   UNL     1       5.393   4.377  14.161  0.00  0.00    +0.000 F 
ENDBRANCH  16  18
ENDBRANCH   7  11
TORSDOF 2
ENDMDL
MODEL 4
REMARK VINA RESULT:      -7.7      0.981      1.109
REMARK  Name = 
REMARK  4 active torsions:
REMARK  status: ('A' for Active; 'I' for Inactive)
REMARK    1  A    between atoms: C_1  and  C_2
REMARK    2  A    between atoms: C_2  and  C_3
REMARK    3  A    between atoms: N_7  and  C_8
REMARK    4  A    between atoms: C_13  and  C_14
REMARK                            x       y       z     vdW  Elec       q    Type
REMARK                         _______ _______ _______ _____ _____    ______ ____
ROOT
ATOM      1  C   UNL     1       2.180   2.956  21.730  0.00  0.00    +0.000 C 
ATOM      2  C   UNL     1       1.906   3.463  20.323  0.00  0.00    +0.000 C 
ATOM      3  C   UNL     1       0.721   2.759  19.670  0.00  0.00    +0.000 C 
ATOM      4  N   UNL     1       1.738   4.890  20.299  0.00  0.00    +0.000 N 
ATOM      5  C   UNL     1       2.582   5.501  19.395  0.00  0.00    +0.000 C 
ATOM      6  O   UNL     1       2.479   6.691  19.141  0.00  0.00    +0.000 OA
ATOM      7  N   UNL     1       3.430   4.554  18.868  0.00  0.00    +0.000 N 
ATOM      8  C   UNL     1       3.138   3.321  19.418  0.00  0.00    +0.000 C 
ATOM      9  O   UNL     1       3.715   2.253  19.248  0.00  0.00    +0.000 OA
ATOM     10  H   UNL     1       0.975   5.409  20.715  0.00  0.00    +0.000 HD
ENDROOT
BRANCH   7  11
ATOM     11  C   UNL     1       4.435   4.804  17.891  0.00  0.00    +0.000 A 
ATOM     12  C   UNL     1       4.461   4.103  16.675  0.00  0.00    +0.000 A 
ATOM     13  C   UNL     1       5.459   4.339  15.724  0.00  0.00    +0.000 A 
ATOM     14  C   UNL     1       6.458   5.264  15.988  0.00  0.00    +0.000 A 
ATOM     15  F   UNL     1       7.418   5.465  15.074  0.00  0.00    +0.000 F 
ATOM     16  C   UNL     1       6.471   5.979  17.180  0.00  0.00    +0.000 A 
ATOM     17  C   UNL     1       5.452   5.748  18.121  0.00  0.00    +0.000 A 
BRANCH  16  18
ATOM     18  C   UNL     1       7.600   6.916  17.476  0.00  0.00    +0.000 C 
ATOM     19  F   UNL     1       7.206   8.221  17.525  0.00  0.00    +0.000 F 
ATOM     20  F   UNL     1       8.170   6.663  18.690  0.00  0.00    +0.000 F 
ENDBRANCH  16  18
ENDBRANCH   7  11
TORSDOF 2
ENDMDL
MODEL 5
REMARK VINA RESULT:      -7.6      1.118      2.529
REMARK  Name = 
REMARK  4 active torsions:
REMARK  status: ('A' for Active; 'I' for Inactive)
REMARK    1  A    between atoms: C_1  and  C_2
REMARK    2  A    between atoms: C_2  and  C_3
REMARK    3  A    between atoms: N_7  and  C_8
REMARK    4  A    between atoms: C_13  and  C_14
REMARK                            x       y       z     vdW  Elec       q    Type
REMARK                         _______ _______ _______ _____ _____    ______ ____
ROOT
ATOM      1  C   UNL     1       1.582   2.487  21.664  0.00  0.00    +0.000 C 
ATOM      2  C   UNL     1       1.579   3.229  20.337  0.00  0.00    +0.000 C 
ATOM      3  C   UNL     1       0.588   2.638  19.340  0.00  0.00    +0.000 C 
ATOM      4  N   UNL     1       1.354   4.636  20.519  0.00  0.00    +0.000 N 
ATOM      5  C   UNL     1       2.336   5.405  19.929  0.00  0.00    +0.000 C 
ATOM      6  O   UNL     1       2.231   6.620  19.864  0.00  0.00    +0.000 OA
ATOM      7  N   UNL     1       3.317   4.573  19.440  0.00  0.00    +0.000 N 
ATOM      8  C   UNL     1       2.976   3.260  19.700  0.00  0.00    +0.000 C 
ATOM      9  O   UNL     1       3.625   2.244  19.477  0.00  0.00    +0.000 OA
ATOM     10  H   UNL     1       0.498   5.066  20.847  0.00  0.00    +0.000 HD
ENDROOT
BRANCH   7  11
ATOM     11  C   UNL     1       4.487   5.001  18.752  0.00  0.00    +0.000 A 
ATOM     12  C   UNL     1       5.679   5.276  19.440  0.00  0.00    +0.000 A 
ATOM     13  C   UNL     1       6.822   5.713  18.764  0.00  0.00    +0.000 A 
ATOM     14  C   UNL     1       6.781   5.902  17.391  0.00  0.00    +0.000 A 
ATOM     15  F   UNL     1       7.880   6.338  16.759  0.00  0.00    +0.000 F 
ATOM     16  C   UNL     1       5.621   5.642  16.670  0.00  0.00    +0.000 A 
ATOM     17  C   UNL     1       4.483   5.186  17.358  0.00  0.00    +0.000 A 
BRANCH  16  18
ATOM     18  C   UNL     1       5.576   5.926  15.201  0.00  0.00    +0.000 C 
ATOM     19  F   UNL     1       5.055   4.893  14.478  0.00  0.00    +0.000 F 
ATOM     20  F   UNL     1       4.790   7.003  14.911  0.00  0.00    +0.000 F 
ENDBRANCH  16  18
ENDBRANCH   7  11
TORSDOF 2
ENDMDL
MODEL 6
REMARK VINA RESULT:      -7.4      2.137      3.633
REMARK  Name = 
REMARK  4 active torsions:
REMARK  status: ('A' for Active; 'I' for Inactive)
REMARK    1  A    between atoms: C_1  and  C_2
REMARK    2  A    between atoms: C_2  and  C_3
REMARK    3  A    between atoms: N_7  and  C_8
REMARK    4  A    between atoms: C_13  and  C_14
REMARK                            x       y       z     vdW  Elec       q    Type
REMARK                         _______ _______ _______ _____ _____    ______ ____
ROOT
ATOM      1  C   UNL     1       0.660   2.876  19.393  0.00  0.00    +0.000 C 
ATOM      2  C   UNL     1       1.936   3.577  19.832  0.00  0.00    +0.000 C 
ATOM      3  C   UNL     1       1.675   4.671  20.863  0.00  0.00    +0.000 C 
ATOM      4  N   UNL     1       2.917   2.641  20.307  0.00  0.00    +0.000 N 
ATOM      5  C   UNL     1       4.126   2.774  19.656  0.00  0.00    +0.000 C 
ATOM      6  O   UNL     1       5.113   2.157  20.027  0.00  0.00    +0.000 OA
ATOM      7  N   UNL     1       3.988   3.699  18.647  0.00  0.00    +0.000 N 
ATOM      8  C   UNL     1       2.692   4.179  18.640  0.00  0.00    +0.000 C 
ATOM      9  O   UNL     1       2.173   4.961  17.852  0.00  0.00    +0.000 OA
ATOM     10  H   UNL     1       2.849   2.078  21.145  0.00  0.00    +0.000 HD
ENDROOT
BRANCH   7  11
ATOM     11  C   UNL     1       5.026   4.112  17.765  0.00  0.00    +0.000 A 
ATOM     12  C   UNL     1       6.188   4.734  18.246  0.00  0.00    +0.000 A 
ATOM     13  C   UNL     1       7.199   5.154  17.376  0.00  0.00    +0.000 A 
ATOM     14  C   UNL     1       7.048   4.979  16.008  0.00  0.00    +0.000 A 
ATOM     15  F   UNL     1       8.017   5.404  15.186  0.00  0.00    +0.000 F 
ATOM     16  C   UNL     1       5.912   4.370  15.489  0.00  0.00    +0.000 A 
ATOM     17  C   UNL     1       4.911   3.933  16.375  0.00  0.00    +0.000 A 
BRANCH  16  18
ATOM     18  C   UNL     1       5.736   4.259  14.006  0.00  0.00    +0.000 C 
ATOM     19  F   UNL     1       6.604   3.376  13.435  0.00  0.00    +0.000 F 
ATOM     20  F   UNL     1       4.491   3.813  13.671  0.00  0.00    +0.000 F 
ENDBRANCH  16  18
ENDBRANCH   7  11
TORSDOF 2
ENDMDL
MODEL 7
REMARK VINA RESULT:      -7.4      4.098      5.707
REMARK  Name = 
REMARK  4 active torsions:
REMARK  status: ('A' for Active; 'I' for Inactive)
REMARK    1  A    between atoms: C_1  and  C_2
REMARK    2  A    between atoms: C_2  and  C_3
REMARK    3  A    between atoms: N_7  and  C_8
REMARK    4  A    between atoms: C_13  and  C_14
REMARK                            x       y       z     vdW  Elec       q    Type
REMARK                         _______ _______ _______ _____ _____    ______ ____
ROOT
ATOM      1  C   UNL     1       4.216   2.985  19.105  0.00  0.00    +0.000 C 
ATOM      2  C   UNL     1       4.939   4.174  18.492  0.00  0.00    +0.000 C 
ATOM      3  C   UNL     1       4.402   5.508  19.000  0.00  0.00    +0.000 C 
ATOM      4  N   UNL     1       6.361   4.082  18.679  0.00  0.00    +0.000 N 
ATOM      5  C   UNL     1       7.053   4.184  17.491  0.00  0.00    +0.000 C 
ATOM      6  O   UNL     1       8.272   4.269  17.477  0.00  0.00    +0.000 OA
ATOM      7  N   UNL     1       6.151   4.222  16.452  0.00  0.00    +0.000 N 
ATOM      8  C   UNL     1       4.867   4.153  16.958  0.00  0.00    +0.000 C 
ATOM      9  O   UNL     1       3.808   4.094  16.345  0.00  0.00    +0.000 OA
ATOM     10  H   UNL     1       6.851   4.144  19.562  0.00  0.00    +0.000 HD
ENDROOT
BRANCH   7  11
ATOM     11  C   UNL     1       6.490   4.337  15.075  0.00  0.00    +0.000 A 
ATOM     12  C   UNL     1       7.477   5.235  14.639  0.00  0.00    +0.000 A 
ATOM     13  C   UNL     1       7.796   5.359  13.283  0.00  0.00    +0.000 A 
ATOM     14  C   UNL     1       7.114   4.601  12.342  0.00  0.00    +0.000 A 
ATOM     15  F   UNL     1       7.418   4.745  11.044  0.00  0.00    +0.000 F 
ATOM     16  C   UNL     1       6.129   3.701  12.730  0.00  0.00    +0.000 A 
ATOM     17  C   UNL     1       5.830   3.571  14.098  0.00  0.00    +0.000 A 
BRANCH  16  18
ATOM     18  C   UNL     1       5.353   2.950  11.693  0.00  0.00    +0.000 C 
ATOM     19  F   UNL     1       5.565   1.604  11.747  0.00  0.00    +0.000 F 
ATOM     20  F   UNL     1       4.007   3.112  11.844  0.00  0.00    +0.000 F 
ENDBRANCH  16  18
ENDBRANCH   7  11
TORSDOF 2
ENDMDL
MODEL 8
REMARK VINA RESULT:      -7.3      1.062      2.128
REMARK  Name = 
REMARK  4 active torsions:
REMARK  status: ('A' for Active; 'I' for Inactive)
REMARK    1  A    between atoms: C_1  and  C_2
REMARK    2  A    between atoms: C_2  and  C_3
REMARK    3  A    between atoms: N_7  and  C_8
REMARK    4  A    between atoms: C_13  and  C_14
REMARK                            x       y       z     vdW  Elec       q    Type
REMARK                         _______ _______ _______ _____ _____    ______ ____
ROOT
ATOM      1  C   UNL     1       0.192   3.141  19.704  0.00  0.00    +0.000 C 
ATOM      2  C   UNL     1       1.671   2.943  19.997  0.00  0.00    +0.000 C 
ATOM      3  C   UNL     1       1.943   2.681  21.475  0.00  0.00    +0.000 C 
ATOM      4  N   UNL     1       2.239   1.910  19.175  0.00  0.00    +0.000 N 
ATOM      5  C   UNL     1       3.348   2.345  18.480  0.00  0.00    +0.000 C 
ATOM      6  O   UNL     1       4.039   1.564  17.843  0.00  0.00    +0.000 OA
ATOM      7  N   UNL     1       3.507   3.694  18.695  0.00  0.00    +0.000 N 
ATOM      8  C   UNL     1       2.508   4.145  19.537  0.00  0.00    +0.000 C 
ATOM      9  O   UNL     1       2.278   5.292  19.903  0.00  0.00    +0.000 OA
ATOM     10  H   UNL     1       2.021   0.923  19.221  0.00  0.00    +0.000 HD
ENDROOT
BRANCH   7  11
ATOM     11  C   UNL     1       4.551   4.495  18.152  0.00  0.00    +0.000 A 
ATOM     12  C   UNL     1       4.457   5.041  16.863  0.00  0.00    +0.000 A 
ATOM     13  C   UNL     1       5.492   5.813  16.325  0.00  0.00    +0.000 A 
ATOM     14  C   UNL     1       6.646   6.029  17.064  0.00  0.00    +0.000 A 
ATOM     15  F   UNL     1       7.637   6.755  16.528  0.00  0.00    +0.000 F 
ATOM     16  C   UNL     1       6.782   5.505  18.344  0.00  0.00    +0.000 A 
ATOM     17  C   UNL     1       5.727   4.746  18.882  0.00  0.00    +0.000 A 
BRANCH  16  18
ATOM     18  C   UNL     1       8.065   5.686  19.093  0.00  0.00    +0.000 C 
ATOM     19  F   UNL     1       8.588   6.938  18.953  0.00  0.00    +0.000 F 
ATOM     20  F   UNL     1       7.903   5.508  20.436  0.00  0.00    +0.000 F 
ENDBRANCH  16  18
ENDBRANCH   7  11
TORSDOF 2
ENDMDL
MODEL 9
REMARK VINA RESULT:      -7.3      1.713      2.908
REMARK  Name = 
REMARK  4 active torsions:
REMARK  status: ('A' for Active; 'I' for Inactive)
REMARK    1  A    between atoms: C_1  and  C_2
REMARK    2  A    between atoms: C_2  and  C_3
REMARK    3  A    between atoms: N_7  and  C_8
REMARK    4  A    between atoms: C_13  and  C_14
REMARK                            x       y       z     vdW  Elec       q    Type
REMARK                         _______ _______ _______ _____ _____    ______ ____
ROOT
ATOM      1  C   UNL     1       1.620   2.857  21.482  0.00  0.00    +0.000 C 
ATOM      2  C   UNL     1       1.667   3.265  20.018  0.00  0.00    +0.000 C 
ATOM      3  C   UNL     1       0.598   2.566  19.184  0.00  0.00    +0.000 C 
ATOM      4  N   UNL     1       1.594   4.691  19.864  0.00  0.00    +0.000 N 
ATOM      5  C   UNL     1       2.639   5.191  19.114  0.00  0.00    +0.000 C 
ATOM      6  O   UNL     1       2.661   6.361  18.764  0.00  0.00    +0.000 OA
ATOM      7  N   UNL     1       3.516   4.168  18.837  0.00  0.00    +0.000 N 
ATOM      8  C   UNL     1       3.045   2.996  19.397  0.00  0.00    +0.000 C 
ATOM      9  O   UNL     1       3.579   1.893  19.422  0.00  0.00    +0.000 OA
ATOM     10  H   UNL     1       0.796   5.275  20.078  0.00  0.00    +0.000 HD
ENDROOT
BRANCH   7  11
ATOM     11  C   UNL     1       4.710   4.295  18.073  0.00  0.00    +0.000 A 
ATOM     12  C   UNL     1       5.908   4.737  18.658  0.00  0.00    +0.000 A 
ATOM     13  C   UNL     1       7.075   4.878  17.901  0.00  0.00    +0.000 A 
ATOM     14  C   UNL     1       7.053   4.599  16.542  0.00  0.00    +0.000 A 
ATOM     15  F   UNL     1       8.176   4.756  15.827  0.00  0.00    +0.000 F 
ATOM     16  C   UNL     1       5.889   4.160  15.923  0.00  0.00    +0.000 A 
ATOM     17  C   UNL     1       4.726   4.004  16.698  0.00  0.00    +0.000 A 
BRANCH  16  18
ATOM     18  C   UNL     1       5.869   3.939  14.443  0.00  0.00    +0.000 C 
ATOM     19  F   UNL     1       4.643   4.167  13.890  0.00  0.00    +0.000 F 
ATOM     20  F   UNL     1       6.724   4.777  13.788  0.00  0.00    +0.000 F 
ENDBRANCH  16  18
ENDBRANCH   7  11
TORSDOF 2
ENDMDL
