MODEL 1
REMARK VINA RESULT:      -8.6      0.000      0.000
REMARK  Name = 
REMARK  2 active torsions:
REMARK  status: ('A' for Active; 'I' for Inactive)
REMARK    1  A    between atoms: C_2  and  C_3
REMARK    2  A    between atoms: C_8  and  C_9
REMARK                            x       y       z     vdW  Elec       q    Type
REMARK                         _______ _______ _______ _____ _____    ______ ____
ROOT
ATOM      1  C   UNL     1       7.179   4.851  13.935  0.00  0.00    +0.000 A 
ATOM      2  C   UNL     1       5.967   4.242  13.581  0.00  0.00    +0.000 A 
ATOM      3  C   UNL     1       5.039   3.918  14.574  0.00  0.00    +0.000 A 
ATOM      4  C   UNL     1       5.320   4.213  15.908  0.00  0.00    +0.000 A 
ATOM      5  O   UNL     1       4.357   3.900  16.837  0.00  0.00    +0.000 OA
ATOM      6  C   UNL     1       4.585   4.225  18.172  0.00  0.00    +0.000 A 
ATOM      7  C   UNL     1       5.723   4.786  18.600  0.00  0.00    +0.000 A 
ATOM      8  C   UNL     1       6.792   5.127  17.656  0.00  0.00    +0.000 A 
ATOM      9  O   UNL     1       7.821   5.658  18.031  0.00  0.00    +0.000 OA
ATOM     10  C   UNL     1       6.530   4.813  16.247  0.00  0.00    +0.000 A 
ATOM     11  C   UNL     1       7.473   5.135  15.268  0.00  0.00    +0.000 A 
ENDROOT
BRANCH   6  12
ATOM     12  C   UNL     1       3.424   3.896  19.111  0.00  0.00    +0.000 C 
ATOM     13  C   UNL     1       2.135   3.623  18.291  0.00  0.00    +0.000 C 
ATOM     14  C   UNL     1       0.949   3.320  19.222  0.00  0.00    +0.000 C 
ATOM     15  C   UNL     1       1.268   2.076  20.064  0.00  0.00    +0.000 C 
ATOM     16  C   UNL     1       2.523   2.324  20.912  0.00  0.00    +0.000 C 
ATOM     17  C   UNL     1       2.287   3.526  21.839  0.00  0.00    +0.000 C 
ATOM     18  C   UNL     1       1.972   4.778  21.006  0.00  0.00    +0.000 C 
ATOM     19  C   UNL     1       0.719   4.522  20.153  0.00  0.00    +0.000 C 
ATOM     20  C   UNL     1       3.161   5.083  20.078  0.00  0.00    +0.000 C 
ATOM     21  C   UNL     1       3.702   2.633  19.983  0.00  0.00    +0.000 C 
ENDBRANCH   6  12
BRANCH   1  23
ATOM     22  O   UNL     1       8.961   6.114  13.052  0.00  0.00    +0.000 OA
ATOM     23  C   UNL     1       8.156   5.203  12.894  0.00  0.00    +0.000 C 
ENDBRANCH   1  23
TORSDOF 2
ENDMDL
MODEL 2
REMARK VINA RESULT:      -8.6      0.234      1.563
REMARK  Name = 
REMARK  2 active torsions:
REMARK  status: ('A' for Active; 'I' for Inactive)
REMARK    1  A    between atoms: C_2  and  C_3
REMARK    2  A    between atoms: C_8  and  C_9
REMARK                            x       y       z     vdW  Elec       q    Type
REMARK                         _______ _______ _______ _____ _____    ______ ____
ROOT
ATOM      1  C   UNL     1       7.194   4.891  13.909  0.00  0.00    +0.000 A 
ATOM      2  C   UNL     1       6.090   4.083  13.603  0.00  0.00    +0.000 A 
ATOM      3  C   UNL     1       5.175   3.749  14.606  0.00  0.00    +0.000 A 
ATOM      4  C   UNL     1       5.361   4.234  15.901  0.00  0.00    +0.000 A 
ATOM      5  O   UNL     1       4.413   3.899  16.838  0.00  0.00    +0.000 OA
ATOM      6  C   UNL     1       4.541   4.405  18.128  0.00  0.00    +0.000 A 
ATOM      7  C   UNL     1       5.576   5.165  18.513  0.00  0.00    +0.000 A 
ATOM      8  C   UNL     1       6.625   5.540  17.560  0.00  0.00    +0.000 A 
ATOM      9  O   UNL     1       7.557   6.249  17.893  0.00  0.00    +0.000 OA
ATOM     10  C   UNL     1       6.464   5.031  16.193  0.00  0.00    +0.000 A 
ATOM     11  C   UNL     1       7.393   5.366  15.205  0.00  0.00    +0.000 A 
ENDROOT
BRANCH   6  12
ATOM     12  C   UNL     1       3.399   4.029  19.073  0.00  0.00    +0.000 C 
ATOM     13  C   UNL     1       3.743   2.720  19.832  0.00  0.00    +0.000 C 
ATOM     14  C   UNL     1       2.591   2.310  20.765  0.00  0.00    +0.000 C 
ATOM     15  C   UNL     1       2.349   3.425  21.793  0.00  0.00    +0.000 C 
ATOM     16  C   UNL     1       1.975   4.729  21.075  0.00  0.00    +0.000 C 
ATOM     17  C   UNL     1       0.703   4.511  20.243  0.00  0.00    +0.000 C 
ATOM     18  C   UNL     1       0.936   3.401  19.207  0.00  0.00    +0.000 C 
ATOM     19  C   UNL     1       1.318   2.099  19.930  0.00  0.00    +0.000 C 
ATOM     20  C   UNL     1       2.086   3.814  18.271  0.00  0.00    +0.000 C 
ATOM     21  C   UNL     1       3.121   5.132  20.141  0.00  0.00    +0.000 C 
ENDBRANCH   6  12
BRANCH   1  23
ATOM     22  O   UNL     1       9.016   6.106  13.041  0.00  0.00    +0.000 OA
ATOM     23  C   UNL     1       8.155   5.253  12.857  0.00  0.00    +0.000 C 
ENDBRANCH   1  23
TORSDOF 2
ENDMDL
MODEL 3
REMARK VINA RESULT:      -8.6      0.410      1.721
REMARK  Name = 
REMARK  2 active torsions:
REMARK  status: ('A' for Active; 'I' for Inactive)
REMARK    1  A    between atoms: C_2  and  C_3
REMARK    2  A    between atoms: C_8  and  C_9
REMARK                            x       y       z     vdW  Elec       q    Type
REMARK                         _______ _______ _______ _____ _____    ______ ____
ROOT
ATOM      1  C   UNL     1       7.251   4.880  13.868  0.00  0.00    +0.000 A 
ATOM      2  C   UNL     1       6.168   4.062  13.515  0.00  0.00    +0.000 A 
ATOM      3  C   UNL     1       5.232   3.695  14.486  0.00  0.00    +0.000 A 
ATOM      4  C   UNL     1       5.375   4.155  15.795  0.00  0.00    +0.000 A 
ATOM      5  O   UNL     1       4.407   3.787  16.698  0.00  0.00    +0.000 OA
ATOM      6  C   UNL     1       4.492   4.269  18.002  0.00  0.00    +0.000 A 
ATOM      7  C   UNL     1       5.504   5.036  18.430  0.00  0.00    +0.000 A 
ATOM      8  C   UNL     1       6.573   5.445  17.514  0.00  0.00    +0.000 A 
ATOM      9  O   UNL     1       7.485   6.161  17.887  0.00  0.00    +0.000 OA
ATOM     10  C   UNL     1       6.458   4.963  16.134  0.00  0.00    +0.000 A 
ATOM     11  C   UNL     1       7.408   5.331  15.178  0.00  0.00    +0.000 A 
ENDROOT
BRANCH   6  12
ATOM     12  C   UNL     1       3.330   3.857  18.907  0.00  0.00    +0.000 C 
ATOM     13  C   UNL     1       3.300   4.750  20.176  0.00  0.00    +0.000 C 
ATOM     14  C   UNL     1       2.155   4.329  21.113  0.00  0.00    +0.000 C 
ATOM     15  C   UNL     1       0.816   4.477  20.376  0.00  0.00    +0.000 C 
ATOM     16  C   UNL     1       0.800   3.582  19.130  0.00  0.00    +0.000 C 
ATOM     17  C   UNL     1       0.999   2.118  19.547  0.00  0.00    +0.000 C 
ATOM     18  C   UNL     1       2.339   1.957  20.280  0.00  0.00    +0.000 C 
ATOM     19  C   UNL     1       2.353   2.861  21.523  0.00  0.00    +0.000 C 
ATOM     20  C   UNL     1       3.485   2.374  19.340  0.00  0.00    +0.000 C 
ATOM     21  C   UNL     1       1.947   3.998  18.201  0.00  0.00    +0.000 C 
ENDBRANCH   6  12
BRANCH   1  23
ATOM     22  O   UNL     1       9.098   6.116  13.085  0.00  0.00    +0.000 OA
ATOM     23  C   UNL     1       8.235   5.276  12.850  0.00  0.00    +0.000 C 
ENDBRANCH   1  23
TORSDOF 2
ENDMDL
MODEL 4
REMARK VINA RESULT:      -8.6      4.519      7.616
REMARK  Name = 
REMARK  2 active torsions:
REMARK  status: ('A' for Active; 'I' for Inactive)
REMARK    1  A    between atoms: C_2  and  C_3
REMARK    2  A    between atoms: C_8  and  C_9
REMARK                            x       y       z     vdW  Elec       q    Type
REMARK                         _______ _______ _______ _____ _____    ______ ____
ROOT
ATOM      1  C   UNL     1       0.044  10.461  21.345  0.00  0.00    +0.000 A 
ATOM      2  C   UNL     1       0.228   9.326  22.147  0.00  0.00    +0.000 A 
ATOM      3  C   UNL     1       0.919   8.223  21.640  0.00  0.00    +0.000 A 
ATOM      4  C   UNL     1       1.433   8.264  20.344  0.00  0.00    +0.000 A 
ATOM      5  O   UNL     1       2.131   7.162  19.911  0.00  0.00    +0.000 OA
ATOM      6  C   UNL     1       2.698   7.188  18.639  0.00  0.00    +0.000 A 
ATOM      7  C   UNL     1       2.553   8.221  17.798  0.00  0.00    +0.000 A 
ATOM      8  C   UNL     1       1.805   9.415  18.201  0.00  0.00    +0.000 A 
ATOM      9  O   UNL     1       1.686  10.369  17.453  0.00  0.00    +0.000 OA
ATOM     10  C   UNL     1       1.239   9.395  19.555  0.00  0.00    +0.000 A 
ATOM     11  C   UNL     1       0.542  10.502  20.043  0.00  0.00    +0.000 A 
ENDROOT
BRANCH   6  12
ATOM     12  C   UNL     1       3.510   5.942  18.282  0.00  0.00    +0.000 C 
ATOM     13  C   UNL     1       4.225   5.391  19.544  0.00  0.00    +0.000 C 
ATOM     14  C   UNL     1       5.071   4.155  19.197  0.00  0.00    +0.000 C 
ATOM     15  C   UNL     1       4.158   3.057  18.630  0.00  0.00    +0.000 C 
ATOM     16  C   UNL     1       3.458   3.560  17.361  0.00  0.00    +0.000 C 
ATOM     17  C   UNL     1       4.511   3.945  16.312  0.00  0.00    +0.000 C 
ATOM     18  C   UNL     1       5.427   5.047  16.866  0.00  0.00    +0.000 C 
ATOM     19  C   UNL     1       6.120   4.542  18.142  0.00  0.00    +0.000 C 
ATOM     20  C   UNL     1       4.580   6.286  17.209  0.00  0.00    +0.000 C 
ATOM     21  C   UNL     1       2.621   4.797  17.707  0.00  0.00    +0.000 C 
ENDBRANCH   6  12
BRANCH   1  23
ATOM     22  O   UNL     1      -0.627  11.925  23.063  0.00  0.00    +0.000 OA
ATOM     23  C   UNL     1      -0.675  11.628  21.875  0.00  0.00    +0.000 C 
ENDBRANCH   1  23
TORSDOF 2
ENDMDL
MODEL 5
REMARK VINA RESULT:      -8.6      4.393      7.152
REMARK  Name = 
REMARK  2 active torsions:
REMARK  status: ('A' for Active; 'I' for Inactive)
REMARK    1  A    between atoms: C_2  and  C_3
REMARK    2  A    between atoms: C_8  and  C_9
REMARK                            x       y       z     vdW  Elec       q    Type
REMARK                         _______ _______ _______ _____ _____    ______ ____
ROOT
ATOM      1  C   UNL     1       0.524  10.921  21.122  0.00  0.00    +0.000 A 
ATOM      2  C   UNL     1       0.365   9.957  22.128  0.00  0.00    +0.000 A 
ATOM      3  C   UNL     1       0.699   8.625  21.872  0.00  0.00    +0.000 A 
ATOM      4  C   UNL     1       1.199   8.265  20.620  0.00  0.00    +0.000 A 
ATOM      5  O   UNL     1       1.539   6.946  20.435  0.00  0.00    +0.000 OA
ATOM      6  C   UNL     1       2.086   6.563  19.214  0.00  0.00    +0.000 A 
ATOM      7  C   UNL     1       2.250   7.411  18.190  0.00  0.00    +0.000 A 
ATOM      8  C   UNL     1       1.889   8.826  18.325  0.00  0.00    +0.000 A 
ATOM      9  O   UNL     1       2.056   9.611  17.409  0.00  0.00    +0.000 OA
ATOM     10  C   UNL     1       1.346   9.230  19.627  0.00  0.00    +0.000 A 
ATOM     11  C   UNL     1       1.008  10.564  19.864  0.00  0.00    +0.000 A 
ENDROOT
BRANCH   6  12
ATOM     12  C   UNL     1       2.492   5.090  19.136  0.00  0.00    +0.000 C 
ATOM     13  C   UNL     1       4.036   4.959  19.213  0.00  0.00    +0.000 C 
ATOM     14  C   UNL     1       4.465   3.486  19.106  0.00  0.00    +0.000 C 
ATOM     15  C   UNL     1       3.847   2.691  20.266  0.00  0.00    +0.000 C 
ATOM     16  C   UNL     1       2.315   2.775  20.201  0.00  0.00    +0.000 C 
ATOM     17  C   UNL     1       1.825   2.200  18.865  0.00  0.00    +0.000 C 
ATOM     18  C   UNL     1       2.434   2.992  17.697  0.00  0.00    +0.000 C 
ATOM     19  C   UNL     1       3.967   2.911  17.770  0.00  0.00    +0.000 C 
ATOM     20  C   UNL     1       2.000   4.465  17.802  0.00  0.00    +0.000 C 
ATOM     21  C   UNL     1       1.890   4.245  20.301  0.00  0.00    +0.000 C 
ENDBRANCH   6  12
BRANCH   1  23
ATOM     22  O   UNL     1       1.050  13.173  21.570  0.00  0.00    +0.000 OA
ATOM     23  C   UNL     1       0.182  12.326  21.388  0.00  0.00    +0.000 C 
ENDBRANCH   1  23
TORSDOF 2
ENDMDL
MODEL 6
REMARK VINA RESULT:      -8.5      4.507      7.561
REMARK  Name = 
REMARK  2 active torsions:
REMARK  status: ('A' for Active; 'I' for Inactive)
REMARK    1  A    between atoms: C_2  and  C_3
REMARK    2  A    between atoms: C_8  and  C_9
REMARK                            x       y       z     vdW  Elec       q    Type
REMARK                         _______ _______ _______ _____ _____    ______ ____
ROOT
ATOM      1  C   UNL     1       0.006  10.408  21.344  0.00  0.00    +0.000 A 
ATOM      2  C   UNL     1       0.205   9.271  22.139  0.00  0.00    +0.000 A 
ATOM      3  C   UNL     1       0.918   8.184  21.628  0.00  0.00    +0.000 A 
ATOM      4  C   UNL     1       1.438   8.243  20.334  0.00  0.00    +0.000 A 
ATOM      5  O   UNL     1       2.157   7.157  19.896  0.00  0.00    +0.000 OA
ATOM      6  C   UNL     1       2.730   7.203  18.628  0.00  0.00    +0.000 A 
ATOM      7  C   UNL     1       2.571   8.239  17.794  0.00  0.00    +0.000 A 
ATOM      8  C   UNL     1       1.800   9.417  18.202  0.00  0.00    +0.000 A 
ATOM      9  O   UNL     1       1.669  10.374  17.461  0.00  0.00    +0.000 OA
ATOM     10  C   UNL     1       1.228   9.376  19.552  0.00  0.00    +0.000 A 
ATOM     11  C   UNL     1       0.509  10.467  20.045  0.00  0.00    +0.000 A 
ENDROOT
BRANCH   6  12
ATOM     12  C   UNL     1       3.565   5.974  18.266  0.00  0.00    +0.000 C 
ATOM     13  C   UNL     1       2.647   4.843  17.731  0.00  0.00    +0.000 C 
ATOM     14  C   UNL     1       3.468   3.588  17.390  0.00  0.00    +0.000 C 
ATOM     15  C   UNL     1       4.501   3.935  16.308  0.00  0.00    +0.000 C 
ATOM     16  C   UNL     1       5.446   5.031  16.817  0.00  0.00    +0.000 C 
ATOM     17  C   UNL     1       6.169   4.540  18.080  0.00  0.00    +0.000 C 
ATOM     18  C   UNL     1       5.145   4.195  19.171  0.00  0.00    +0.000 C 
ATOM     19  C   UNL     1       4.195   3.103  18.654  0.00  0.00    +0.000 C 
ATOM     20  C   UNL     1       4.327   5.453  19.516  0.00  0.00    +0.000 C 
ATOM     21  C   UNL     1       4.626   6.279  17.163  0.00  0.00    +0.000 C 
ENDBRANCH   6  12
BRANCH   1  23
ATOM     22  O   UNL     1      -0.576  11.946  23.031  0.00  0.00    +0.000 OA
ATOM     23  C   UNL     1      -0.736  11.559  21.879  0.00  0.00    +0.000 C 
ENDBRANCH   1  23
TORSDOF 2
ENDMDL
MODEL 7
REMARK VINA RESULT:      -8.5      4.466      7.170
REMARK  Name = 
REMARK  2 active torsions:
REMARK  status: ('A' for Active; 'I' for Inactive)
REMARK    1  A    between atoms: C_2  and  C_3
REMARK    2  A    between atoms: C_8  and  C_9
REMARK                            x       y       z     vdW  Elec       q    Type
REMARK                         _______ _______ _______ _____ _____    ______ ____
ROOT
ATOM      1  C   UNL     1       0.570  10.976  21.010  0.00  0.00    +0.000 A 
ATOM      2  C   UNL     1       0.362  10.040  22.033  0.00  0.00    +0.000 A 
ATOM      3  C   UNL     1       0.661   8.693  21.811  0.00  0.00    +0.000 A 
ATOM      4  C   UNL     1       1.175   8.292  20.578  0.00  0.00    +0.000 A 
ATOM      5  O   UNL     1       1.478   6.959  20.428  0.00  0.00    +0.000 OA
ATOM      6  C   UNL     1       2.038   6.533  19.226  0.00  0.00    +0.000 A 
ATOM      7  C   UNL     1       2.248   7.354  18.189  0.00  0.00    +0.000 A 
ATOM      8  C   UNL     1       1.928   8.782  18.286  0.00  0.00    +0.000 A 
ATOM      9  O   UNL     1       2.137   9.541  17.358  0.00  0.00    +0.000 OA
ATOM     10  C   UNL     1       1.371   9.230  19.568  0.00  0.00    +0.000 A 
ATOM     11  C   UNL     1       1.069  10.578  19.770  0.00  0.00    +0.000 A 
ENDROOT
BRANCH   6  12
ATOM     12  C   UNL     1       2.401   5.048  19.189  0.00  0.00    +0.000 C 
ATOM     13  C   UNL     1       1.712   4.300  20.360  0.00  0.00    +0.000 C 
ATOM     14  C   UNL     1       2.091   2.810  20.355  0.00  0.00    +0.000 C 
ATOM     15  C   UNL     1       1.638   2.174  19.032  0.00  0.00    +0.000 C 
ATOM     16  C   UNL     1       2.327   2.872  17.852  0.00  0.00    +0.000 C 
ATOM     17  C   UNL     1       3.850   2.736  17.993  0.00  0.00    +0.000 C 
ATOM     18  C   UNL     1       4.315   3.374  19.311  0.00  0.00    +0.000 C 
ATOM     19  C   UNL     1       3.616   2.677  20.490  0.00  0.00    +0.000 C 
ATOM     20  C   UNL     1       3.939   4.867  19.314  0.00  0.00    +0.000 C 
ATOM     21  C   UNL     1       1.954   4.359  17.863  0.00  0.00    +0.000 C 
ENDBRANCH   6  12
BRANCH   1  23
ATOM     22  O   UNL     1      -0.066  12.810  22.345  0.00  0.00    +0.000 OA
ATOM     23  C   UNL     1       0.266  12.396  21.239  0.00  0.00    +0.000 C 
ENDBRANCH   1  23
TORSDOF 2
ENDMDL
MODEL 8
REMARK VINA RESULT:      -8.4      4.529      7.555
REMARK  Name = 
REMARK  2 active torsions:
REMARK  status: ('A' for Active; 'I' for Inactive)
REMARK    1  A    between atoms: C_2  and  C_3
REMARK    2  A    between atoms: C_8  and  C_9
REMARK                            x       y       z     vdW  Elec       q    Type
REMARK                         _______ _______ _______ _____ _____    ______ ____
ROOT
ATOM      1  C   UNL     1       0.023  10.502  21.341  0.00  0.00    +0.000 A 
ATOM      2  C   UNL     1       0.216   9.379  22.159  0.00  0.00    +0.000 A 
ATOM      3  C   UNL     1       0.914   8.274  21.665  0.00  0.00    +0.000 A 
ATOM      4  C   UNL     1       1.424   8.301  20.367  0.00  0.00    +0.000 A 
ATOM      5  O   UNL     1       2.129   7.198  19.947  0.00  0.00    +0.000 OA
ATOM      6  C   UNL     1       2.693   7.211  18.674  0.00  0.00    +0.000 A 
ATOM      7  C   UNL     1       2.538   8.231  17.819  0.00  0.00    +0.000 A 
ATOM      8  C   UNL     1       1.782   9.426  18.207  0.00  0.00    +0.000 A 
ATOM      9  O   UNL     1       1.655  10.368  17.447  0.00  0.00    +0.000 OA
ATOM     10  C   UNL     1       1.221   9.419  19.563  0.00  0.00    +0.000 A 
ATOM     11  C   UNL     1       0.517  10.528  20.038  0.00  0.00    +0.000 A 
ENDROOT
BRANCH   6  12
ATOM     12  C   UNL     1       3.512   5.966  18.331  0.00  0.00    +0.000 C 
ATOM     13  C   UNL     1       4.636   6.328  17.324  0.00  0.00    +0.000 C 
ATOM     14  C   UNL     1       5.452   5.080  16.945  0.00  0.00    +0.000 C 
ATOM     15  C   UNL     1       6.096   4.491  18.209  0.00  0.00    +0.000 C 
ATOM     16  C   UNL     1       5.008   4.093  19.215  0.00  0.00    +0.000 C 
ATOM     17  C   UNL     1       4.076   3.052  18.580  0.00  0.00    +0.000 C 
ATOM     18  C   UNL     1       3.421   3.633  17.317  0.00  0.00    +0.000 C 
ATOM     19  C   UNL     1       4.515   4.037  16.315  0.00  0.00    +0.000 C 
ATOM     20  C   UNL     1       2.601   4.879  17.698  0.00  0.00    +0.000 C 
ATOM     21  C   UNL     1       4.191   5.336  19.587  0.00  0.00    +0.000 C 
ENDBRANCH   6  12
BRANCH   1  23
ATOM     22  O   UNL     1      -0.112  12.664  22.266  0.00  0.00    +0.000 OA
ATOM     23  C   UNL     1      -0.703  11.671  21.857  0.00  0.00    +0.000 C 
ENDBRANCH   1  23
TORSDOF 2
ENDMDL
MODEL 9
REMARK VINA RESULT:      -8.4      4.435      7.072
REMARK  Name = 
REMARK  2 active torsions:
REMARK  status: ('A' for Active; 'I' for Inactive)
REMARK    1  A    between atoms: C_2  and  C_3
REMARK    2  A    between atoms: C_8  and  C_9
REMARK                            x       y       z     vdW  Elec       q    Type
REMARK                         _______ _______ _______ _____ _____    ______ ____
ROOT
ATOM      1  C   UNL     1       0.488  10.982  21.141  0.00  0.00    +0.000 A 
ATOM      2  C   UNL     1       0.302  10.015  22.140  0.00  0.00    +0.000 A 
ATOM      3  C   UNL     1       0.628   8.681  21.883  0.00  0.00    +0.000 A 
ATOM      4  C   UNL     1       1.149   8.323  20.639  0.00  0.00    +0.000 A 
ATOM      5  O   UNL     1       1.481   7.001  20.455  0.00  0.00    +0.000 OA
ATOM      6  C   UNL     1       2.048   6.618  19.243  0.00  0.00    +0.000 A 
ATOM      7  C   UNL     1       2.239   7.470  18.227  0.00  0.00    +0.000 A 
ATOM      8  C   UNL     1       1.888   8.887  18.361  0.00  0.00    +0.000 A 
ATOM      9  O   UNL     1       2.080   9.675  17.452  0.00  0.00    +0.000 OA
ATOM     10  C   UNL     1       1.324   9.291  19.654  0.00  0.00    +0.000 A 
ATOM     11  C   UNL     1       0.993  10.627  19.891  0.00  0.00    +0.000 A 
ENDROOT
BRANCH   6  12
ATOM     12  C   UNL     1       2.442   5.143  19.166  0.00  0.00    +0.000 C 
ATOM     13  C   UNL     1       2.029   4.550  17.793  0.00  0.00    +0.000 C 
ATOM     14  C   UNL     1       2.392   3.058  17.711  0.00  0.00    +0.000 C 
ATOM     15  C   UNL     1       3.909   2.893  17.880  0.00  0.00    +0.000 C 
ATOM     16  C   UNL     1       4.348   3.443  19.245  0.00  0.00    +0.000 C 
ATOM     17  C   UNL     1       3.620   2.682  20.362  0.00  0.00    +0.000 C 
ATOM     18  C   UNL     1       2.101   2.845  20.206  0.00  0.00    +0.000 C 
ATOM     19  C   UNL     1       1.667   2.300  18.835  0.00  0.00    +0.000 C 
ATOM     20  C   UNL     1       1.738   4.338  20.293  0.00  0.00    +0.000 C 
ATOM     21  C   UNL     1       3.979   4.928  19.327  0.00  0.00    +0.000 C 
ENDBRANCH   6  12
BRANCH   1  23
ATOM     22  O   UNL     1       0.774  13.305  20.880  0.00  0.00    +0.000 OA
ATOM     23  C   UNL     1       0.154  12.388  21.407  0.00  0.00    +0.000 C 
ENDBRANCH   1  23
TORSDOF 2
ENDMDL
