MODEL 1
REMARK VINA RESULT:      -6.5      0.000      0.000
REMARK  Name = 
REMARK  17 active torsions:
REMARK  status: ('A' for Active; 'I' for Inactive)
REMARK    1  A    between atoms: C_1  and  O_2
REMARK    2  A    between atoms: O_2  and  C_3
REMARK    3  A    between atoms: C_6  and  C_7
REMARK    4  A    between atoms: C_11  and  O_12
REMARK    5  A    between atoms: O_12  and  C_13
REMARK    6  A    between atoms: C_13  and  C_15
REMARK    7  A    between atoms: C_15  and  C_16
REMARK    8  A    between atoms: C_15  and  C_17
REMARK    9  A    between atoms: C_15  and  C_18
REMARK   10  A    between atoms: N_22  and  C_23
REMARK   11  A    between atoms: C_23  and  C_24
REMARK   12  A    between atoms: C_24  and  N_25
REMARK   13  A    between atoms: N_25  and  C_26
REMARK   14  A    between atoms: N_25  and  C_27
REMARK   15  A    between atoms: C_30  and  O_31
REMARK   16  A    between atoms: O_31  and  C_32
REMARK   17  A    between atoms: C_32  and  C_33
REMARK                            x       y       z     vdW  Elec       q    Type
REMARK                         _______ _______ _______ _____ _____    ______ ____
ROOT
ATOM      1  C   UNL     1      -1.770  12.307  21.176  0.00  0.00    +0.000 C 
ATOM      2  C   UNL     1      -1.033  10.876  21.210  0.00  0.00    +0.000 C 
ATOM      3  C   UNL     1      -0.027  10.263  20.218  0.00  0.00    +0.000 A 
ATOM      4  C   UNL     1       0.680   9.080  20.598  0.00  0.00    +0.000 A 
ATOM      5  C   UNL     1       1.582   8.455  19.715  0.00  0.00    +0.000 A 
ATOM      6  C   UNL     1       1.785   8.964  18.435  0.00  0.00    +0.000 A 
ATOM      7  C   UNL     1       1.079  10.088  18.028  0.00  0.00    +0.000 A 
ATOM      8  C   UNL     1       0.196  10.729  18.910  0.00  0.00    +0.000 A 
ATOM      9  N   UNL     1      -0.369  11.930  18.455  0.00  0.00    +0.000 N 
ATOM     10  C   UNL     1      -0.210  12.980  19.338  0.00  0.00    +0.000 C 
ATOM     11  O   UNL     1       0.901  13.438  19.614  0.00  0.00    +0.000 OA
ATOM     12  C   UNL     1      -1.454  13.378  20.080  0.00  0.00    +0.000 C 
ENDROOT
BRANCH   1  16
ATOM     13  C   UNL     1      -2.244  14.789  24.704  0.00  0.00    +0.000 A 
ATOM     14  C   UNL     1      -0.983  14.630  24.134  0.00  0.00    +0.000 A 
ATOM     15  C   UNL     1      -0.795  13.776  23.041  0.00  0.00    +0.000 A 
ATOM     16  C   UNL     1      -1.864  13.026  22.535  0.00  0.00    +0.000 A 
ATOM     17  C   UNL     1      -3.115  13.131  23.179  0.00  0.00    +0.000 A 
ATOM     18  C   UNL     1      -3.308  14.019  24.247  0.00  0.00    +0.000 A 
BRANCH  13  20
ATOM     19  C   UNL     1      -1.120  15.941  26.425  0.00  0.00    +0.000 C 
ATOM     20  O   UNL     1      -2.326  15.731  25.697  0.00  0.00    +0.000 OA
ENDBRANCH  13  20
ENDBRANCH   1  16
BRANCH   5  21
ATOM     21  O   UNL     1       2.428   7.344  20.024  0.00  0.00    +0.000 OA
BRANCH  21  22
ATOM     22  C   UNL     1       2.049   6.000  20.066  0.00  0.00    +0.000 C 
ATOM     23  O   UNL     1       1.231   5.534  20.846  0.00  0.00    +0.000 OA
BRANCH  22  24
ATOM     24  C   UNL     1       2.780   5.191  18.968  0.00  0.00    +0.000 C 
ATOM     25  C   UNL     1       3.345   3.881  19.531  0.00  0.00    +0.000 C 
ATOM     26  C   UNL     1       1.788   4.849  17.841  0.00  0.00    +0.000 C 
ATOM     27  C   UNL     1       3.927   6.014  18.350  0.00  0.00    +0.000 C 
ENDBRANCH  22  24
ENDBRANCH  21  22
ENDBRANCH   5  21
BRANCH   9  28
ATOM     28  C   UNL     1      -1.508  11.792  17.530  0.00  0.00    +0.000 C 
BRANCH  28  29
ATOM     29  C   UNL     1      -2.237  10.451  17.744  0.00  0.00    +0.000 C 
BRANCH  29  30
ATOM     30  N   UNL     1      -3.380  10.196  16.848  0.00  0.00    +0.000 NA
ATOM     31  C   UNL     1      -4.382  11.262  16.902  0.00  0.00    +0.000 C 
ATOM     32  C   UNL     1      -2.875  10.068  15.474  0.00  0.00    +0.000 C 
ENDBRANCH  29  30
ENDBRANCH  28  29
ENDBRANCH   9  28
BRANCH  12  33
ATOM     33  O   UNL     1      -1.148  14.695  20.612  0.00  0.00    +0.000 OA
BRANCH  33  34
ATOM     34  C   UNL     1      -1.719  15.774  20.026  0.00  0.00    +0.000 C 
ATOM     35  C   UNL     1      -3.017  16.124  20.700  0.00  0.00    +0.000 C 
ATOM     36  O   UNL     1      -1.236  16.415  19.102  0.00  0.00    +0.000 OA
ENDBRANCH  33  34
ENDBRANCH  12  33
TORSDOF 10
ENDMDL
MODEL 2
REMARK VINA RESULT:      -6.3      0.623      1.127
REMARK  Name = 
REMARK  17 active torsions:
REMARK  status: ('A' for Active; 'I' for Inactive)
REMARK    1  A    between atoms: C_1  and  O_2
REMARK    2  A    between atoms: O_2  and  C_3
REMARK    3  A    between atoms: C_6  and  C_7
REMARK    4  A    between atoms: C_11  and  O_12
REMARK    5  A    between atoms: O_12  and  C_13
REMARK    6  A    between atoms: C_13  and  C_15
REMARK    7  A    between atoms: C_15  and  C_16
REMARK    8  A    between atoms: C_15  and  C_17
REMARK    9  A    between atoms: C_15  and  C_18
REMARK   10  A    between atoms: N_22  and  C_23
REMARK   11  A    between atoms: C_23  and  C_24
REMARK   12  A    between atoms: C_24  and  N_25
REMARK   13  A    between atoms: N_25  and  C_26
REMARK   14  A    between atoms: N_25  and  C_27
REMARK   15  A    between atoms: C_30  and  O_31
REMARK   16  A    between atoms: O_31  and  C_32
REMARK   17  A    between atoms: C_32  and  C_33
REMARK                            x       y       z     vdW  Elec       q    Type
REMARK                         _______ _______ _______ _____ _____    ______ ____
ROOT
ATOM      1  C   UNL     1      -1.846  12.327  21.191  0.00  0.00    +0.000 C 
ATOM      2  C   UNL     1      -1.134  10.883  21.210  0.00  0.00    +0.000 C 
ATOM      3  C   UNL     1      -0.109  10.277  20.231  0.00  0.00    +0.000 A 
ATOM      4  C   UNL     1       0.567   9.073  20.602  0.00  0.00    +0.000 A 
ATOM      5  C   UNL     1       1.484   8.456  19.729  0.00  0.00    +0.000 A 
ATOM      6  C   UNL     1       1.732   8.992  18.469  0.00  0.00    +0.000 A 
ATOM      7  C   UNL     1       1.056  10.137  18.070  0.00  0.00    +0.000 A 
ATOM      8  C   UNL     1       0.159  10.771  18.942  0.00  0.00    +0.000 A 
ATOM      9  N   UNL     1      -0.374  11.993  18.502  0.00  0.00    +0.000 N 
ATOM     10  C   UNL     1      -0.223  13.018  19.415  0.00  0.00    +0.000 C 
ATOM     11  O   UNL     1       0.886  13.450  19.734  0.00  0.00    +0.000 OA
ATOM     12  C   UNL     1      -1.481  13.419  20.131  0.00  0.00    +0.000 C 
ENDROOT
BRANCH   1  16
ATOM     13  C   UNL     1      -2.382  14.729  24.765  0.00  0.00    +0.000 A 
ATOM     14  C   UNL     1      -1.109  14.565  24.226  0.00  0.00    +0.000 A 
ATOM     15  C   UNL     1      -0.902  13.736  23.117  0.00  0.00    +0.000 A 
ATOM     16  C   UNL     1      -1.968  13.014  22.564  0.00  0.00    +0.000 A 
ATOM     17  C   UNL     1      -3.234  13.121  23.177  0.00  0.00    +0.000 A 
ATOM     18  C   UNL     1      -3.444  13.985  24.260  0.00  0.00    +0.000 A 
BRANCH  13  20
ATOM     19  C   UNL     1      -2.536  17.005  25.353  0.00  0.00    +0.000 C 
ATOM     20  O   UNL     1      -2.479  15.647  25.778  0.00  0.00    +0.000 OA
ENDBRANCH  13  20
ENDBRANCH   1  16
BRANCH   5  21
ATOM     21  O   UNL     1       2.303   7.323  20.035  0.00  0.00    +0.000 OA
BRANCH  21  22
ATOM     22  C   UNL     1       2.903   6.462  19.114  0.00  0.00    +0.000 C 
ATOM     23  O   UNL     1       3.745   6.800  18.295  0.00  0.00    +0.000 OA
BRANCH  22  24
ATOM     24  C   UNL     1       2.383   5.016  19.297  0.00  0.00    +0.000 C 
ATOM     25  C   UNL     1       1.622   4.542  18.052  0.00  0.00    +0.000 C 
ATOM     26  C   UNL     1       3.576   4.070  19.528  0.00  0.00    +0.000 C 
ATOM     27  C   UNL     1       1.459   4.916  20.525  0.00  0.00    +0.000 C 
ENDBRANCH  22  24
ENDBRANCH  21  22
ENDBRANCH   5  21
BRANCH   9  28
ATOM     28  C   UNL     1      -1.487  11.897  17.541  0.00  0.00    +0.000 C 
BRANCH  28  29
ATOM     29  C   UNL     1      -2.379  10.677  17.846  0.00  0.00    +0.000 C 
BRANCH  29  30
ATOM     30  N   UNL     1      -3.429  10.389  16.851  0.00  0.00    +0.000 NA
ATOM     31  C   UNL     1      -4.532  11.348  16.909  0.00  0.00    +0.000 C 
ATOM     32  C   UNL     1      -2.823  10.421  15.513  0.00  0.00    +0.000 C 
ENDBRANCH  29  30
ENDBRANCH  28  29
ENDBRANCH   9  28
BRANCH  12  33
ATOM     33  O   UNL     1      -1.170  14.717  20.704  0.00  0.00    +0.000 OA
BRANCH  33  34
ATOM     34  C   UNL     1      -1.698  15.821  20.123  0.00  0.00    +0.000 C 
ATOM     35  C   UNL     1      -2.972  16.228  20.808  0.00  0.00    +0.000 C 
ATOM     36  O   UNL     1      -1.195  16.438  19.194  0.00  0.00    +0.000 OA
ENDBRANCH  33  34
ENDBRANCH  12  33
TORSDOF 10
ENDMDL
MODEL 3
REMARK VINA RESULT:      -6.3      5.726      8.142
REMARK  Name = 
REMARK  17 active torsions:
REMARK  status: ('A' for Active; 'I' for Inactive)
REMARK    1  A    between atoms: C_1  and  O_2
REMARK    2  A    between atoms: O_2  and  C_3
REMARK    3  A    between atoms: C_6  and  C_7
REMARK    4  A    between atoms: C_11  and  O_12
REMARK    5  A    between atoms: O_12  and  C_13
REMARK    6  A    between atoms: C_13  and  C_15
REMARK    7  A    between atoms: C_15  and  C_16
REMARK    8  A    between atoms: C_15  and  C_17
REMARK    9  A    between atoms: C_15  and  C_18
REMARK   10  A    between atoms: N_22  and  C_23
REMARK   11  A    between atoms: C_23  and  C_24
REMARK   12  A    between atoms: C_24  and  N_25
REMARK   13  A    between atoms: N_25  and  C_26
REMARK   14  A    between atoms: N_25  and  C_27
REMARK   15  A    between atoms: C_30  and  O_31
REMARK   16  A    between atoms: O_31  and  C_32
REMARK   17  A    between atoms: C_32  and  C_33
REMARK                            x       y       z     vdW  Elec       q    Type
REMARK                         _______ _______ _______ _____ _____    ______ ____
ROOT
ATOM      1  C   UNL     1       1.874  14.359  18.896  0.00  0.00    +0.000 C 
ATOM      2  C   UNL     1       3.301  14.356  18.150  0.00  0.00    +0.000 C 
ATOM      3  C   UNL     1       4.695  14.729  18.690  0.00  0.00    +0.000 A 
ATOM      4  C   UNL     1       5.846  14.402  17.907  0.00  0.00    +0.000 A 
ATOM      5  C   UNL     1       7.141  14.754  18.334  0.00  0.00    +0.000 A 
ATOM      6  C   UNL     1       7.326  15.458  19.521  0.00  0.00    +0.000 A 
ATOM      7  C   UNL     1       6.221  15.824  20.278  0.00  0.00    +0.000 A 
ATOM      8  C   UNL     1       4.930  15.455  19.871  0.00  0.00    +0.000 A 
ATOM      9  N   UNL     1       3.891  15.753  20.766  0.00  0.00    +0.000 N 
ATOM     10  C   UNL     1       3.092  14.665  21.061  0.00  0.00    +0.000 C 
ATOM     11  O   UNL     1       3.526  13.682  21.664  0.00  0.00    +0.000 OA
ATOM     12  C   UNL     1       1.734  14.684  20.420  0.00  0.00    +0.000 C 
ENDROOT
BRANCH   1  16
ATOM     13  C   UNL     1      -0.887  11.029  18.544  0.00  0.00    +0.000 A 
ATOM     14  C   UNL     1       0.463  10.787  18.785  0.00  0.00    +0.000 A 
ATOM     15  C   UNL     1       1.383  11.841  18.830  0.00  0.00    +0.000 A 
ATOM     16  C   UNL     1       0.968  13.155  18.578  0.00  0.00    +0.000 A 
ATOM     17  C   UNL     1      -0.387  13.373  18.247  0.00  0.00    +0.000 A 
ATOM     18  C   UNL     1      -1.310  12.320  18.245  0.00  0.00    +0.000 A 
BRANCH  13  20
ATOM     19  C   UNL     1      -2.766   9.900  17.680  0.00  0.00    +0.000 C 
ATOM     20  O   UNL     1      -1.706   9.934  18.631  0.00  0.00    +0.000 OA
ENDBRANCH  13  20
ENDBRANCH   1  16
BRANCH   5  21
ATOM     21  O   UNL     1       8.366  14.380  17.699  0.00  0.00    +0.000 OA
BRANCH  21  22
ATOM     22  C   UNL     1       8.980  13.127  17.754  0.00  0.00    +0.000 C 
ATOM     23  O   UNL     1       8.409  12.065  17.554  0.00  0.00    +0.000 OA
BRANCH  22  24
ATOM     24  C   UNL     1      10.489  13.270  18.069  0.00  0.00    +0.000 C 
ATOM     25  C   UNL     1      11.238  11.962  17.786  0.00  0.00    +0.000 C 
ATOM     26  C   UNL     1      11.091  14.378  17.184  0.00  0.00    +0.000 C 
ATOM     27  C   UNL     1      10.708  13.673  19.540  0.00  0.00    +0.000 C 
ENDBRANCH  22  24
ENDBRANCH  21  22
ENDBRANCH   5  21
BRANCH   9  28
ATOM     28  C   UNL     1       3.418  17.149  20.757  0.00  0.00    +0.000 C 
BRANCH  28  29
ATOM     29  C   UNL     1       3.752  17.857  22.084  0.00  0.00    +0.000 C 
BRANCH  29  30
ATOM     30  N   UNL     1       2.594  18.216  22.924  0.00  0.00    +0.000 NA
ATOM     31  C   UNL     1       1.330  18.153  22.191  0.00  0.00    +0.000 C 
ATOM     32  C   UNL     1       2.544  17.294  24.067  0.00  0.00    +0.000 C 
ENDBRANCH  29  30
ENDBRANCH  28  29
ENDBRANCH   9  28
BRANCH  12  33
ATOM     33  O   UNL     1       0.971  13.699  21.167  0.00  0.00    +0.000 OA
BRANCH  33  34
ATOM     34  C   UNL     1       0.033  14.137  22.039  0.00  0.00    +0.000 C 
ATOM     35  C   UNL     1      -1.306  13.526  21.736  0.00  0.00    +0.000 C 
ATOM     36  O   UNL     1       0.241  14.894  22.979  0.00  0.00    +0.000 OA
ENDBRANCH  33  34
ENDBRANCH  12  33
TORSDOF 10
ENDMDL
MODEL 4
REMARK VINA RESULT:      -6.3      1.506      1.995
REMARK  Name = 
REMARK  17 active torsions:
REMARK  status: ('A' for Active; 'I' for Inactive)
REMARK    1  A    between atoms: C_1  and  O_2
REMARK    2  A    between atoms: O_2  and  C_3
REMARK    3  A    between atoms: C_6  and  C_7
REMARK    4  A    between atoms: C_11  and  O_12
REMARK    5  A    between atoms: O_12  and  C_13
REMARK    6  A    between atoms: C_13  and  C_15
REMARK    7  A    between atoms: C_15  and  C_16
REMARK    8  A    between atoms: C_15  and  C_17
REMARK    9  A    between atoms: C_15  and  C_18
REMARK   10  A    between atoms: N_22  and  C_23
REMARK   11  A    between atoms: C_23  and  C_24
REMARK   12  A    between atoms: C_24  and  N_25
REMARK   13  A    between atoms: N_25  and  C_26
REMARK   14  A    between atoms: N_25  and  C_27
REMARK   15  A    between atoms: C_30  and  O_31
REMARK   16  A    between atoms: O_31  and  C_32
REMARK   17  A    between atoms: C_32  and  C_33
REMARK                            x       y       z     vdW  Elec       q    Type
REMARK                         _______ _______ _______ _____ _____    ______ ____
ROOT
ATOM      1  C   UNL     1      -2.292  12.235  21.803  0.00  0.00    +0.000 C 
ATOM      2  C   UNL     1      -1.209  11.058  21.609  0.00  0.00    +0.000 C 
ATOM      3  C   UNL     1      -0.590  10.494  20.316  0.00  0.00    +0.000 A 
ATOM      4  C   UNL     1       0.539   9.622  20.418  0.00  0.00    +0.000 A 
ATOM      5  C   UNL     1       1.120   9.047  19.272  0.00  0.00    +0.000 A 
ATOM      6  C   UNL     1       0.587   9.293  18.009  0.00  0.00    +0.000 A 
ATOM      7  C   UNL     1      -0.535  10.103  17.889  0.00  0.00    +0.000 A 
ATOM      8  C   UNL     1      -1.105  10.698  19.024  0.00  0.00    +0.000 A 
ATOM      9  N   UNL     1      -2.151  11.604  18.788  0.00  0.00    +0.000 N 
ATOM     10  C   UNL     1      -1.963  12.830  19.395  0.00  0.00    +0.000 C 
ATOM     11  O   UNL     1      -1.042  13.584  19.071  0.00  0.00    +0.000 OA
ATOM     12  C   UNL     1      -2.824  13.080  20.600  0.00  0.00    +0.000 C 
ENDROOT
BRANCH   1  16
ATOM     13  C   UNL     1      -1.810  15.332  24.804  0.00  0.00    +0.000 A 
ATOM     14  C   UNL     1      -0.766  15.051  23.925  0.00  0.00    +0.000 A 
ATOM     15  C   UNL     1      -0.873  14.007  22.998  0.00  0.00    +0.000 A 
ATOM     16  C   UNL     1      -2.012  13.193  22.976  0.00  0.00    +0.000 A 
ATOM     17  C   UNL     1      -3.022  13.434  23.932  0.00  0.00    +0.000 A 
ATOM     18  C   UNL     1      -2.928  14.506  24.829  0.00  0.00    +0.000 A 
BRANCH  13  20
ATOM     19  C   UNL     1      -2.253  17.627  25.099  0.00  0.00    +0.000 C 
ATOM     20  O   UNL     1      -1.635  16.441  25.589  0.00  0.00    +0.000 OA
ENDBRANCH  13  20
ENDBRANCH   1  16
BRANCH   5  21
ATOM     21  O   UNL     1       2.315   8.260  19.239  0.00  0.00    +0.000 OA
BRANCH  21  22
ATOM     22  C   UNL     1       2.430   6.914  19.594  0.00  0.00    +0.000 C 
ATOM     23  O   UNL     1       1.912   6.409  20.579  0.00  0.00    +0.000 OA
BRANCH  22  24
ATOM     24  C   UNL     1       3.275   6.144  18.550  0.00  0.00    +0.000 C 
ATOM     25  C   UNL     1       3.820   7.092  17.474  0.00  0.00    +0.000 C 
ATOM     26  C   UNL     1       4.467   5.471  19.255  0.00  0.00    +0.000 C 
ATOM     27  C   UNL     1       2.441   5.038  17.876  0.00  0.00    +0.000 C 
ENDBRANCH  22  24
ENDBRANCH  21  22
ENDBRANCH   5  21
BRANCH   9  28
ATOM     28  C   UNL     1      -3.471  11.002  18.529  0.00  0.00    +0.000 C 
BRANCH  28  29
ATOM     29  C   UNL     1      -4.288  11.861  17.543  0.00  0.00    +0.000 C 
BRANCH  29  30
ATOM     30  N   UNL     1      -5.625  12.271  18.011  0.00  0.00    +0.000 NA
ATOM     31  C   UNL     1      -6.315  13.131  17.049  0.00  0.00    +0.000 C 
ATOM     32  C   UNL     1      -6.426  11.063  18.250  0.00  0.00    +0.000 C 
ENDBRANCH  29  30
ENDBRANCH  28  29
ENDBRANCH   9  28
BRANCH  12  33
ATOM     33  O   UNL     1      -2.744  14.517  20.806  0.00  0.00    +0.000 OA
BRANCH  33  34
ATOM     34  C   UNL     1      -3.897  15.222  20.876  0.00  0.00    +0.000 C 
ATOM     35  C   UNL     1      -3.625  16.660  21.218  0.00  0.00    +0.000 C 
ATOM     36  O   UNL     1      -5.014  14.773  20.652  0.00  0.00    +0.000 OA
ENDBRANCH  33  34
ENDBRANCH  12  33
TORSDOF 10
ENDMDL
MODEL 5
REMARK VINA RESULT:      -6.1      3.184      4.794
REMARK  Name = 
REMARK  17 active torsions:
REMARK  status: ('A' for Active; 'I' for Inactive)
REMARK    1  A    between atoms: C_1  and  O_2
REMARK    2  A    between atoms: O_2  and  C_3
REMARK    3  A    between atoms: C_6  and  C_7
REMARK    4  A    between atoms: C_11  and  O_12
REMARK    5  A    between atoms: O_12  and  C_13
REMARK    6  A    between atoms: C_13  and  C_15
REMARK    7  A    between atoms: C_15  and  C_16
REMARK    8  A    between atoms: C_15  and  C_17
REMARK    9  A    between atoms: C_15  and  C_18
REMARK   10  A    between atoms: N_22  and  C_23
REMARK   11  A    between atoms: C_23  and  C_24
REMARK   12  A    between atoms: C_24  and  N_25
REMARK   13  A    between atoms: N_25  and  C_26
REMARK   14  A    between atoms: N_25  and  C_27
REMARK   15  A    between atoms: C_30  and  O_31
REMARK   16  A    between atoms: O_31  and  C_32
REMARK   17  A    between atoms: C_32  and  C_33
REMARK                            x       y       z     vdW  Elec       q    Type
REMARK                         _______ _______ _______ _____ _____    ______ ____
ROOT
ATOM      1  C   UNL     1       1.123  14.550  20.444  0.00  0.00    +0.000 C 
ATOM      2  C   UNL     1       1.615  13.041  20.716  0.00  0.00    +0.000 C 
ATOM      3  C   UNL     1       0.897  11.706  20.436  0.00  0.00    +0.000 A 
ATOM      4  C   UNL     1       1.644  10.491  20.531  0.00  0.00    +0.000 A 
ATOM      5  C   UNL     1       1.029   9.241  20.323  0.00  0.00    +0.000 A 
ATOM      6  C   UNL     1      -0.334   9.160  20.048  0.00  0.00    +0.000 A 
ATOM      7  C   UNL     1      -1.088  10.324  19.992  0.00  0.00    +0.000 A 
ATOM      8  C   UNL     1      -0.478  11.574  20.174  0.00  0.00    +0.000 A 
ATOM      9  N   UNL     1      -1.295  12.697  19.967  0.00  0.00    +0.000 N 
ATOM     10  C   UNL     1      -0.756  13.612  19.084  0.00  0.00    +0.000 C 
ATOM     11  O   UNL     1      -0.576  13.343  17.895  0.00  0.00    +0.000 OA
ATOM     12  C   UNL     1      -0.224  14.867  19.717  0.00  0.00    +0.000 C 
ENDROOT
BRANCH   1  16
ATOM     13  C   UNL     1       4.543  16.913  19.200  0.00  0.00    +0.000 A 
ATOM     14  C   UNL     1       3.686  17.401  20.183  0.00  0.00    +0.000 A 
ATOM     15  C   UNL     1       2.536  16.689  20.547  0.00  0.00    +0.000 A 
ATOM     16  C   UNL     1       2.202  15.499  19.889  0.00  0.00    +0.000 A 
ATOM     17  C   UNL     1       3.033  15.064  18.835  0.00  0.00    +0.000 A 
ATOM     18  C   UNL     1       4.204  15.758  18.503  0.00  0.00    +0.000 A 
BRANCH  13  20
ATOM     19  C   UNL     1       6.592  17.643  20.108  0.00  0.00    +0.000 C 
ATOM     20  O   UNL     1       5.689  17.639  19.005  0.00  0.00    +0.000 OA
ENDBRANCH  13  20
ENDBRANCH   1  16
BRANCH   5  21
ATOM     21  O   UNL     1       1.693   7.975  20.277  0.00  0.00    +0.000 OA
BRANCH  21  22
ATOM     22  C   UNL     1       2.337   7.417  19.170  0.00  0.00    +0.000 C 
ATOM     23  O   UNL     1       2.740   8.054  18.208  0.00  0.00    +0.000 OA
BRANCH  22  24
ATOM     24  C   UNL     1       2.503   5.888  19.346  0.00  0.00    +0.000 C 
ATOM     25  C   UNL     1       1.704   5.383  20.554  0.00  0.00    +0.000 C 
ATOM     26  C   UNL     1       1.986   5.171  18.085  0.00  0.00    +0.000 C 
ATOM     27  C   UNL     1       3.986   5.513  19.525  0.00  0.00    +0.000 C 
ENDBRANCH  22  24
ENDBRANCH  21  22
ENDBRANCH   5  21
BRANCH   9  28
ATOM     28  C   UNL     1      -2.190  13.051  21.083  0.00  0.00    +0.000 C 
BRANCH  28  29
ATOM     29  C   UNL     1      -3.667  12.825  20.704  0.00  0.00    +0.000 C 
BRANCH  29  30
ATOM     30  N   UNL     1      -4.563  12.461  21.817  0.00  0.00    +0.000 NA
ATOM     31  C   UNL     1      -4.368  13.309  22.993  0.00  0.00    +0.000 C 
ATOM     32  C   UNL     1      -5.952  12.578  21.353  0.00  0.00    +0.000 C 
ENDBRANCH  29  30
ENDBRANCH  28  29
ENDBRANCH   9  28
BRANCH  12  33
ATOM     33  O   UNL     1      -0.094  15.798  18.609  0.00  0.00    +0.000 OA
BRANCH  33  34
ATOM     34  C   UNL     1      -0.835  16.931  18.631  0.00  0.00    +0.000 C 
ATOM     35  C   UNL     1      -0.393  17.880  17.552  0.00  0.00    +0.000 C 
ATOM     36  O   UNL     1      -1.769  17.150  19.391  0.00  0.00    +0.000 OA
ENDBRANCH  33  34
ENDBRANCH  12  33
TORSDOF 10
ENDMDL
MODEL 6
REMARK VINA RESULT:      -6.1      4.144      8.161
REMARK  Name = 
REMARK  17 active torsions:
REMARK  status: ('A' for Active; 'I' for Inactive)
REMARK    1  A    between atoms: C_1  and  O_2
REMARK    2  A    between atoms: O_2  and  C_3
REMARK    3  A    between atoms: C_6  and  C_7
REMARK    4  A    between atoms: C_11  and  O_12
REMARK    5  A    between atoms: O_12  and  C_13
REMARK    6  A    between atoms: C_13  and  C_15
REMARK    7  A    between atoms: C_15  and  C_16
REMARK    8  A    between atoms: C_15  and  C_17
REMARK    9  A    between atoms: C_15  and  C_18
REMARK   10  A    between atoms: N_22  and  C_23
REMARK   11  A    between atoms: C_23  and  C_24
REMARK   12  A    between atoms: C_24  and  N_25
REMARK   13  A    between atoms: N_25  and  C_26
REMARK   14  A    between atoms: N_25  and  C_27
REMARK   15  A    between atoms: C_30  and  O_31
REMARK   16  A    between atoms: O_31  and  C_32
REMARK   17  A    between atoms: C_32  and  C_33
REMARK                            x       y       z     vdW  Elec       q    Type
REMARK                         _______ _______ _______ _____ _____    ______ ____
ROOT
ATOM      1  C   UNL     1      -1.402  13.653  19.859  0.00  0.00    +0.000 C 
ATOM      2  C   UNL     1      -0.286  14.547  19.118  0.00  0.00    +0.000 C 
ATOM      3  C   UNL     1       0.968  15.231  19.694  0.00  0.00    +0.000 A 
ATOM      4  C   UNL     1       1.941  15.758  18.789  0.00  0.00    +0.000 A 
ATOM      5  C   UNL     1       3.087  16.428  19.260  0.00  0.00    +0.000 A 
ATOM      6  C   UNL     1       3.283  16.618  20.625  0.00  0.00    +0.000 A 
ATOM      7  C   UNL     1       2.331  16.152  21.523  0.00  0.00    +0.000 A 
ATOM      8  C   UNL     1       1.199  15.463  21.062  0.00  0.00    +0.000 A 
ATOM      9  N   UNL     1       0.364  14.916  22.048  0.00  0.00    +0.000 N 
ATOM     10  C   UNL     1       0.099  13.574  21.860  0.00  0.00    +0.000 C 
ATOM     11  O   UNL     1       0.984  12.718  21.928  0.00  0.00    +0.000 OA
ATOM     12  C   UNL     1      -1.287  13.264  21.370  0.00  0.00    +0.000 C 
ENDROOT
BRANCH   1  16
ATOM     13  C   UNL     1      -2.710  10.494  17.186  0.00  0.00    +0.000 A 
ATOM     14  C   UNL     1      -3.637  11.142  17.998  0.00  0.00    +0.000 A 
ATOM     15  C   UNL     1      -3.227  12.113  18.920  0.00  0.00    +0.000 A 
ATOM     16  C   UNL     1      -1.867  12.409  19.078  0.00  0.00    +0.000 A 
ATOM     17  C   UNL     1      -0.933  11.681  18.312  0.00  0.00    +0.000 A 
ATOM     18  C   UNL     1      -1.352  10.741  17.361  0.00  0.00    +0.000 A 
BRANCH  13  20
ATOM     19  C   UNL     1      -2.988  10.013  14.896  0.00  0.00    +0.000 C 
ATOM     20  O   UNL     1      -3.239   9.645  16.250  0.00  0.00    +0.000 OA
ENDBRANCH  13  20
ENDBRANCH   1  16
BRANCH   5  21
ATOM     21  O   UNL     1       4.179  16.890  18.460  0.00  0.00    +0.000 OA
BRANCH  21  22
ATOM     22  C   UNL     1       5.512  17.003  18.862  0.00  0.00    +0.000 C 
ATOM     23  O   UNL     1       6.019  18.023  19.303  0.00  0.00    +0.000 OA
BRANCH  22  24
ATOM     24  C   UNL     1       6.246  15.649  18.706  0.00  0.00    +0.000 C 
ATOM     25  C   UNL     1       5.474  14.707  17.774  0.00  0.00    +0.000 C 
ATOM     26  C   UNL     1       7.643  15.893  18.104  0.00  0.00    +0.000 C 
ATOM     27  C   UNL     1       6.436  14.967  20.074  0.00  0.00    +0.000 C 
ENDBRANCH  22  24
ENDBRANCH  21  22
ENDBRANCH   5  21
BRANCH   9  28
ATOM     28  C   UNL     1      -0.563  15.860  22.697  0.00  0.00    +0.000 C 
BRANCH  28  29
ATOM     29  C   UNL     1      -0.032  16.302  24.075  0.00  0.00    +0.000 C 
BRANCH  29  30
ATOM     30  N   UNL     1      -0.655  15.646  25.240  0.00  0.00    +0.000 NA
ATOM     31  C   UNL     1      -0.855  16.566  26.359  0.00  0.00    +0.000 C 
ATOM     32  C   UNL     1      -1.951  15.094  24.823  0.00  0.00    +0.000 C 
ENDBRANCH  29  30
ENDBRANCH  28  29
ENDBRANCH   9  28
BRANCH  12  33
ATOM     33  O   UNL     1      -1.449  11.843  21.628  0.00  0.00    +0.000 OA
BRANCH  33  34
ATOM     34  C   UNL     1      -1.684  11.444  22.901  0.00  0.00    +0.000 C 
ATOM     35  C   UNL     1      -2.976  12.019  23.411  0.00  0.00    +0.000 C 
ATOM     36  O   UNL     1      -0.973  10.683  23.545  0.00  0.00    +0.000 OA
ENDBRANCH  33  34
ENDBRANCH  12  33
TORSDOF 10
ENDMDL
MODEL 7
REMARK VINA RESULT:      -6.1      5.591      8.230
REMARK  Name = 
REMARK  17 active torsions:
REMARK  status: ('A' for Active; 'I' for Inactive)
REMARK    1  A    between atoms: C_1  and  O_2
REMARK    2  A    between atoms: O_2  and  C_3
REMARK    3  A    between atoms: C_6  and  C_7
REMARK    4  A    between atoms: C_11  and  O_12
REMARK    5  A    between atoms: O_12  and  C_13
REMARK    6  A    between atoms: C_13  and  C_15
REMARK    7  A    between atoms: C_15  and  C_16
REMARK    8  A    between atoms: C_15  and  C_17
REMARK    9  A    between atoms: C_15  and  C_18
REMARK   10  A    between atoms: N_22  and  C_23
REMARK   11  A    between atoms: C_23  and  C_24
REMARK   12  A    between atoms: C_24  and  N_25
REMARK   13  A    between atoms: N_25  and  C_26
REMARK   14  A    between atoms: N_25  and  C_27
REMARK   15  A    between atoms: C_30  and  O_31
REMARK   16  A    between atoms: O_31  and  C_32
REMARK   17  A    between atoms: C_32  and  C_33
REMARK                            x       y       z     vdW  Elec       q    Type
REMARK                         _______ _______ _______ _____ _____    ______ ____
ROOT
ATOM      1  C   UNL     1       1.394  14.185  18.961  0.00  0.00    +0.000 C 
ATOM      2  C   UNL     1       2.800  14.369  18.198  0.00  0.00    +0.000 C 
ATOM      3  C   UNL     1       4.178  14.772  18.757  0.00  0.00    +0.000 A 
ATOM      4  C   UNL     1       5.330  14.620  17.923  0.00  0.00    +0.000 A 
ATOM      5  C   UNL     1       6.607  15.010  18.369  0.00  0.00    +0.000 A 
ATOM      6  C   UNL     1       6.773  15.580  19.628  0.00  0.00    +0.000 A 
ATOM      7  C   UNL     1       5.664  15.777  20.440  0.00  0.00    +0.000 A 
ATOM      8  C   UNL     1       4.391  15.370  20.011  0.00  0.00    +0.000 A 
ATOM      9  N   UNL     1       3.356  15.487  20.952  0.00  0.00    +0.000 N 
ATOM     10  C   UNL     1       2.639  14.319  21.127  0.00  0.00    +0.000 C 
ATOM     11  O   UNL     1       3.153  13.304  21.602  0.00  0.00    +0.000 OA
ATOM     12  C   UNL     1       1.268  14.318  20.514  0.00  0.00    +0.000 C 
ENDROOT
BRANCH   1  16
ATOM     13  C   UNL     1      -1.200  10.783  18.233  0.00  0.00    +0.000 A 
ATOM     14  C   UNL     1       0.134  10.575  18.579  0.00  0.00    +0.000 A 
ATOM     15  C   UNL     1       1.006  11.657  18.746  0.00  0.00    +0.000 A 
ATOM     16  C   UNL     1       0.564  12.966  18.516  0.00  0.00    +0.000 A 
ATOM     17  C   UNL     1      -0.765  13.153  18.079  0.00  0.00    +0.000 A 
ATOM     18  C   UNL     1      -1.645  12.070  17.954  0.00  0.00    +0.000 A 
BRANCH  13  20
ATOM     19  C   UNL     1      -3.252   9.825  17.583  0.00  0.00    +0.000 C 
ATOM     20  O   UNL     1      -1.981   9.657  18.204  0.00  0.00    +0.000 OA
ENDBRANCH  13  20
ENDBRANCH   1  16
BRANCH   5  21
ATOM     21  O   UNL     1       7.840  14.799  17.675  0.00  0.00    +0.000 OA
BRANCH  21  22
ATOM     22  C   UNL     1       8.817  13.851  17.989  0.00  0.00    +0.000 C 
ATOM     23  O   UNL     1       8.598  12.662  18.166  0.00  0.00    +0.000 OA
BRANCH  22  24
ATOM     24  C   UNL     1      10.218  14.508  18.046  0.00  0.00    +0.000 C 
ATOM     25  C   UNL     1      10.163  15.966  17.573  0.00  0.00    +0.000 C 
ATOM     26  C   UNL     1      10.732  14.485  19.498  0.00  0.00    +0.000 C 
ATOM     27  C   UNL     1      11.225  13.730  17.178  0.00  0.00    +0.000 C 
ENDBRANCH  22  24
ENDBRANCH  21  22
ENDBRANCH   5  21
BRANCH   9  28
ATOM     28  C   UNL     1       2.790  16.838  21.115  0.00  0.00    +0.000 C 
BRANCH  28  29
ATOM     29  C   UNL     1       3.016  17.364  22.546  0.00  0.00    +0.000 C 
BRANCH  29  30
ATOM     30  N   UNL     1       2.117  16.815  23.578  0.00  0.00    +0.000 NA
ATOM     31  C   UNL     1       2.247  17.507  24.860  0.00  0.00    +0.000 C 
ATOM     32  C   UNL     1       0.733  16.930  23.098  0.00  0.00    +0.000 C 
ENDBRANCH  29  30
ENDBRANCH  28  29
ENDBRANCH   9  28
BRANCH  12  33
ATOM     33  O   UNL     1       0.591  13.201  21.150  0.00  0.00    +0.000 OA
BRANCH  33  34
ATOM     34  C   UNL     1      -0.374  13.468  22.061  0.00  0.00    +0.000 C 
ATOM     35  C   UNL     1      -1.621  13.969  21.388  0.00  0.00    +0.000 C 
ATOM     36  O   UNL     1      -0.275  13.289  23.268  0.00  0.00    +0.000 OA
ENDBRANCH  33  34
ENDBRANCH  12  33
TORSDOF 10
ENDMDL
MODEL 8
REMARK VINA RESULT:      -6.0      2.471      3.942
REMARK  Name = 
REMARK  17 active torsions:
REMARK  status: ('A' for Active; 'I' for Inactive)
REMARK    1  A    between atoms: C_1  and  O_2
REMARK    2  A    between atoms: O_2  and  C_3
REMARK    3  A    between atoms: C_6  and  C_7
REMARK    4  A    between atoms: C_11  and  O_12
REMARK    5  A    between atoms: O_12  and  C_13
REMARK    6  A    between atoms: C_13  and  C_15
REMARK    7  A    between atoms: C_15  and  C_16
REMARK    8  A    between atoms: C_15  and  C_17
REMARK    9  A    between atoms: C_15  and  C_18
REMARK   10  A    between atoms: N_22  and  C_23
REMARK   11  A    between atoms: C_23  and  C_24
REMARK   12  A    between atoms: C_24  and  N_25
REMARK   13  A    between atoms: N_25  and  C_26
REMARK   14  A    between atoms: N_25  and  C_27
REMARK   15  A    between atoms: C_30  and  O_31
REMARK   16  A    between atoms: O_31  and  C_32
REMARK   17  A    between atoms: C_32  and  C_33
REMARK                            x       y       z     vdW  Elec       q    Type
REMARK                         _______ _______ _______ _____ _____    ______ ____
ROOT
ATOM      1  C   UNL     1      -1.985  13.560  20.420  0.00  0.00    +0.000 C 
ATOM      2  C   UNL     1      -1.536  12.167  19.749  0.00  0.00    +0.000 C 
ATOM      3  C   UNL     1      -0.141  11.700  19.291  0.00  0.00    +0.000 A 
ATOM      4  C   UNL     1       0.048  10.323  18.959  0.00  0.00    +0.000 A 
ATOM      5  C   UNL     1       1.292   9.849  18.497  0.00  0.00    +0.000 A 
ATOM      6  C   UNL     1       2.362  10.724  18.327  0.00  0.00    +0.000 A 
ATOM      7  C   UNL     1       2.191  12.073  18.604  0.00  0.00    +0.000 A 
ATOM      8  C   UNL     1       0.962  12.548  19.086  0.00  0.00    +0.000 A 
ATOM      9  N   UNL     1       0.926  13.900  19.462  0.00  0.00    +0.000 N 
ATOM     10  C   UNL     1       0.437  14.101  20.738  0.00  0.00    +0.000 C 
ATOM     11  O   UNL     1       1.030  13.688  21.737  0.00  0.00    +0.000 OA
ATOM     12  C   UNL     1      -0.952  14.670  20.803  0.00  0.00    +0.000 C 
ENDROOT
BRANCH   1  16
ATOM     13  C   UNL     1      -4.949  12.663  23.460  0.00  0.00    +0.000 A 
ATOM     14  C   UNL     1      -5.299  13.445  22.362  0.00  0.00    +0.000 A 
ATOM     15  C   UNL     1      -4.341  13.808  21.407  0.00  0.00    +0.000 A 
ATOM     16  C   UNL     1      -3.001  13.434  21.571  0.00  0.00    +0.000 A 
ATOM     17  C   UNL     1      -2.646  12.718  22.734  0.00  0.00    +0.000 A 
ATOM     18  C   UNL     1      -3.616  12.322  23.665  0.00  0.00    +0.000 A 
BRANCH  13  20
ATOM     19  C   UNL     1      -7.127  13.140  24.224  0.00  0.00    +0.000 C 
ATOM     20  O   UNL     1      -5.990  12.282  24.266  0.00  0.00    +0.000 OA
ENDBRANCH  13  20
ENDBRANCH   1  16
BRANCH   5  21
ATOM     21  O   UNL     1       1.631   8.482  18.247  0.00  0.00    +0.000 OA
BRANCH  21  22
ATOM     22  C   UNL     1       2.135   7.570  19.177  0.00  0.00    +0.000 C 
ATOM     23  O   UNL     1       1.923   7.617  20.380  0.00  0.00    +0.000 OA
BRANCH  22  24
ATOM     24  C   UNL     1       2.969   6.474  18.471  0.00  0.00    +0.000 C 
ATOM     25  C   UNL     1       3.864   7.077  17.382  0.00  0.00    +0.000 C 
ATOM     26  C   UNL     1       3.868   5.771  19.506  0.00  0.00    +0.000 C 
ATOM     27  C   UNL     1       2.053   5.406  17.843  0.00  0.00    +0.000 C 
ENDBRANCH  22  24
ENDBRANCH  21  22
ENDBRANCH   5  21
BRANCH   9  28
ATOM     28  C   UNL     1       0.786  14.868  18.360  0.00  0.00    +0.000 C 
BRANCH  28  29
ATOM     29  C   UNL     1       1.407  16.228  18.733  0.00  0.00    +0.000 C 
BRANCH  29  30
ATOM     30  N   UNL     1       2.868  16.330  18.562  0.00  0.00    +0.000 NA
ATOM     31  C   UNL     1       3.603  15.824  19.721  0.00  0.00    +0.000 C 
ATOM     32  C   UNL     1       3.251  15.567  17.367  0.00  0.00    +0.000 C 
ENDBRANCH  29  30
ENDBRANCH  28  29
ENDBRANCH   9  28
BRANCH  12  33
ATOM     33  O   UNL     1      -1.079  15.150  22.168  0.00  0.00    +0.000 OA
BRANCH  33  34
ATOM     34  C   UNL     1      -1.080  16.487  22.383  0.00  0.00    +0.000 C 
ATOM     35  C   UNL     1      -2.293  17.127  21.768  0.00  0.00    +0.000 C 
ATOM     36  O   UNL     1      -0.237  17.100  23.025  0.00  0.00    +0.000 OA
ENDBRANCH  33  34
ENDBRANCH  12  33
TORSDOF 10
ENDMDL
MODEL 9
REMARK VINA RESULT:      -6.0      1.223      1.670
REMARK  Name = 
REMARK  17 active torsions:
REMARK  status: ('A' for Active; 'I' for Inactive)
REMARK    1  A    between atoms: C_1  and  O_2
REMARK    2  A    between atoms: O_2  and  C_3
REMARK    3  A    between atoms: C_6  and  C_7
REMARK    4  A    between atoms: C_11  and  O_12
REMARK    5  A    between atoms: O_12  and  C_13
REMARK    6  A    between atoms: C_13  and  C_15
REMARK    7  A    between atoms: C_15  and  C_16
REMARK    8  A    between atoms: C_15  and  C_17
REMARK    9  A    between atoms: C_15  and  C_18
REMARK   10  A    between atoms: N_22  and  C_23
REMARK   11  A    between atoms: C_23  and  C_24
REMARK   12  A    between atoms: C_24  and  N_25
REMARK   13  A    between atoms: N_25  and  C_26
REMARK   14  A    between atoms: N_25  and  C_27
REMARK   15  A    between atoms: C_30  and  O_31
REMARK   16  A    between atoms: O_31  and  C_32
REMARK   17  A    between atoms: C_32  and  C_33
REMARK                            x       y       z     vdW  Elec       q    Type
REMARK                         _______ _______ _______ _____ _____    ______ ____
ROOT
ATOM      1  C   UNL     1      -2.273  12.399  21.884  0.00  0.00    +0.000 C 
ATOM      2  C   UNL     1      -1.262  11.149  21.805  0.00  0.00    +0.000 C 
ATOM      3  C   UNL     1      -0.541  10.541  20.587  0.00  0.00    +0.000 A 
ATOM      4  C   UNL     1       0.505   9.592  20.810  0.00  0.00    +0.000 A 
ATOM      5  C   UNL     1       1.171   8.975  19.733  0.00  0.00    +0.000 A 
ATOM      6  C   UNL     1       0.803   9.258  18.420  0.00  0.00    +0.000 A 
ATOM      7  C   UNL     1      -0.237  10.145  18.179  0.00  0.00    +0.000 A 
ATOM      8  C   UNL     1      -0.889  10.781  19.246  0.00  0.00    +0.000 A 
ATOM      9  N   UNL     1      -1.835  11.758  18.899  0.00  0.00    +0.000 N 
ATOM     10  C   UNL     1      -1.631  12.968  19.533  0.00  0.00    +0.000 C 
ATOM     11  O   UNL     1      -0.629  13.654  19.321  0.00  0.00    +0.000 OA
ATOM     12  C   UNL     1      -2.604  13.280  20.634  0.00  0.00    +0.000 C 
ENDROOT
BRANCH   1  16
ATOM     13  C   UNL     1      -1.961  15.443  24.961  0.00  0.00    +0.000 A 
ATOM     14  C   UNL     1      -0.866  15.169  24.145  0.00  0.00    +0.000 A 
ATOM     15  C   UNL     1      -0.921  14.141  23.196  0.00  0.00    +0.000 A 
ATOM     16  C   UNL     1      -2.062  13.336  23.088  0.00  0.00    +0.000 A 
ATOM     17  C   UNL     1      -3.129  13.569  23.982  0.00  0.00    +0.000 A 
ATOM     18  C   UNL     1      -3.085  14.625  24.901  0.00  0.00    +0.000 A 
BRANCH  13  20
ATOM     19  C   UNL     1      -0.706  16.503  26.650  0.00  0.00    +0.000 C 
ATOM     20  O   UNL     1      -1.829  16.538  25.774  0.00  0.00    +0.000 OA
ENDBRANCH  13  20
ENDBRANCH   1  16
BRANCH   5  21
ATOM     21  O   UNL     1       2.302   8.106  19.830  0.00  0.00    +0.000 OA
BRANCH  21  22
ATOM     22  C   UNL     1       2.813   7.293  18.816  0.00  0.00    +0.000 C 
ATOM     23  O   UNL     1       3.345   7.707  17.797  0.00  0.00    +0.000 OA
BRANCH  22  24
ATOM     24  C   UNL     1       2.644   5.797  19.176  0.00  0.00    +0.000 C 
ATOM     25  C   UNL     1       4.003   5.134  19.431  0.00  0.00    +0.000 C 
ATOM     26  C   UNL     1       1.794   5.674  20.455  0.00  0.00    +0.000 C 
ATOM     27  C   UNL     1       1.912   5.040  18.051  0.00  0.00    +0.000 C 
ENDBRANCH  22  24
ENDBRANCH  21  22
ENDBRANCH   5  21
BRANCH   9  28
ATOM     28  C   UNL     1      -3.157  11.252  18.487  0.00  0.00    +0.000 C 
BRANCH  28  29
ATOM     29  C   UNL     1      -3.055  10.427  17.189  0.00  0.00    +0.000 C 
BRANCH  29  30
ATOM     30  N   UNL     1      -3.455  11.128  15.955  0.00  0.00    +0.000 NA
ATOM     31  C   UNL     1      -3.467  10.245  14.789  0.00  0.00    +0.000 C 
ATOM     32  C   UNL     1      -4.797  11.693  16.155  0.00  0.00    +0.000 C 
ENDBRANCH  29  30
ENDBRANCH  28  29
ENDBRANCH   9  28
BRANCH  12  33
ATOM     33  O   UNL     1      -2.447  14.707  20.858  0.00  0.00    +0.000 OA
BRANCH  33  34
ATOM     34  C   UNL     1      -3.560  15.475  20.922  0.00  0.00    +0.000 C 
ATOM     35  C   UNL     1      -3.227  16.859  21.403  0.00  0.00    +0.000 C 
ATOM     36  O   UNL     1      -4.684  15.118  20.595  0.00  0.00    +0.000 OA
ENDBRANCH  33  34
ENDBRANCH  12  33
TORSDOF 10
ENDMDL
