MODEL 1
REMARK VINA RESULT:      -6.5      0.000      0.000
REMARK  Name = 
REMARK  17 active torsions:
REMARK  status: ('A' for Active; 'I' for Inactive)
REMARK    1  A    between atoms: C_1  and  C_2
REMARK    2  A    between atoms: C_2  and  N_3
REMARK    3  A    between atoms: C_4  and  C_5
REMARK    4  A    between atoms: C_5  and  C_6
REMARK    5  A    between atoms: C_6  and  C_7
REMARK    6  A    between atoms: C_7  and  C_8
REMARK    7  A    between atoms: C_8  and  C_9
REMARK    8  A    between atoms: C_9  and  C_10
REMARK    9  A    between atoms: C_10  and  C_11
REMARK   10  A    between atoms: C_11  and  C_12
REMARK   11  A    between atoms: C_12  and  C_13
REMARK   12  A    between atoms: C_13  and  C_14
REMARK   13  A    between atoms: C_14  and  C_15
REMARK   14  A    between atoms: C_15  and  C_16
REMARK   15  A    between atoms: C_16  and  C_17
REMARK   16  A    between atoms: N_22  and  C_23
REMARK   17  A    between atoms: C_23  and  C_24
REMARK                            x       y       z     vdW  Elec       q    Type
REMARK                         _______ _______ _______ _____ _____    ______ ____
ROOT
ATOM      1  C   UNL     1       2.304   4.097  20.804  0.00  0.00    +0.000 C 
ENDROOT
BRANCH   1   2
ATOM      2  C   UNL     1       1.725   2.731  20.417  0.00  0.00    +0.000 C 
BRANCH   2   3
ATOM      3  C   UNL     1       2.249   2.218  19.069  0.00  0.00    +0.000 C 
BRANCH   3   4
ATOM      4  C   UNL     1       1.808   3.078  17.880  0.00  0.00    +0.000 C 
BRANCH   4   5
ATOM      5  C   UNL     1       2.951   3.872  17.243  0.00  0.00    +0.000 C 
BRANCH   5   6
ATOM      6  C   UNL     1       4.320   3.267  17.560  0.00  0.00    +0.000 C 
BRANCH   6   8
ATOM      7  N   UNL     1       5.867   4.995  16.672  0.00  0.00    +0.000 N 
ATOM      8  C   UNL     1       5.398   4.299  17.714  0.00  0.00    +0.000 A 
ATOM      9  N   UNL     1       5.970   4.588  18.838  0.00  0.00    +0.000 NA
ATOM     10  O   UNL     1       6.931   5.585  18.515  0.00  0.00    +0.000 OA
ATOM     11  C   UNL     1       6.832   5.799  17.169  0.00  0.00    +0.000 A 
ATOM     12  O   UNL     1       7.519   6.583  16.535  0.00  0.00    +0.000 OA
BRANCH   7  14
ATOM     13  C   UNL     1       6.323   3.957  14.476  0.00  0.00    +0.000 C 
ATOM     14  C   UNL     1       5.487   4.956  15.268  0.00  0.00    +0.000 C 
ENDBRANCH   7  14
ENDBRANCH   6   8
ENDBRANCH   5   6
ENDBRANCH   4   5
ENDBRANCH   3   4
ENDBRANCH   2   3
ENDBRANCH   1   2
BRANCH   1  15
ATOM     15  C   UNL     1       1.322   5.254  20.589  0.00  0.00    +0.000 C 
BRANCH  15  16
ATOM     16  C   UNL     1       1.989   6.631  20.566  0.00  0.00    +0.000 C 
BRANCH  16  17
ATOM     17  C   UNL     1       2.869   6.870  19.340  0.00  0.00    +0.000 C 
BRANCH  17  18
ATOM     18  C   UNL     1       2.090   7.302  18.090  0.00  0.00    +0.000 C 
BRANCH  18  19
ATOM     19  C   UNL     1       2.226   8.814  17.928  0.00  0.00    +0.000 C 
BRANCH  19  20
ATOM     20  C   UNL     1       0.940   9.610  18.082  0.00  0.00    +0.000 C 
BRANCH  20  21
ATOM     21  C   UNL     1       0.582  10.176  19.435  0.00  0.00    +0.000 A 
ATOM     22  N   UNL     1      -0.234   9.521  20.198  0.00  0.00    +0.000 NA
ATOM     23  O   UNL     1      -0.444  10.350  21.329  0.00  0.00    +0.000 OA
ATOM     24  C   UNL     1       0.298  11.479  21.112  0.00  0.00    +0.000 A 
ATOM     25  O   UNL     1       0.341  12.431  21.878  0.00  0.00    +0.000 OA
ATOM     26  N   UNL     1       0.956  11.351  19.933  0.00  0.00    +0.000 N 
BRANCH  26  27
ATOM     27  C   UNL     1       1.875  12.378  19.471  0.00  0.00    +0.000 C 
ATOM     28  C   UNL     1       1.241  13.381  18.519  0.00  0.00    +0.000 C 
ENDBRANCH  26  27
ENDBRANCH  20  21
ENDBRANCH  19  20
ENDBRANCH  18  19
ENDBRANCH  17  18
ENDBRANCH  16  17
ENDBRANCH  15  16
ENDBRANCH   1  15
TORSDOF 15
ENDMDL
MODEL 2
REMARK VINA RESULT:      -6.5      1.380      8.129
REMARK  Name = 
REMARK  17 active torsions:
REMARK  status: ('A' for Active; 'I' for Inactive)
REMARK    1  A    between atoms: C_1  and  C_2
REMARK    2  A    between atoms: C_2  and  N_3
REMARK    3  A    between atoms: C_4  and  C_5
REMARK    4  A    between atoms: C_5  and  C_6
REMARK    5  A    between atoms: C_6  and  C_7
REMARK    6  A    between atoms: C_7  and  C_8
REMARK    7  A    between atoms: C_8  and  C_9
REMARK    8  A    between atoms: C_9  and  C_10
REMARK    9  A    between atoms: C_10  and  C_11
REMARK   10  A    between atoms: C_11  and  C_12
REMARK   11  A    between atoms: C_12  and  C_13
REMARK   12  A    between atoms: C_13  and  C_14
REMARK   13  A    between atoms: C_14  and  C_15
REMARK   14  A    between atoms: C_15  and  C_16
REMARK   15  A    between atoms: C_16  and  C_17
REMARK   16  A    between atoms: N_22  and  C_23
REMARK   17  A    between atoms: C_23  and  C_24
REMARK                            x       y       z     vdW  Elec       q    Type
REMARK                         _______ _______ _______ _____ _____    ______ ____
ROOT
ATOM      1  C   UNL     1       1.436   6.340  20.634  0.00  0.00    +0.000 C 
ENDROOT
BRANCH   1   2
ATOM      2  C   UNL     1       2.270   7.419  19.932  0.00  0.00    +0.000 C 
BRANCH   2   3
ATOM      3  C   UNL     1       2.403   7.185  18.422  0.00  0.00    +0.000 C 
BRANCH   3   4
ATOM      4  C   UNL     1       2.365   8.479  17.603  0.00  0.00    +0.000 C 
BRANCH   4   5
ATOM      5  C   UNL     1       1.752   9.661  18.356  0.00  0.00    +0.000 C 
BRANCH   5   6
ATOM      6  C   UNL     1       0.227   9.699  18.229  0.00  0.00    +0.000 C 
BRANCH   6   8
ATOM      7  N   UNL     1      -0.722  10.756  20.266  0.00  0.00    +0.000 N 
ATOM      8  C   UNL     1      -0.398  10.843  18.970  0.00  0.00    +0.000 A 
ATOM      9  N   UNL     1      -0.690  11.982  18.432  0.00  0.00    +0.000 NA
ATOM     10  O   UNL     1      -1.277  12.743  19.480  0.00  0.00    +0.000 OA
ATOM     11  C   UNL     1      -1.278  11.944  20.588  0.00  0.00    +0.000 A 
ATOM     12  O   UNL     1      -1.724  12.262  21.679  0.00  0.00    +0.000 OA
BRANCH   7  14
ATOM     13  C   UNL     1       0.727   9.785  22.017  0.00  0.00    +0.000 C 
ATOM     14  C   UNL     1      -0.556   9.656  21.205  0.00  0.00    +0.000 C 
ENDBRANCH   7  14
ENDBRANCH   6   8
ENDBRANCH   5   6
ENDBRANCH   4   5
ENDBRANCH   3   4
ENDBRANCH   2   3
ENDBRANCH   1   2
BRANCH   1  15
ATOM     15  C   UNL     1       2.132   4.974  20.682  0.00  0.00    +0.000 C 
BRANCH  15  16
ATOM     16  C   UNL     1       1.170   3.790  20.576  0.00  0.00    +0.000 C 
BRANCH  16  17
ATOM     17  C   UNL     1       1.507   2.818  19.446  0.00  0.00    +0.000 C 
BRANCH  17  18
ATOM     18  C   UNL     1       1.253   3.385  18.043  0.00  0.00    +0.000 C 
BRANCH  18  19
ATOM     19  C   UNL     1       2.593   3.783  17.428  0.00  0.00    +0.000 C 
BRANCH  19  20
ATOM     20  C   UNL     1       3.806   3.030  17.949  0.00  0.00    +0.000 C 
BRANCH  20  21
ATOM     21  C   UNL     1       5.082   3.789  18.225  0.00  0.00    +0.000 A 
ATOM     22  N   UNL     1       5.411   4.047  19.450  0.00  0.00    +0.000 NA
ATOM     23  O   UNL     1       6.580   4.845  19.369  0.00  0.00    +0.000 OA
ATOM     24  C   UNL     1       6.839   4.998  18.034  0.00  0.00    +0.000 A 
ATOM     25  O   UNL     1       7.769   5.653  17.585  0.00  0.00    +0.000 OA
ATOM     26  N   UNL     1       5.908   4.313  17.325  0.00  0.00    +0.000 N 
BRANCH  26  27
ATOM     27  C   UNL     1       5.969   4.245  15.874  0.00  0.00    +0.000 C 
ATOM     28  C   UNL     1       5.362   5.454  15.180  0.00  0.00    +0.000 C 
ENDBRANCH  26  27
ENDBRANCH  20  21
ENDBRANCH  19  20
ENDBRANCH  18  19
ENDBRANCH  17  18
ENDBRANCH  16  17
ENDBRANCH  15  16
ENDBRANCH   1  15
TORSDOF 15
ENDMDL
MODEL 3
REMARK VINA RESULT:      -6.4      1.149      1.478
REMARK  Name = 
REMARK  17 active torsions:
REMARK  status: ('A' for Active; 'I' for Inactive)
REMARK    1  A    between atoms: C_1  and  C_2
REMARK    2  A    between atoms: C_2  and  N_3
REMARK    3  A    between atoms: C_4  and  C_5
REMARK    4  A    between atoms: C_5  and  C_6
REMARK    5  A    between atoms: C_6  and  C_7
REMARK    6  A    between atoms: C_7  and  C_8
REMARK    7  A    between atoms: C_8  and  C_9
REMARK    8  A    between atoms: C_9  and  C_10
REMARK    9  A    between atoms: C_10  and  C_11
REMARK   10  A    between atoms: C_11  and  C_12
REMARK   11  A    between atoms: C_12  and  C_13
REMARK   12  A    between atoms: C_13  and  C_14
REMARK   13  A    between atoms: C_14  and  C_15
REMARK   14  A    between atoms: C_15  and  C_16
REMARK   15  A    between atoms: C_16  and  C_17
REMARK   16  A    between atoms: N_22  and  C_23
REMARK   17  A    between atoms: C_23  and  C_24
REMARK                            x       y       z     vdW  Elec       q    Type
REMARK                         _______ _______ _______ _____ _____    ______ ____
ROOT
ATOM      1  C   UNL     1       1.658   5.421  20.754  0.00  0.00    +0.000 C 
ENDROOT
BRANCH   1   2
ATOM      2  C   UNL     1       1.302   3.930  20.753  0.00  0.00    +0.000 C 
BRANCH   2   3
ATOM      3  C   UNL     1       1.384   3.296  19.358  0.00  0.00    +0.000 C 
BRANCH   3   4
ATOM      4  C   UNL     1       2.342   2.101  19.291  0.00  0.00    +0.000 C 
BRANCH   4   5
ATOM      5  C   UNL     1       3.096   1.997  17.964  0.00  0.00    +0.000 C 
BRANCH   5   6
ATOM      6  C   UNL     1       3.437   3.371  17.384  0.00  0.00    +0.000 C 
BRANCH   6   8
ATOM      7  N   UNL     1       5.574   4.593  17.058  0.00  0.00    +0.000 N 
ATOM      8  C   UNL     1       4.757   3.901  17.860  0.00  0.00    +0.000 A 
ATOM      9  N   UNL     1       5.220   3.725  19.054  0.00  0.00    +0.000 NA
ATOM     10  O   UNL     1       6.489   4.365  19.054  0.00  0.00    +0.000 OA
ATOM     11  C   UNL     1       6.664   4.882  17.801  0.00  0.00    +0.000 A 
ATOM     12  O   UNL     1       7.654   5.491  17.428  0.00  0.00    +0.000 OA
BRANCH   7  14
ATOM     13  C   UNL     1       5.995   3.960  14.706  0.00  0.00    +0.000 C 
ATOM     14  C   UNL     1       5.412   4.990  15.666  0.00  0.00    +0.000 C 
ENDBRANCH   7  14
ENDBRANCH   6   8
ENDBRANCH   5   6
ENDBRANCH   4   5
ENDBRANCH   3   4
ENDBRANCH   2   3
ENDBRANCH   1   2
BRANCH   1  15
ATOM     15  C   UNL     1       2.091   5.942  19.378  0.00  0.00    +0.000 C 
BRANCH  15  16
ATOM     16  C   UNL     1       2.285   7.458  19.327  0.00  0.00    +0.000 C 
BRANCH  16  17
ATOM     17  C   UNL     1       2.766   7.975  17.972  0.00  0.00    +0.000 C 
BRANCH  17  18
ATOM     18  C   UNL     1       2.137   9.312  17.559  0.00  0.00    +0.000 C 
BRANCH  18  19
ATOM     19  C   UNL     1       0.690   9.343  18.047  0.00  0.00    +0.000 C 
BRANCH  19  20
ATOM     20  C   UNL     1       0.265  10.612  18.767  0.00  0.00    +0.000 C 
BRANCH  20  21
ATOM     21  C   UNL     1      -0.026  10.557  20.247  0.00  0.00    +0.000 A 
ATOM     22  N   UNL     1      -0.315   9.418  20.792  0.00  0.00    +0.000 NA
ATOM     23  O   UNL     1      -0.631   9.713  22.142  0.00  0.00    +0.000 OA
ATOM     24  C   UNL     1      -0.500  11.069  22.272  0.00  0.00    +0.000 A 
ATOM     25  O   UNL     1      -0.718  11.684  23.306  0.00  0.00    +0.000 OA
ATOM     26  N   UNL     1      -0.098  11.587  21.085  0.00  0.00    +0.000 N 
BRANCH  26  27
ATOM     27  C   UNL     1       0.183  13.006  20.942  0.00  0.00    +0.000 C 
ATOM     28  C   UNL     1       1.668  13.334  20.922  0.00  0.00    +0.000 C 
ENDBRANCH  26  27
ENDBRANCH  20  21
ENDBRANCH  19  20
ENDBRANCH  18  19
ENDBRANCH  17  18
ENDBRANCH  16  17
ENDBRANCH  15  16
ENDBRANCH   1  15
TORSDOF 15
ENDMDL
MODEL 4
REMARK VINA RESULT:      -6.3      1.706      2.498
REMARK  Name = 
REMARK  17 active torsions:
REMARK  status: ('A' for Active; 'I' for Inactive)
REMARK    1  A    between atoms: C_1  and  C_2
REMARK    2  A    between atoms: C_2  and  N_3
REMARK    3  A    between atoms: C_4  and  C_5
REMARK    4  A    between atoms: C_5  and  C_6
REMARK    5  A    between atoms: C_6  and  C_7
REMARK    6  A    between atoms: C_7  and  C_8
REMARK    7  A    between atoms: C_8  and  C_9
REMARK    8  A    between atoms: C_9  and  C_10
REMARK    9  A    between atoms: C_10  and  C_11
REMARK   10  A    between atoms: C_11  and  C_12
REMARK   11  A    between atoms: C_12  and  C_13
REMARK   12  A    between atoms: C_13  and  C_14
REMARK   13  A    between atoms: C_14  and  C_15
REMARK   14  A    between atoms: C_15  and  C_16
REMARK   15  A    between atoms: C_16  and  C_17
REMARK   16  A    between atoms: N_22  and  C_23
REMARK   17  A    between atoms: C_23  and  C_24
REMARK                            x       y       z     vdW  Elec       q    Type
REMARK                         _______ _______ _______ _____ _____    ______ ____
ROOT
ATOM      1  C   UNL     1       0.885   3.536  19.757  0.00  0.00    +0.000 C 
ENDROOT
BRANCH   1   2
ATOM      2  C   UNL     1       1.252   2.176  19.152  0.00  0.00    +0.000 C 
BRANCH   2   3
ATOM      3  C   UNL     1       2.763   1.911  19.143  0.00  0.00    +0.000 C 
BRANCH   3   4
ATOM      4  C   UNL     1       3.398   2.068  17.757  0.00  0.00    +0.000 C 
BRANCH   4   5
ATOM      5  C   UNL     1       3.226   3.467  17.161  0.00  0.00    +0.000 C 
BRANCH   5   6
ATOM      6  C   UNL     1       4.468   4.338  17.363  0.00  0.00    +0.000 C 
BRANCH   6   8
ATOM      7  N   UNL     1       6.518   5.014  16.135  0.00  0.00    +0.000 N 
ATOM      8  C   UNL     1       5.284   4.498  16.114  0.00  0.00    +0.000 A 
ATOM      9  N   UNL     1       4.870   4.176  14.932  0.00  0.00    +0.000 NA
ATOM     10  O   UNL     1       5.942   4.516  14.063  0.00  0.00    +0.000 OA
ATOM     11  C   UNL     1       6.933   5.032  14.850  0.00  0.00    +0.000 A 
ATOM     12  O   UNL     1       8.005   5.448  14.441  0.00  0.00    +0.000 OA
BRANCH   7  14
ATOM     13  C   UNL     1       7.193   6.995  17.449  0.00  0.00    +0.000 C 
ATOM     14  C   UNL     1       7.320   5.489  17.253  0.00  0.00    +0.000 C 
ENDBRANCH   7  14
ENDBRANCH   6   8
ENDBRANCH   5   6
ENDBRANCH   4   5
ENDBRANCH   3   4
ENDBRANCH   2   3
ENDBRANCH   1   2
BRANCH   1  15
ATOM     15  C   UNL     1       1.837   3.976  20.876  0.00  0.00    +0.000 C 
BRANCH  15  16
ATOM     16  C   UNL     1       1.974   5.494  21.004  0.00  0.00    +0.000 C 
BRANCH  16  17
ATOM     17  C   UNL     1       2.352   6.193  19.699  0.00  0.00    +0.000 C 
BRANCH  17  18
ATOM     18  C   UNL     1       2.001   7.687  19.671  0.00  0.00    +0.000 C 
BRANCH  18  19
ATOM     19  C   UNL     1       2.340   8.241  18.289  0.00  0.00    +0.000 C 
BRANCH  19  20
ATOM     20  C   UNL     1       1.277   9.125  17.656  0.00  0.00    +0.000 C 
BRANCH  20  21
ATOM     21  C   UNL     1       0.659  10.234  18.473  0.00  0.00    +0.000 A 
ATOM     22  N   UNL     1       1.431  11.052  19.114  0.00  0.00    +0.000 NA
ATOM     23  O   UNL     1       0.563  11.894  19.853  0.00  0.00    +0.000 OA
ATOM     24  C   UNL     1      -0.707  11.465  19.571  0.00  0.00    +0.000 A 
ATOM     25  O   UNL     1      -1.719  11.952  20.055  0.00  0.00    +0.000 OA
ATOM     26  N   UNL     1      -0.637  10.440  18.688  0.00  0.00    +0.000 N 
BRANCH  26  27
ATOM     27  C   UNL     1      -1.842   9.822  18.157  0.00  0.00    +0.000 C 
ATOM     28  C   UNL     1      -2.159  10.233  16.728  0.00  0.00    +0.000 C 
ENDBRANCH  26  27
ENDBRANCH  20  21
ENDBRANCH  19  20
ENDBRANCH  18  19
ENDBRANCH  17  18
ENDBRANCH  16  17
ENDBRANCH  15  16
ENDBRANCH   1  15
TORSDOF 15
ENDMDL
MODEL 5
REMARK VINA RESULT:      -6.2      5.554      7.418
REMARK  Name = 
REMARK  17 active torsions:
REMARK  status: ('A' for Active; 'I' for Inactive)
REMARK    1  A    between atoms: C_1  and  C_2
REMARK    2  A    between atoms: C_2  and  N_3
REMARK    3  A    between atoms: C_4  and  C_5
REMARK    4  A    between atoms: C_5  and  C_6
REMARK    5  A    between atoms: C_6  and  C_7
REMARK    6  A    between atoms: C_7  and  C_8
REMARK    7  A    between atoms: C_8  and  C_9
REMARK    8  A    between atoms: C_9  and  C_10
REMARK    9  A    between atoms: C_10  and  C_11
REMARK   10  A    between atoms: C_11  and  C_12
REMARK   11  A    between atoms: C_12  and  C_13
REMARK   12  A    between atoms: C_13  and  C_14
REMARK   13  A    between atoms: C_14  and  C_15
REMARK   14  A    between atoms: C_15  and  C_16
REMARK   15  A    between atoms: C_16  and  C_17
REMARK   16  A    between atoms: N_22  and  C_23
REMARK   17  A    between atoms: C_23  and  C_24
REMARK                            x       y       z     vdW  Elec       q    Type
REMARK                         _______ _______ _______ _____ _____    ______ ____
ROOT
ATOM      1  C   UNL     1       7.566   5.282  18.185  0.00  0.00    +0.000 C 
ENDROOT
BRANCH   1   2
ATOM      2  C   UNL     1       6.661   5.409  19.416  0.00  0.00    +0.000 C 
BRANCH   2   3
ATOM      3  C   UNL     1       5.283   4.766  19.217  0.00  0.00    +0.000 C 
BRANCH   3   4
ATOM      4  C   UNL     1       4.121   5.736  19.453  0.00  0.00    +0.000 C 
BRANCH   4   5
ATOM      5  C   UNL     1       3.509   6.282  18.160  0.00  0.00    +0.000 C 
BRANCH   5   6
ATOM      6  C   UNL     1       2.071   5.803  17.955  0.00  0.00    +0.000 C 
BRANCH   6   8
ATOM      7  N   UNL     1       1.498   3.638  19.027  0.00  0.00    +0.000 N 
ATOM      8  C   UNL     1       1.941   4.309  17.958  0.00  0.00    +0.000 A 
ATOM      9  N   UNL     1       2.256   3.552  16.957  0.00  0.00    +0.000 NA
ATOM     10  O   UNL     1       1.999   2.227  17.404  0.00  0.00    +0.000 OA
ATOM     11  C   UNL     1       1.537   2.331  18.686  0.00  0.00    +0.000 A 
ATOM     12  O   UNL     1       1.228   1.388  19.395  0.00  0.00    +0.000 OA
BRANCH   7  14
ATOM     13  C   UNL     1       1.989   3.692  21.449  0.00  0.00    +0.000 C 
ATOM     14  C   UNL     1       1.053   4.124  20.325  0.00  0.00    +0.000 C 
ENDBRANCH   7  14
ENDBRANCH   6   8
ENDBRANCH   5   6
ENDBRANCH   4   5
ENDBRANCH   3   4
ENDBRANCH   2   3
ENDBRANCH   1   2
BRANCH   1  15
ATOM     15  C   UNL     1       7.117   6.160  17.011  0.00  0.00    +0.000 C 
BRANCH  15  16
ATOM     16  C   UNL     1       6.956   7.637  17.374  0.00  0.00    +0.000 C 
BRANCH  16  17
ATOM     17  C   UNL     1       8.219   8.274  17.952  0.00  0.00    +0.000 C 
BRANCH  17  18
ATOM     18  C   UNL     1       8.214   9.808  17.916  0.00  0.00    +0.000 C 
BRANCH  18  19
ATOM     19  C   UNL     1       9.205  10.324  18.957  0.00  0.00    +0.000 C 
BRANCH  19  20
ATOM     20  C   UNL     1      10.245  11.307  18.444  0.00  0.00    +0.000 C 
BRANCH  20  21
ATOM     21  C   UNL     1      10.014  12.788  18.632  0.00  0.00    +0.000 A 
ATOM     22  N   UNL     1       9.807  13.532  17.593  0.00  0.00    +0.000 NA
ATOM     23  O   UNL     1       9.731  14.859  18.085  0.00  0.00    +0.000 OA
ATOM     24  C   UNL     1       9.919  14.770  19.438  0.00  0.00    +0.000 A 
ATOM     25  O   UNL     1       9.939  15.732  20.193  0.00  0.00    +0.000 OA
ATOM     26  N   UNL     1      10.072  13.466  19.774  0.00  0.00    +0.000 N 
BRANCH  26  27
ATOM     27  C   UNL     1      10.228  13.062  21.162  0.00  0.00    +0.000 C 
ATOM     28  C   UNL     1       8.913  12.748  21.858  0.00  0.00    +0.000 C 
ENDBRANCH  26  27
ENDBRANCH  20  21
ENDBRANCH  19  20
ENDBRANCH  18  19
ENDBRANCH  17  18
ENDBRANCH  16  17
ENDBRANCH  15  16
ENDBRANCH   1  15
TORSDOF 15
ENDMDL
MODEL 6
REMARK VINA RESULT:      -6.2      1.986      8.270
REMARK  Name = 
REMARK  17 active torsions:
REMARK  status: ('A' for Active; 'I' for Inactive)
REMARK    1  A    between atoms: C_1  and  C_2
REMARK    2  A    between atoms: C_2  and  N_3
REMARK    3  A    between atoms: C_4  and  C_5
REMARK    4  A    between atoms: C_5  and  C_6
REMARK    5  A    between atoms: C_6  and  C_7
REMARK    6  A    between atoms: C_7  and  C_8
REMARK    7  A    between atoms: C_8  and  C_9
REMARK    8  A    between atoms: C_9  and  C_10
REMARK    9  A    between atoms: C_10  and  C_11
REMARK   10  A    between atoms: C_11  and  C_12
REMARK   11  A    between atoms: C_12  and  C_13
REMARK   12  A    between atoms: C_13  and  C_14
REMARK   13  A    between atoms: C_14  and  C_15
REMARK   14  A    between atoms: C_15  and  C_16
REMARK   15  A    between atoms: C_16  and  C_17
REMARK   16  A    between atoms: N_22  and  C_23
REMARK   17  A    between atoms: C_23  and  C_24
REMARK                            x       y       z     vdW  Elec       q    Type
REMARK                         _______ _______ _______ _____ _____    ______ ____
ROOT
ATOM      1  C   UNL     1       2.680   6.021  19.689  0.00  0.00    +0.000 C 
ENDROOT
BRANCH   1   2
ATOM      2  C   UNL     1       2.141   7.454  19.607  0.00  0.00    +0.000 C 
BRANCH   2   3
ATOM      3  C   UNL     1       2.338   8.091  18.225  0.00  0.00    +0.000 C 
BRANCH   3   4
ATOM      4  C   UNL     1       1.356   9.232  17.938  0.00  0.00    +0.000 C 
BRANCH   4   5
ATOM      5  C   UNL     1       1.070  10.112  19.157  0.00  0.00    +0.000 C 
BRANCH   5   6
ATOM      6  C   UNL     1       0.466  11.462  18.765  0.00  0.00    +0.000 C 
BRANCH   6   8
ATOM      7  N   UNL     1       1.273  13.728  19.380  0.00  0.00    +0.000 N 
ATOM      8  C   UNL     1       1.473  12.572  18.736  0.00  0.00    +0.000 A 
ATOM      9  N   UNL     1       2.591  12.520  18.088  0.00  0.00    +0.000 NA
ATOM     10  O   UNL     1       3.208  13.780  18.318  0.00  0.00    +0.000 OA
ATOM     11  C   UNL     1       2.356  14.491  19.116  0.00  0.00    +0.000 A 
ATOM     12  O   UNL     1       2.552  15.630  19.507  0.00  0.00    +0.000 OA
BRANCH   7  14
ATOM     13  C   UNL     1       0.365  13.825  21.677  0.00  0.00    +0.000 C 
ATOM     14  C   UNL     1       0.156  14.163  20.206  0.00  0.00    +0.000 C 
ENDBRANCH   7  14
ENDBRANCH   6   8
ENDBRANCH   5   6
ENDBRANCH   4   5
ENDBRANCH   3   4
ENDBRANCH   2   3
ENDBRANCH   1   2
BRANCH   1  15
ATOM     15  C   UNL     1       1.885   5.129  20.650  0.00  0.00    +0.000 C 
BRANCH  15  16
ATOM     16  C   UNL     1       1.078   4.036  19.949  0.00  0.00    +0.000 C 
BRANCH  16  17
ATOM     17  C   UNL     1       1.478   3.811  18.491  0.00  0.00    +0.000 C 
BRANCH  17  18
ATOM     18  C   UNL     1       1.967   2.387  18.194  0.00  0.00    +0.000 C 
BRANCH  18  19
ATOM     19  C   UNL     1       3.494   2.380  18.215  0.00  0.00    +0.000 C 
BRANCH  19  20
ATOM     20  C   UNL     1       4.168   3.478  17.408  0.00  0.00    +0.000 C 
BRANCH  20  21
ATOM     21  C   UNL     1       5.339   4.219  18.008  0.00  0.00    +0.000 A 
ATOM     22  N   UNL     1       5.634   4.032  19.255  0.00  0.00    +0.000 NA
ATOM     23  O   UNL     1       6.694   4.931  19.534  0.00  0.00    +0.000 OA
ATOM     24  C   UNL     1       6.932   5.606  18.367  0.00  0.00    +0.000 A 
ATOM     25  O   UNL     1       7.772   6.484  18.241  0.00  0.00    +0.000 OA
ATOM     26  N   UNL     1       6.093   5.137  17.410  0.00  0.00    +0.000 N 
BRANCH  26  27
ATOM     27  C   UNL     1       6.162   5.629  16.044  0.00  0.00    +0.000 C 
ATOM     28  C   UNL     1       6.911   4.703  15.099  0.00  0.00    +0.000 C 
ENDBRANCH  26  27
ENDBRANCH  20  21
ENDBRANCH  19  20
ENDBRANCH  18  19
ENDBRANCH  17  18
ENDBRANCH  16  17
ENDBRANCH  15  16
ENDBRANCH   1  15
TORSDOF 15
ENDMDL
MODEL 7
REMARK VINA RESULT:      -6.1      1.647      8.017
REMARK  Name = 
REMARK  17 active torsions:
REMARK  status: ('A' for Active; 'I' for Inactive)
REMARK    1  A    between atoms: C_1  and  C_2
REMARK    2  A    between atoms: C_2  and  N_3
REMARK    3  A    between atoms: C_4  and  C_5
REMARK    4  A    between atoms: C_5  and  C_6
REMARK    5  A    between atoms: C_6  and  C_7
REMARK    6  A    between atoms: C_7  and  C_8
REMARK    7  A    between atoms: C_8  and  C_9
REMARK    8  A    between atoms: C_9  and  C_10
REMARK    9  A    between atoms: C_10  and  C_11
REMARK   10  A    between atoms: C_11  and  C_12
REMARK   11  A    between atoms: C_12  and  C_13
REMARK   12  A    between atoms: C_13  and  C_14
REMARK   13  A    between atoms: C_14  and  C_15
REMARK   14  A    between atoms: C_15  and  C_16
REMARK   15  A    between atoms: C_16  and  C_17
REMARK   16  A    between atoms: N_22  and  C_23
REMARK   17  A    between atoms: C_23  and  C_24
REMARK                            x       y       z     vdW  Elec       q    Type
REMARK                         _______ _______ _______ _____ _____    ______ ____
ROOT
ATOM      1  C   UNL     1       1.100   4.750  20.500  0.00  0.00    +0.000 C 
ENDROOT
BRANCH   1   2
ATOM      2  C   UNL     1       1.853   5.476  19.379  0.00  0.00    +0.000 C 
BRANCH   2   3
ATOM      3  C   UNL     1       2.623   6.707  19.874  0.00  0.00    +0.000 C 
BRANCH   3   4
ATOM      4  C   UNL     1       1.754   7.965  19.975  0.00  0.00    +0.000 C 
BRANCH   4   5
ATOM      5  C   UNL     1       1.396   8.346  21.413  0.00  0.00    +0.000 C 
BRANCH   5   6
ATOM      6  C   UNL     1      -0.098   8.636  21.578  0.00  0.00    +0.000 C 
BRANCH   6   8
ATOM      7  N   UNL     1      -0.681  11.016  21.180  0.00  0.00    +0.000 N 
ATOM      8  C   UNL     1      -0.379  10.036  22.038  0.00  0.00    +0.000 A 
ATOM      9  N   UNL     1      -0.337  10.414  23.274  0.00  0.00    +0.000 NA
ATOM     10  O   UNL     1      -0.641  11.802  23.243  0.00  0.00    +0.000 OA
ATOM     11  C   UNL     1      -0.841  12.128  21.931  0.00  0.00    +0.000 A 
ATOM     12  O   UNL     1      -1.109  13.246  21.521  0.00  0.00    +0.000 OA
BRANCH   7  14
ATOM     13  C   UNL     1       0.478  11.356  19.024  0.00  0.00    +0.000 C 
ATOM     14  C   UNL     1      -0.821  10.989  19.732  0.00  0.00    +0.000 C 
ENDBRANCH   7  14
ENDBRANCH   6   8
ENDBRANCH   5   6
ENDBRANCH   4   5
ENDBRANCH   3   4
ENDBRANCH   2   3
ENDBRANCH   1   2
BRANCH   1  15
ATOM     15  C   UNL     1       1.160   3.222  20.378  0.00  0.00    +0.000 C 
BRANCH  15  16
ATOM     16  C   UNL     1       1.038   2.715  18.940  0.00  0.00    +0.000 C 
BRANCH  16  17
ATOM     17  C   UNL     1       2.024   1.601  18.591  0.00  0.00    +0.000 C 
BRANCH  17  18
ATOM     18  C   UNL     1       3.481   2.072  18.484  0.00  0.00    +0.000 C 
BRANCH  18  19
ATOM     19  C   UNL     1       3.545   3.242  17.505  0.00  0.00    +0.000 C 
BRANCH  19  20
ATOM     20  C   UNL     1       4.916   3.531  16.915  0.00  0.00    +0.000 C 
BRANCH  20  21
ATOM     21  C   UNL     1       5.321   4.964  16.661  0.00  0.00    +0.000 A 
ATOM     22  N   UNL     1       5.127   5.477  15.488  0.00  0.00    +0.000 NA
ATOM     23  O   UNL     1       5.697   6.774  15.542  0.00  0.00    +0.000 OA
ATOM     24  C   UNL     1       6.208   6.908  16.805  0.00  0.00    +0.000 A 
ATOM     25  O   UNL     1       6.799   7.901  17.204  0.00  0.00    +0.000 OA
ATOM     26  N   UNL     1       5.947   5.777  17.506  0.00  0.00    +0.000 N 
BRANCH  26  27
ATOM     27  C   UNL     1       6.321   5.659  18.906  0.00  0.00    +0.000 C 
ATOM     28  C   UNL     1       7.818   5.511  19.127  0.00  0.00    +0.000 C 
ENDBRANCH  26  27
ENDBRANCH  20  21
ENDBRANCH  19  20
ENDBRANCH  18  19
ENDBRANCH  17  18
ENDBRANCH  16  17
ENDBRANCH  15  16
ENDBRANCH   1  15
TORSDOF 15
ENDMDL
MODEL 8
REMARK VINA RESULT:      -6.1      1.290      1.668
REMARK  Name = 
REMARK  17 active torsions:
REMARK  status: ('A' for Active; 'I' for Inactive)
REMARK    1  A    between atoms: C_1  and  C_2
REMARK    2  A    between atoms: C_2  and  N_3
REMARK    3  A    between atoms: C_4  and  C_5
REMARK    4  A    between atoms: C_5  and  C_6
REMARK    5  A    between atoms: C_6  and  C_7
REMARK    6  A    between atoms: C_7  and  C_8
REMARK    7  A    between atoms: C_8  and  C_9
REMARK    8  A    between atoms: C_9  and  C_10
REMARK    9  A    between atoms: C_10  and  C_11
REMARK   10  A    between atoms: C_11  and  C_12
REMARK   11  A    between atoms: C_12  and  C_13
REMARK   12  A    between atoms: C_13  and  C_14
REMARK   13  A    between atoms: C_14  and  C_15
REMARK   14  A    between atoms: C_15  and  C_16
REMARK   15  A    between atoms: C_16  and  C_17
REMARK   16  A    between atoms: N_22  and  C_23
REMARK   17  A    between atoms: C_23  and  C_24
REMARK                            x       y       z     vdW  Elec       q    Type
REMARK                         _______ _______ _______ _____ _____    ______ ____
ROOT
ATOM      1  C   UNL     1       2.440   4.449  21.073  0.00  0.00    +0.000 C 
ENDROOT
BRANCH   1   2
ATOM      2  C   UNL     1       2.191   2.955  21.311  0.00  0.00    +0.000 C 
BRANCH   2   3
ATOM      3  C   UNL     1       2.855   2.061  20.255  0.00  0.00    +0.000 C 
BRANCH   3   4
ATOM      4  C   UNL     1       2.121   2.064  18.910  0.00  0.00    +0.000 C 
BRANCH   4   5
ATOM      5  C   UNL     1       3.029   2.381  17.720  0.00  0.00    +0.000 C 
BRANCH   5   6
ATOM      6  C   UNL     1       3.382   3.868  17.643  0.00  0.00    +0.000 C 
BRANCH   6   8
ATOM      7  N   UNL     1       5.650   4.567  16.914  0.00  0.00    +0.000 N 
ATOM      8  C   UNL     1       4.836   4.142  17.887  0.00  0.00    +0.000 A 
ATOM      9  N   UNL     1       5.423   3.978  19.027  0.00  0.00    +0.000 NA
ATOM     10  O   UNL     1       6.781   4.328  18.795  0.00  0.00    +0.000 OA
ATOM     11  C   UNL     1       6.872   4.680  17.477  0.00  0.00    +0.000 A 
ATOM     12  O   UNL     1       7.900   5.026  16.916  0.00  0.00    +0.000 OA
BRANCH   7  14
ATOM     13  C   UNL     1       5.974   3.823  14.579  0.00  0.00    +0.000 C 
ATOM     14  C   UNL     1       5.371   4.863  15.516  0.00  0.00    +0.000 C 
ENDBRANCH   7  14
ENDBRANCH   6   8
ENDBRANCH   5   6
ENDBRANCH   4   5
ENDBRANCH   3   4
ENDBRANCH   2   3
ENDBRANCH   1   2
BRANCH   1  15
ATOM     15  C   UNL     1       1.223   5.180  20.494  0.00  0.00    +0.000 C 
BRANCH  15  16
ATOM     16  C   UNL     1       1.443   6.682  20.302  0.00  0.00    +0.000 C 
BRANCH  16  17
ATOM     17  C   UNL     1       2.839   7.043  19.796  0.00  0.00    +0.000 C 
BRANCH  17  18
ATOM     18  C   UNL     1       2.908   7.284  18.282  0.00  0.00    +0.000 C 
BRANCH  18  19
ATOM     19  C   UNL     1       1.652   8.037  17.850  0.00  0.00    +0.000 C 
BRANCH  19  20
ATOM     20  C   UNL     1       1.613   9.513  18.210  0.00  0.00    +0.000 C 
BRANCH  20  21
ATOM     21  C   UNL     1       0.323  10.114  18.715  0.00  0.00    +0.000 A 
ATOM     22  N   UNL     1      -0.701  10.168  17.924  0.00  0.00    +0.000 NA
ATOM     23  O   UNL     1      -1.701  10.867  18.644  0.00  0.00    +0.000 OA
ATOM     24  C   UNL     1      -1.142  11.184  19.853  0.00  0.00    +0.000 A 
ATOM     25  O   UNL     1      -1.715  11.814  20.730  0.00  0.00    +0.000 OA
ATOM     26  N   UNL     1       0.119  10.688  19.897  0.00  0.00    +0.000 N 
BRANCH  26  27
ATOM     27  C   UNL     1       0.937  10.821  21.091  0.00  0.00    +0.000 C 
ATOM     28  C   UNL     1       0.706   9.719  22.113  0.00  0.00    +0.000 C 
ENDBRANCH  26  27
ENDBRANCH  20  21
ENDBRANCH  19  20
ENDBRANCH  18  19
ENDBRANCH  17  18
ENDBRANCH  16  17
ENDBRANCH  15  16
ENDBRANCH   1  15
TORSDOF 15
ENDMDL
MODEL 9
REMARK VINA RESULT:      -6.0      2.275      8.925
REMARK  Name = 
REMARK  17 active torsions:
REMARK  status: ('A' for Active; 'I' for Inactive)
REMARK    1  A    between atoms: C_1  and  C_2
REMARK    2  A    between atoms: C_2  and  N_3
REMARK    3  A    between atoms: C_4  and  C_5
REMARK    4  A    between atoms: C_5  and  C_6
REMARK    5  A    between atoms: C_6  and  C_7
REMARK    6  A    between atoms: C_7  and  C_8
REMARK    7  A    between atoms: C_8  and  C_9
REMARK    8  A    between atoms: C_9  and  C_10
REMARK    9  A    between atoms: C_10  and  C_11
REMARK   10  A    between atoms: C_11  and  C_12
REMARK   11  A    between atoms: C_12  and  C_13
REMARK   12  A    between atoms: C_13  and  C_14
REMARK   13  A    between atoms: C_14  and  C_15
REMARK   14  A    between atoms: C_15  and  C_16
REMARK   15  A    between atoms: C_16  and  C_17
REMARK   16  A    between atoms: N_22  and  C_23
REMARK   17  A    between atoms: C_23  and  C_24
REMARK                            x       y       z     vdW  Elec       q    Type
REMARK                         _______ _______ _______ _____ _____    ______ ____
ROOT
ATOM      1  C   UNL     1       2.687   7.391  18.858  0.00  0.00    +0.000 C 
ENDROOT
BRANCH   1   2
ATOM      2  C   UNL     1       2.219   8.326  17.737  0.00  0.00    +0.000 C 
BRANCH   2   3
ATOM      3  C   UNL     1       1.124   9.301  18.187  0.00  0.00    +0.000 C 
BRANCH   3   4
ATOM      4  C   UNL     1       1.621  10.742  18.341  0.00  0.00    +0.000 C 
BRANCH   4   5
ATOM      5  C   UNL     1       0.812  11.563  19.348  0.00  0.00    +0.000 C 
BRANCH   5   6
ATOM      6  C   UNL     1      -0.112  12.570  18.661  0.00  0.00    +0.000 C 
BRANCH   6   8
ATOM      7  N   UNL     1      -2.434  11.827  18.190  0.00  0.00    +0.000 N 
ATOM      8  C   UNL     1      -1.556  12.391  19.027  0.00  0.00    +0.000 A 
ATOM      9  N   UNL     1      -2.071  12.771  20.151  0.00  0.00    +0.000 NA
ATOM     10  O   UNL     1      -3.448  12.430  20.057  0.00  0.00    +0.000 OA
ATOM     11  C   UNL     1      -3.624  11.854  18.830  0.00  0.00    +0.000 A 
ATOM     12  O   UNL     1      -4.689  11.449  18.395  0.00  0.00    +0.000 OA
BRANCH   7  14
ATOM     13  C   UNL     1      -2.289   9.758  16.847  0.00  0.00    +0.000 C 
ATOM     14  C   UNL     1      -2.244  11.281  16.854  0.00  0.00    +0.000 C 
ENDBRANCH   7  14
ENDBRANCH   6   8
ENDBRANCH   5   6
ENDBRANCH   4   5
ENDBRANCH   3   4
ENDBRANCH   2   3
ENDBRANCH   1   2
BRANCH   1  15
ATOM     15  C   UNL     1       1.897   7.566  20.161  0.00  0.00    +0.000 C 
BRANCH  15  16
ATOM     16  C   UNL     1       1.493   6.244  20.816  0.00  0.00    +0.000 C 
BRANCH  16  17
ATOM     17  C   UNL     1       2.282   5.037  20.312  0.00  0.00    +0.000 C 
BRANCH  17  18
ATOM     18  C   UNL     1       1.497   4.142  19.342  0.00  0.00    +0.000 C 
BRANCH  18  19
ATOM     19  C   UNL     1       2.466   3.155  18.695  0.00  0.00    +0.000 C 
BRANCH  19  20
ATOM     20  C   UNL     1       3.295   3.705  17.546  0.00  0.00    +0.000 C 
BRANCH  20  21
ATOM     21  C   UNL     1       4.752   4.024  17.776  0.00  0.00    +0.000 A 
ATOM     22  N   UNL     1       5.268   3.811  18.945  0.00  0.00    +0.000 NA
ATOM     23  O   UNL     1       6.597   4.301  18.868  0.00  0.00    +0.000 OA
ATOM     24  C   UNL     1       6.745   4.790  17.598  0.00  0.00    +0.000 A 
ATOM     25  O   UNL     1       7.767   5.314  17.179  0.00  0.00    +0.000 OA
ATOM     26  N   UNL     1       5.591   4.591  16.914  0.00  0.00    +0.000 N 
BRANCH  26  27
ATOM     27  C   UNL     1       5.477   4.957  15.512  0.00  0.00    +0.000 C 
ATOM     28  C   UNL     1       6.027   3.907  14.560  0.00  0.00    +0.000 C 
ENDBRANCH  26  27
ENDBRANCH  20  21
ENDBRANCH  19  20
ENDBRANCH  18  19
ENDBRANCH  17  18
ENDBRANCH  16  17
ENDBRANCH  15  16
ENDBRANCH   1  15
TORSDOF 15
ENDMDL
