MODEL 1
REMARK VINA RESULT:      -7.4      0.000      0.000
REMARK  Name = 
REMARK  11 active torsions:
REMARK  status: ('A' for Active; 'I' for Inactive)
REMARK    1  A    between atoms: C_1  and  C_2
REMARK    2  A    between atoms: C_2  and  C_3
REMARK    3  A    between atoms: C_2  and  N_4
REMARK    4  A    between atoms: N_4  and  C_5
REMARK    5  A    between atoms: N_4  and  C_13
REMARK    6  A    between atoms: C_5  and  C_6
REMARK    7  A    between atoms: C_13  and  C_14
REMARK    8  A    between atoms: C_14  and  O_15
REMARK    9  A    between atoms: C_14  and  C_16
REMARK   10  A    between atoms: C_14  and  C_22
REMARK   11  A    between atoms: C_16  and  N_17
REMARK                            x       y       z     vdW  Elec       q    Type
REMARK                         _______ _______ _______ _____ _____    ______ ____
ROOT
ATOM      1  C   UNL     1       6.344   4.994  16.917  0.00  0.00    +0.000 C 
ENDROOT
BRANCH   1   2
ATOM      2  C   UNL     1       7.057   6.213  17.515  0.00  0.00    +0.000 A 
ATOM      3  C   UNL     1       6.949   7.493  16.942  0.00  0.00    +0.000 A 
ATOM      4  C   UNL     1       7.617   8.595  17.490  0.00  0.00    +0.000 A 
ATOM      5  C   UNL     1       8.397   8.435  18.616  0.00  0.00    +0.000 A 
ATOM      6  F   UNL     1       9.034   9.492  19.138  0.00  0.00    +0.000 F 
ATOM      7  C   UNL     1       8.533   7.196  19.216  0.00  0.00    +0.000 A 
ATOM      8  C   UNL     1       7.855   6.104  18.673  0.00  0.00    +0.000 A 
ATOM      9  F   UNL     1       8.013   4.920  19.283  0.00  0.00    +0.000 F 
ENDBRANCH   1   2
BRANCH   1  10
ATOM     10  O   UNL     1       7.381   4.093  16.493  0.00  0.00    +0.000 OA
ATOM     11  H   UNL     1       7.097   3.193  16.733  0.00  0.00    +0.000 HD
ENDBRANCH   1  10
BRANCH   1  12
ATOM     12  C   UNL     1       5.336   4.217  17.884  0.00  0.00    +0.000 C 
BRANCH  12  13
ATOM     13  N   UNL     1       3.987   4.679  18.319  0.00  0.00    +0.000 NA
BRANCH  13  15
ATOM     14  C   UNL     1       2.905   3.325  20.169  0.00  0.00    +0.000 C 
ATOM     15  C   UNL     1       3.094   3.521  18.651  0.00  0.00    +0.000 C 
ATOM     16  C   UNL     1       1.681   3.547  18.032  0.00  0.00    +0.000 C 
ENDBRANCH  13  15
BRANCH  13  17
ATOM     17  C   UNL     1       3.957   5.788  19.317  0.00  0.00    +0.000 C 
BRANCH  17  18
ATOM     18  C   UNL     1       2.960   6.916  19.084  0.00  0.00    +0.000 A 
ATOM     19  C   UNL     1       2.878   7.565  17.842  0.00  0.00    +0.000 A 
ATOM     20  C   UNL     1       2.153   8.755  17.711  0.00  0.00    +0.000 A 
ATOM     21  C   UNL     1       1.446   9.264  18.789  0.00  0.00    +0.000 A 
ATOM     22 CL   UNL     1       0.691  10.806  18.695  0.00  0.00    +0.000 Cl
ATOM     23  C   UNL     1       1.360   8.532  19.966  0.00  0.00    +0.000 A 
ATOM     24  C   UNL     1       2.084   7.348  20.090  0.00  0.00    +0.000 A 
ENDBRANCH  17  18
ENDBRANCH  13  17
ENDBRANCH  12  13
ENDBRANCH   1  12
BRANCH   1  25
ATOM     25  C   UNL     1       5.536   5.387  15.628  0.00  0.00    +0.000 C 
BRANCH  25  26
ATOM     26  N   UNL     1       6.073   4.868  14.393  0.00  0.00    +0.000 N 
ATOM     27  C   UNL     1       5.592   3.863  13.615  0.00  0.00    +0.000 A 
ATOM     28  N   UNL     1       6.441   3.618  12.643  0.00  0.00    +0.000 NA
ATOM     29  C   UNL     1       7.423   4.544  12.849  0.00  0.00    +0.000 A 
ATOM     30  N   UNL     1       7.222   5.361  13.887  0.00  0.00    +0.000 NA
ENDBRANCH  25  26
ENDBRANCH   1  25
TORSDOF 9
ENDMDL
MODEL 2
REMARK VINA RESULT:      -7.3      1.550      2.178
REMARK  Name = 
REMARK  11 active torsions:
REMARK  status: ('A' for Active; 'I' for Inactive)
REMARK    1  A    between atoms: C_1  and  C_2
REMARK    2  A    between atoms: C_2  and  C_3
REMARK    3  A    between atoms: C_2  and  N_4
REMARK    4  A    between atoms: N_4  and  C_5
REMARK    5  A    between atoms: N_4  and  C_13
REMARK    6  A    between atoms: C_5  and  C_6
REMARK    7  A    between atoms: C_13  and  C_14
REMARK    8  A    between atoms: C_14  and  O_15
REMARK    9  A    between atoms: C_14  and  C_16
REMARK   10  A    between atoms: C_14  and  C_22
REMARK   11  A    between atoms: C_16  and  N_17
REMARK                            x       y       z     vdW  Elec       q    Type
REMARK                         _______ _______ _______ _____ _____    ______ ____
ROOT
ATOM      1  C   UNL     1       5.090   4.311  17.795  0.00  0.00    +0.000 C 
ENDROOT
BRANCH   1   2
ATOM      2  C   UNL     1       6.061   5.491  17.910  0.00  0.00    +0.000 A 
ATOM      3  C   UNL     1       7.203   5.438  18.731  0.00  0.00    +0.000 A 
ATOM      4  C   UNL     1       8.074   6.528  18.838  0.00  0.00    +0.000 A 
ATOM      5  C   UNL     1       7.821   7.683  18.126  0.00  0.00    +0.000 A 
ATOM      6  F   UNL     1       8.658   8.724  18.231  0.00  0.00    +0.000 F 
ATOM      7  C   UNL     1       6.713   7.782  17.305  0.00  0.00    +0.000 A 
ATOM      8  C   UNL     1       5.854   6.687  17.192  0.00  0.00    +0.000 A 
ATOM      9  F   UNL     1       4.791   6.823  16.386  0.00  0.00    +0.000 F 
ENDBRANCH   1   2
BRANCH   1  10
ATOM     10  O   UNL     1       5.243   3.547  19.003  0.00  0.00    +0.000 OA
ATOM     11  H   UNL     1       6.098   3.799  19.396  0.00  0.00    +0.000 HD
ENDBRANCH   1  10
BRANCH   1  12
ATOM     12  C   UNL     1       3.547   4.678  17.599  0.00  0.00    +0.000 C 
BRANCH  12  13
ATOM     13  N   UNL     1       2.567   5.009  18.672  0.00  0.00    +0.000 NA
BRANCH  13  15
ATOM     14  C   UNL     1       0.945   4.066  20.376  0.00  0.00    +0.000 C 
ATOM     15  C   UNL     1       2.047   3.771  19.339  0.00  0.00    +0.000 C 
ATOM     16  C   UNL     1       1.489   2.676  18.406  0.00  0.00    +0.000 C 
ENDBRANCH  13  15
BRANCH  13  17
ATOM     17  C   UNL     1       2.959   6.099  19.613  0.00  0.00    +0.000 C 
BRANCH  17  18
ATOM     18  C   UNL     1       2.306   7.462  19.423  0.00  0.00    +0.000 A 
ATOM     19  C   UNL     1       1.629   8.095  20.478  0.00  0.00    +0.000 A 
ATOM     20  C   UNL     1       0.821   9.211  20.232  0.00  0.00    +0.000 A 
ATOM     21  C   UNL     1       0.739   9.747  18.957  0.00  0.00    +0.000 A 
ATOM     22 CL   UNL     1      -0.375  11.008  18.605  0.00  0.00    +0.000 Cl
ATOM     23  C   UNL     1       1.552   9.251  17.947  0.00  0.00    +0.000 A 
ATOM     24  C   UNL     1       2.355   8.141  18.197  0.00  0.00    +0.000 A 
ENDBRANCH  17  18
ENDBRANCH  13  17
ENDBRANCH  12  13
ENDBRANCH   1  12
BRANCH   1  25
ATOM     25  C   UNL     1       5.491   3.361  16.609  0.00  0.00    +0.000 C 
BRANCH  25  26
ATOM     26  N   UNL     1       6.109   4.022  15.484  0.00  0.00    +0.000 N 
ATOM     27  C   UNL     1       7.387   4.468  15.359  0.00  0.00    +0.000 A 
ATOM     28  N   UNL     1       7.513   5.122  14.227  0.00  0.00    +0.000 NA
ATOM     29  C   UNL     1       6.273   5.010  13.666  0.00  0.00    +0.000 A 
ATOM     30  N   UNL     1       5.389   4.309  14.381  0.00  0.00    +0.000 NA
ENDBRANCH  25  26
ENDBRANCH   1  25
TORSDOF 9
ENDMDL
MODEL 3
REMARK VINA RESULT:      -7.2      1.519      1.846
REMARK  Name = 
REMARK  11 active torsions:
REMARK  status: ('A' for Active; 'I' for Inactive)
REMARK    1  A    between atoms: C_1  and  C_2
REMARK    2  A    between atoms: C_2  and  C_3
REMARK    3  A    between atoms: C_2  and  N_4
REMARK    4  A    between atoms: N_4  and  C_5
REMARK    5  A    between atoms: N_4  and  C_13
REMARK    6  A    between atoms: C_5  and  C_6
REMARK    7  A    between atoms: C_13  and  C_14
REMARK    8  A    between atoms: C_14  and  O_15
REMARK    9  A    between atoms: C_14  and  C_16
REMARK   10  A    between atoms: C_14  and  C_22
REMARK   11  A    between atoms: C_16  and  N_17
REMARK                            x       y       z     vdW  Elec       q    Type
REMARK                         _______ _______ _______ _____ _____    ______ ____
ROOT
ATOM      1  C   UNL     1       5.207   4.268  17.772  0.00  0.00    +0.000 C 
ENDROOT
BRANCH   1   2
ATOM      2  C   UNL     1       6.139   5.482  17.875  0.00  0.00    +0.000 A 
ATOM      3  C   UNL     1       7.289   5.470  18.685  0.00  0.00    +0.000 A 
ATOM      4  C   UNL     1       8.123   6.590  18.781  0.00  0.00    +0.000 A 
ATOM      5  C   UNL     1       7.824   7.733  18.068  0.00  0.00    +0.000 A 
ATOM      6  F   UNL     1       8.626   8.802  18.162  0.00  0.00    +0.000 F 
ATOM      7  C   UNL     1       6.705   7.792  17.257  0.00  0.00    +0.000 A 
ATOM      8  C   UNL     1       5.884   6.667  17.156  0.00  0.00    +0.000 A 
ATOM      9  F   UNL     1       4.809   6.765  16.360  0.00  0.00    +0.000 F 
ENDBRANCH   1   2
BRANCH   1  10
ATOM     10  O   UNL     1       5.369   3.535  18.998  0.00  0.00    +0.000 OA
ATOM     11  H   UNL     1       5.119   2.611  18.816  0.00  0.00    +0.000 HD
ENDBRANCH   1  10
BRANCH   1  12
ATOM     12  C   UNL     1       3.656   4.581  17.548  0.00  0.00    +0.000 C 
BRANCH  12  13
ATOM     13  N   UNL     1       2.664   4.958  18.596  0.00  0.00    +0.000 NA
BRANCH  13  15
ATOM     14  C   UNL     1       0.969   4.064  20.254  0.00  0.00    +0.000 C 
ATOM     15  C   UNL     1       2.171   3.754  19.341  0.00  0.00    +0.000 C 
ATOM     16  C   UNL     1       1.769   2.536  18.483  0.00  0.00    +0.000 C 
ENDBRANCH  13  15
BRANCH  13  17
ATOM     17  C   UNL     1       3.025   6.117  19.464  0.00  0.00    +0.000 C 
BRANCH  17  18
ATOM     18  C   UNL     1       2.249   7.413  19.266  0.00  0.00    +0.000 A 
ATOM     19  C   UNL     1       2.238   8.067  18.024  0.00  0.00    +0.000 A 
ATOM     20  C   UNL     1       1.744   9.372  17.917  0.00  0.00    +0.000 A 
ATOM     21  C   UNL     1       1.195  10.005  19.021  0.00  0.00    +0.000 A 
ATOM     22 CL   UNL     1       0.740  11.661  18.948  0.00  0.00    +0.000 Cl
ATOM     23  C   UNL     1       1.023   9.300  20.205  0.00  0.00    +0.000 A 
ATOM     24  C   UNL     1       1.515   8.001  20.306  0.00  0.00    +0.000 A 
ENDBRANCH  17  18
ENDBRANCH  13  17
ENDBRANCH  12  13
ENDBRANCH   1  12
BRANCH   1  25
ATOM     25  C   UNL     1       5.655   3.308  16.611  0.00  0.00    +0.000 C 
BRANCH  25  26
ATOM     26  N   UNL     1       6.109   3.974  15.413  0.00  0.00    +0.000 N 
ATOM     27  C   UNL     1       5.434   4.184  14.252  0.00  0.00    +0.000 A 
ATOM     28  N   UNL     1       6.244   4.718  13.367  0.00  0.00    +0.000 NA
ATOM     29  C   UNL     1       7.412   4.856  14.060  0.00  0.00    +0.000 A 
ATOM     30  N   UNL     1       7.367   4.451  15.333  0.00  0.00    +0.000 NA
ENDBRANCH  25  26
ENDBRANCH   1  25
TORSDOF 9
ENDMDL
MODEL 4
REMARK VINA RESULT:      -7.2      0.908      1.460
REMARK  Name = 
REMARK  11 active torsions:
REMARK  status: ('A' for Active; 'I' for Inactive)
REMARK    1  A    between atoms: C_1  and  C_2
REMARK    2  A    between atoms: C_2  and  C_3
REMARK    3  A    between atoms: C_2  and  N_4
REMARK    4  A    between atoms: N_4  and  C_5
REMARK    5  A    between atoms: N_4  and  C_13
REMARK    6  A    between atoms: C_5  and  C_6
REMARK    7  A    between atoms: C_13  and  C_14
REMARK    8  A    between atoms: C_14  and  O_15
REMARK    9  A    between atoms: C_14  and  C_16
REMARK   10  A    between atoms: C_14  and  C_22
REMARK   11  A    between atoms: C_16  and  N_17
REMARK                            x       y       z     vdW  Elec       q    Type
REMARK                         _______ _______ _______ _____ _____    ______ ____
ROOT
ATOM      1  C   UNL     1       5.655   4.608  16.566  0.00  0.00    +0.000 C 
ENDROOT
BRANCH   1   2
ATOM      2  C   UNL     1       6.516   5.692  17.225  0.00  0.00    +0.000 A 
ATOM      3  C   UNL     1       6.577   7.003  16.718  0.00  0.00    +0.000 A 
ATOM      4  C   UNL     1       7.378   7.980  17.321  0.00  0.00    +0.000 A 
ATOM      5  C   UNL     1       8.125   7.664  18.437  0.00  0.00    +0.000 A 
ATOM      6  F   UNL     1       8.890   8.602  19.012  0.00  0.00    +0.000 F 
ATOM      7  C   UNL     1       8.097   6.389  18.973  0.00  0.00    +0.000 A 
ATOM      8  C   UNL     1       7.286   5.422  18.375  0.00  0.00    +0.000 A 
ATOM      9  F   UNL     1       7.287   4.199  18.923  0.00  0.00    +0.000 F 
ENDBRANCH   1   2
BRANCH   1  10
ATOM     10  O   UNL     1       6.535   3.501  16.309  0.00  0.00    +0.000 OA
ATOM     11  H   UNL     1       5.991   2.777  15.950  0.00  0.00    +0.000 HD
ENDBRANCH   1  10
BRANCH   1  12
ATOM     12  C   UNL     1       4.396   4.094  17.406  0.00  0.00    +0.000 C 
BRANCH  12  13
ATOM     13  N   UNL     1       3.241   4.914  17.869  0.00  0.00    +0.000 NA
BRANCH  13  15
ATOM     14  C   UNL     1       2.227   2.602  17.642  0.00  0.00    +0.000 C 
ATOM     15  C   UNL     1       2.010   4.075  18.041  0.00  0.00    +0.000 C 
ATOM     16  C   UNL     1       1.383   4.061  19.452  0.00  0.00    +0.000 C 
ENDBRANCH  13  15
BRANCH  13  17
ATOM     17  C   UNL     1       3.507   5.858  18.993  0.00  0.00    +0.000 C 
BRANCH  17  18
ATOM     18  C   UNL     1       2.780   7.197  18.975  0.00  0.00    +0.000 A 
ATOM     19  C   UNL     1       2.040   7.634  20.085  0.00  0.00    +0.000 A 
ATOM     20  C   UNL     1       1.175   8.728  19.972  0.00  0.00    +0.000 A 
ATOM     21  C   UNL     1       1.094   9.436  18.783  0.00  0.00    +0.000 A 
ATOM     22 CL   UNL     1      -0.082  10.672  18.575  0.00  0.00    +0.000 Cl
ATOM     23  C   UNL     1       1.961   9.134  17.741  0.00  0.00    +0.000 A 
ATOM     24  C   UNL     1       2.821   8.045  17.859  0.00  0.00    +0.000 A 
ENDBRANCH  17  18
ENDBRANCH  13  17
ENDBRANCH  12  13
ENDBRANCH   1  12
BRANCH   1  25
ATOM     25  C   UNL     1       5.114   5.085  15.170  0.00  0.00    +0.000 C 
BRANCH  25  26
ATOM     26  N   UNL     1       5.809   4.536  14.030  0.00  0.00    +0.000 N 
ATOM     27  C   UNL     1       6.994   4.927  13.490  0.00  0.00    +0.000 A 
ATOM     28  N   UNL     1       7.216   4.249  12.387  0.00  0.00    +0.000 NA
ATOM     29  C   UNL     1       6.140   3.412  12.316  0.00  0.00    +0.000 A 
ATOM     30  N   UNL     1       5.269   3.522  13.324  0.00  0.00    +0.000 NA
ENDBRANCH  25  26
ENDBRANCH   1  25
TORSDOF 9
ENDMDL
MODEL 5
REMARK VINA RESULT:      -7.2      1.369      1.762
REMARK  Name = 
REMARK  11 active torsions:
REMARK  status: ('A' for Active; 'I' for Inactive)
REMARK    1  A    between atoms: C_1  and  C_2
REMARK    2  A    between atoms: C_2  and  C_3
REMARK    3  A    between atoms: C_2  and  N_4
REMARK    4  A    between atoms: N_4  and  C_5
REMARK    5  A    between atoms: N_4  and  C_13
REMARK    6  A    between atoms: C_5  and  C_6
REMARK    7  A    between atoms: C_13  and  C_14
REMARK    8  A    between atoms: C_14  and  O_15
REMARK    9  A    between atoms: C_14  and  C_16
REMARK   10  A    between atoms: C_14  and  C_22
REMARK   11  A    between atoms: C_16  and  N_17
REMARK                            x       y       z     vdW  Elec       q    Type
REMARK                         _______ _______ _______ _____ _____    ______ ____
ROOT
ATOM      1  C   UNL     1       5.141   4.273  16.303  0.00  0.00    +0.000 C 
ENDROOT
BRANCH   1   2
ATOM      2  C   UNL     1       6.122   5.208  17.021  0.00  0.00    +0.000 A 
ATOM      3  C   UNL     1       7.086   4.724  17.924  0.00  0.00    +0.000 A 
ATOM      4  C   UNL     1       7.966   5.591  18.583  0.00  0.00    +0.000 A 
ATOM      5  C   UNL     1       7.898   6.949  18.347  0.00  0.00    +0.000 A 
ATOM      6  F   UNL     1       8.743   7.775  18.979  0.00  0.00    +0.000 F 
ATOM      7  C   UNL     1       6.969   7.472  17.467  0.00  0.00    +0.000 A 
ATOM      8  C   UNL     1       6.102   6.601  16.803  0.00  0.00    +0.000 A 
ATOM      9  F   UNL     1       5.215   7.147  15.958  0.00  0.00    +0.000 F 
ENDBRANCH   1   2
BRANCH   1  10
ATOM     10  O   UNL     1       5.834   3.026  16.128  0.00  0.00    +0.000 OA
ATOM     11  H   UNL     1       6.695   3.229  15.721  0.00  0.00    +0.000 HD
ENDBRANCH   1  10
BRANCH   1  12
ATOM     12  C   UNL     1       3.750   4.002  17.041  0.00  0.00    +0.000 C 
BRANCH  12  13
ATOM     13  N   UNL     1       3.493   4.066  18.509  0.00  0.00    +0.000 NA
BRANCH  13  15
ATOM     14  C   UNL     1       3.353   2.674  20.621  0.00  0.00    +0.000 C 
ATOM     15  C   UNL     1       3.922   2.804  19.195  0.00  0.00    +0.000 C 
ATOM     16  C   UNL     1       3.592   1.484  18.467  0.00  0.00    +0.000 C 
ENDBRANCH  13  15
BRANCH  13  17
ATOM     17  C   UNL     1       3.914   5.320  19.200  0.00  0.00    +0.000 C 
BRANCH  17  18
ATOM     18  C   UNL     1       2.926   6.479  19.219  0.00  0.00    +0.000 A 
ATOM     19  C   UNL     1       2.754   7.302  18.095  0.00  0.00    +0.000 A 
ATOM     20  C   UNL     1       2.046   8.505  18.200  0.00  0.00    +0.000 A 
ATOM     21  C   UNL     1       1.444   8.859  19.397  0.00  0.00    +0.000 A 
ATOM     22 CL   UNL     1       0.717  10.405  19.592  0.00  0.00    +0.000 Cl
ATOM     23  C   UNL     1       1.441   7.964  20.459  0.00  0.00    +0.000 A 
ATOM     24  C   UNL     1       2.147   6.768  20.348  0.00  0.00    +0.000 A 
ENDBRANCH  17  18
ENDBRANCH  13  17
ENDBRANCH  12  13
ENDBRANCH   1  12
BRANCH   1  25
ATOM     25  C   UNL     1       4.803   4.804  14.863  0.00  0.00    +0.000 C 
BRANCH  25  26
ATOM     26  N   UNL     1       5.766   4.455  13.846  0.00  0.00    +0.000 N 
ATOM     27  C   UNL     1       5.642   3.555  12.835  0.00  0.00    +0.000 A 
ATOM     28  N   UNL     1       6.789   3.446  12.204  0.00  0.00    +0.000 NA
ATOM     29  C   UNL     1       7.585   4.346  12.852  0.00  0.00    +0.000 A 
ATOM     30  N   UNL     1       6.990   5.019  13.841  0.00  0.00    +0.000 NA
ENDBRANCH  25  26
ENDBRANCH   1  25
TORSDOF 9
ENDMDL
MODEL 6
REMARK VINA RESULT:      -7.1      3.413      6.775
REMARK  Name = 
REMARK  11 active torsions:
REMARK  status: ('A' for Active; 'I' for Inactive)
REMARK    1  A    between atoms: C_1  and  C_2
REMARK    2  A    between atoms: C_2  and  C_3
REMARK    3  A    between atoms: C_2  and  N_4
REMARK    4  A    between atoms: N_4  and  C_5
REMARK    5  A    between atoms: N_4  and  C_13
REMARK    6  A    between atoms: C_5  and  C_6
REMARK    7  A    between atoms: C_13  and  C_14
REMARK    8  A    between atoms: C_14  and  O_15
REMARK    9  A    between atoms: C_14  and  C_16
REMARK   10  A    between atoms: C_14  and  C_22
REMARK   11  A    between atoms: C_16  and  N_17
REMARK                            x       y       z     vdW  Elec       q    Type
REMARK                         _______ _______ _______ _____ _____    ______ ____
ROOT
ATOM      1  C   UNL     1       3.165   5.880  19.120  0.00  0.00    +0.000 C 
ENDROOT
BRANCH   1   2
ATOM      2  C   UNL     1       2.499   7.261  19.097  0.00  0.00    +0.000 A 
ATOM      3  C   UNL     1       1.723   7.731  20.172  0.00  0.00    +0.000 A 
ATOM      4  C   UNL     1       1.109   8.988  20.132  0.00  0.00    +0.000 A 
ATOM      5  C   UNL     1       1.264   9.794  19.022  0.00  0.00    +0.000 A 
ATOM      6  F   UNL     1       0.676  10.997  18.988  0.00  0.00    +0.000 F 
ATOM      7  C   UNL     1       2.020   9.376  17.941  0.00  0.00    +0.000 A 
ATOM      8  C   UNL     1       2.640   8.126  17.993  0.00  0.00    +0.000 A 
ATOM      9  F   UNL     1       3.363   7.758  16.925  0.00  0.00    +0.000 F 
ENDBRANCH   1   2
BRANCH   1  10
ATOM     10  O   UNL     1       2.835   5.256  17.868  0.00  0.00    +0.000 OA
ATOM     11  H   UNL     1       2.038   5.699  17.527  0.00  0.00    +0.000 HD
ENDBRANCH   1  10
BRANCH   1  12
ATOM     12  C   UNL     1       4.751   5.859  19.315  0.00  0.00    +0.000 C 
BRANCH  12  13
ATOM     13  N   UNL     1       5.780   5.836  18.236  0.00  0.00    +0.000 NA
BRANCH  13  15
ATOM     14  C   UNL     1       8.173   5.569  19.026  0.00  0.00    +0.000 C 
ATOM     15  C   UNL     1       7.033   6.540  18.660  0.00  0.00    +0.000 C 
ATOM     16  C   UNL     1       7.624   7.551  17.654  0.00  0.00    +0.000 C 
ENDBRANCH  13  15
BRANCH  13  17
ATOM     17  C   UNL     1       6.006   4.522  17.565  0.00  0.00    +0.000 C 
BRANCH  17  18
ATOM     18  C   UNL     1       6.122   4.518  16.046  0.00  0.00    +0.000 A 
ATOM     19  C   UNL     1       5.055   4.092  15.239  0.00  0.00    +0.000 A 
ATOM     20  C   UNL     1       5.252   3.850  13.875  0.00  0.00    +0.000 A 
ATOM     21  C   UNL     1       6.485   4.097  13.292  0.00  0.00    +0.000 A 
ATOM     22 CL   UNL     1       6.791   3.647  11.662  0.00  0.00    +0.000 Cl
ATOM     23  C   UNL     1       7.490   4.701  14.035  0.00  0.00    +0.000 A 
ATOM     24  C   UNL     1       7.288   4.942  15.393  0.00  0.00    +0.000 A 
ENDBRANCH  17  18
ENDBRANCH  13  17
ENDBRANCH  12  13
ENDBRANCH   1  12
BRANCH   1  25
ATOM     25  C   UNL     1       2.551   4.974  20.249  0.00  0.00    +0.000 C 
BRANCH  25  26
ATOM     26  N   UNL     1       2.053   3.696  19.798  0.00  0.00    +0.000 N 
ATOM     27  C   UNL     1       2.678   2.489  19.815  0.00  0.00    +0.000 A 
ATOM     28  N   UNL     1       1.929   1.601  19.201  0.00  0.00    +0.000 NA
ATOM     29  C   UNL     1       0.819   2.318  18.858  0.00  0.00    +0.000 A 
ATOM     30  N   UNL     1       0.831   3.599  19.239  0.00  0.00    +0.000 NA
ENDBRANCH  25  26
ENDBRANCH   1  25
TORSDOF 9
ENDMDL
MODEL 7
REMARK VINA RESULT:      -7.1      0.901      1.399
REMARK  Name = 
REMARK  11 active torsions:
REMARK  status: ('A' for Active; 'I' for Inactive)
REMARK    1  A    between atoms: C_1  and  C_2
REMARK    2  A    between atoms: C_2  and  C_3
REMARK    3  A    between atoms: C_2  and  N_4
REMARK    4  A    between atoms: N_4  and  C_5
REMARK    5  A    between atoms: N_4  and  C_13
REMARK    6  A    between atoms: C_5  and  C_6
REMARK    7  A    between atoms: C_13  and  C_14
REMARK    8  A    between atoms: C_14  and  O_15
REMARK    9  A    between atoms: C_14  and  C_16
REMARK   10  A    between atoms: C_14  and  C_22
REMARK   11  A    between atoms: C_16  and  N_17
REMARK                            x       y       z     vdW  Elec       q    Type
REMARK                         _______ _______ _______ _____ _____    ______ ____
ROOT
ATOM      1  C   UNL     1       5.929   5.107  17.342  0.00  0.00    +0.000 C 
ENDROOT
BRANCH   1   2
ATOM      2  C   UNL     1       6.789   6.308  17.751  0.00  0.00    +0.000 A 
ATOM      3  C   UNL     1       6.664   7.561  17.123  0.00  0.00    +0.000 A 
ATOM      4  C   UNL     1       7.467   8.646  17.496  0.00  0.00    +0.000 A 
ATOM      5  C   UNL     1       8.401   8.497  18.501  0.00  0.00    +0.000 A 
ATOM      6  F   UNL     1       9.166   9.537  18.856  0.00  0.00    +0.000 F 
ATOM      7  C   UNL     1       8.559   7.285  19.149  0.00  0.00    +0.000 A 
ATOM      8  C   UNL     1       7.747   6.210  18.781  0.00  0.00    +0.000 A 
ATOM      9  F   UNL     1       7.932   5.053  19.433  0.00  0.00    +0.000 F 
ENDBRANCH   1   2
BRANCH   1  10
ATOM     10  O   UNL     1       6.845   4.034  17.068  0.00  0.00    +0.000 OA
ATOM     11  H   UNL     1       6.315   3.272  16.773  0.00  0.00    +0.000 HD
ENDBRANCH   1  10
BRANCH   1  12
ATOM     12  C   UNL     1       4.846   4.614  18.410  0.00  0.00    +0.000 C 
BRANCH  12  13
ATOM     13  N   UNL     1       3.623   3.808  18.130  0.00  0.00    +0.000 NA
BRANCH  13  15
ATOM     14  C   UNL     1       2.162   2.467  19.707  0.00  0.00    +0.000 C 
ATOM     15  C   UNL     1       3.539   2.612  19.030  0.00  0.00    +0.000 C 
ATOM     16  C   UNL     1       3.858   1.247  18.385  0.00  0.00    +0.000 C 
ENDBRANCH  13  15
BRANCH  13  17
ATOM     17  C   UNL     1       2.347   4.568  17.991  0.00  0.00    +0.000 C 
BRANCH  17  18
ATOM     18  C   UNL     1       2.266   5.935  18.659  0.00  0.00    +0.000 A 
ATOM     19  C   UNL     1       2.028   6.054  20.037  0.00  0.00    +0.000 A 
ATOM     20  C   UNL     1       1.702   7.296  20.594  0.00  0.00    +0.000 A 
ATOM     21  C   UNL     1       1.682   8.433  19.802  0.00  0.00    +0.000 A 
ATOM     22 CL   UNL     1       1.122   9.932  20.431  0.00  0.00    +0.000 Cl
ATOM     23  C   UNL     1       2.104   8.362  18.481  0.00  0.00    +0.000 A 
ATOM     24  C   UNL     1       2.428   7.123  17.932  0.00  0.00    +0.000 A 
ENDBRANCH  17  18
ENDBRANCH  13  17
ENDBRANCH  12  13
ENDBRANCH   1  12
BRANCH   1  25
ATOM     25  C   UNL     1       5.157   5.393  16.003  0.00  0.00    +0.000 C 
BRANCH  25  26
ATOM     26  N   UNL     1       5.820   4.921  14.809  0.00  0.00    +0.000 N 
ATOM     27  C   UNL     1       5.425   3.946  13.950  0.00  0.00    +0.000 A 
ATOM     28  N   UNL     1       6.369   3.739  13.060  0.00  0.00    +0.000 NA
ATOM     29  C   UNL     1       7.319   4.659  13.398  0.00  0.00    +0.000 A 
ATOM     30  N   UNL     1       7.010   5.436  14.441  0.00  0.00    +0.000 NA
ENDBRANCH  25  26
ENDBRANCH   1  25
TORSDOF 9
ENDMDL
MODEL 8
REMARK VINA RESULT:      -7.0      0.869      1.065
REMARK  Name = 
REMARK  11 active torsions:
REMARK  status: ('A' for Active; 'I' for Inactive)
REMARK    1  A    between atoms: C_1  and  C_2
REMARK    2  A    between atoms: C_2  and  C_3
REMARK    3  A    between atoms: C_2  and  N_4
REMARK    4  A    between atoms: N_4  and  C_5
REMARK    5  A    between atoms: N_4  and  C_13
REMARK    6  A    between atoms: C_5  and  C_6
REMARK    7  A    between atoms: C_13  and  C_14
REMARK    8  A    between atoms: C_14  and  O_15
REMARK    9  A    between atoms: C_14  and  C_16
REMARK   10  A    between atoms: C_14  and  C_22
REMARK   11  A    between atoms: C_16  and  N_17
REMARK                            x       y       z     vdW  Elec       q    Type
REMARK                         _______ _______ _______ _____ _____    ______ ____
ROOT
ATOM      1  C   UNL     1       5.735   4.391  16.328  0.00  0.00    +0.000 C 
ENDROOT
BRANCH   1   2
ATOM      2  C   UNL     1       6.547   5.479  17.041  0.00  0.00    +0.000 A 
ATOM      3  C   UNL     1       6.610   6.798  16.556  0.00  0.00    +0.000 A 
ATOM      4  C   UNL     1       7.367   7.778  17.209  0.00  0.00    +0.000 A 
ATOM      5  C   UNL     1       8.066   7.457  18.355  0.00  0.00    +0.000 A 
ATOM      6  F   UNL     1       8.788   8.398  18.978  0.00  0.00    +0.000 F 
ATOM      7  C   UNL     1       8.033   6.174  18.871  0.00  0.00    +0.000 A 
ATOM      8  C   UNL     1       7.266   5.204  18.223  0.00  0.00    +0.000 A 
ATOM      9  F   UNL     1       7.261   3.973  18.754  0.00  0.00    +0.000 F 
ENDBRANCH   1   2
BRANCH   1  10
ATOM     10  O   UNL     1       6.680   3.384  15.929  0.00  0.00    +0.000 OA
ATOM     11  H   UNL     1       7.163   3.109  16.728  0.00  0.00    +0.000 HD
ENDBRANCH   1  10
BRANCH   1  12
ATOM     12  C   UNL     1       4.566   3.706  17.177  0.00  0.00    +0.000 C 
BRANCH  12  13
ATOM     13  N   UNL     1       3.497   4.406  17.945  0.00  0.00    +0.000 NA
BRANCH  13  15
ATOM     14  C   UNL     1       1.158   3.516  18.342  0.00  0.00    +0.000 C 
ATOM     15  C   UNL     1       2.652   3.435  18.713  0.00  0.00    +0.000 C 
ATOM     16  C   UNL     1       3.050   1.948  18.607  0.00  0.00    +0.000 C 
ENDBRANCH  13  15
BRANCH  13  17
ATOM     17  C   UNL     1       3.918   5.608  18.722  0.00  0.00    +0.000 C 
BRANCH  17  18
ATOM     18  C   UNL     1       2.931   6.765  18.817  0.00  0.00    +0.000 A 
ATOM     19  C   UNL     1       2.742   7.646  17.740  0.00  0.00    +0.000 A 
ATOM     20  C   UNL     1       2.037   8.841  17.919  0.00  0.00    +0.000 A 
ATOM     21  C   UNL     1       1.456   9.133  19.143  0.00  0.00    +0.000 A 
ATOM     22 CL   UNL     1       0.734  10.667  19.429  0.00  0.00    +0.000 Cl
ATOM     23  C   UNL     1       1.470   8.185  20.157  0.00  0.00    +0.000 A 
ATOM     24  C   UNL     1       2.172   6.996  19.973  0.00  0.00    +0.000 A 
ENDBRANCH  17  18
ENDBRANCH  13  17
ENDBRANCH  12  13
ENDBRANCH   1  12
BRANCH   1  25
ATOM     25  C   UNL     1       5.083   4.944  15.009  0.00  0.00    +0.000 C 
BRANCH  25  26
ATOM     26  N   UNL     1       5.567   4.335  13.792  0.00  0.00    +0.000 N 
ATOM     27  C   UNL     1       4.911   3.504  12.941  0.00  0.00    +0.000 A 
ATOM     28  N   UNL     1       5.743   3.076  12.019  0.00  0.00    +0.000 NA
ATOM     29  C   UNL     1       6.907   3.718  12.332  0.00  0.00    +0.000 A 
ATOM     30  N   UNL     1       6.838   4.534  13.388  0.00  0.00    +0.000 NA
ENDBRANCH  25  26
ENDBRANCH   1  25
TORSDOF 9
ENDMDL
MODEL 9
REMARK VINA RESULT:      -6.8      3.608      7.009
REMARK  Name = 
REMARK  11 active torsions:
REMARK  status: ('A' for Active; 'I' for Inactive)
REMARK    1  A    between atoms: C_1  and  C_2
REMARK    2  A    between atoms: C_2  and  C_3
REMARK    3  A    between atoms: C_2  and  N_4
REMARK    4  A    between atoms: N_4  and  C_5
REMARK    5  A    between atoms: N_4  and  C_13
REMARK    6  A    between atoms: C_5  and  C_6
REMARK    7  A    between atoms: C_13  and  C_14
REMARK    8  A    between atoms: C_14  and  O_15
REMARK    9  A    between atoms: C_14  and  C_16
REMARK   10  A    between atoms: C_14  and  C_22
REMARK   11  A    between atoms: C_16  and  N_17
REMARK                            x       y       z     vdW  Elec       q    Type
REMARK                         _______ _______ _______ _____ _____    ______ ____
ROOT
ATOM      1  C   UNL     1       3.210   6.422  18.447  0.00  0.00    +0.000 C 
ENDROOT
BRANCH   1   2
ATOM      2  C   UNL     1       2.330   7.467  19.143  0.00  0.00    +0.000 A 
ATOM      3  C   UNL     1       1.957   7.344  20.494  0.00  0.00    +0.000 A 
ATOM      4  C   UNL     1       1.141   8.298  21.114  0.00  0.00    +0.000 A 
ATOM      5  C   UNL     1       0.690   9.387  20.396  0.00  0.00    +0.000 A 
ATOM      6  F   UNL     1      -0.089  10.298  20.994  0.00  0.00    +0.000 F 
ATOM      7  C   UNL     1       1.032   9.552  19.066  0.00  0.00    +0.000 A 
ATOM      8  C   UNL     1       1.856   8.604  18.457  0.00  0.00    +0.000 A 
ATOM      9  F   UNL     1       2.164   8.800  17.167  0.00  0.00    +0.000 F 
ENDBRANCH   1   2
BRANCH   1  10
ATOM     10  O   UNL     1       2.312   5.545  17.746  0.00  0.00    +0.000 OA
ATOM     11  H   UNL     1       1.407   5.790  18.010  0.00  0.00    +0.000 HD
ENDBRANCH   1  10
BRANCH   1  12
ATOM     12  C   UNL     1       4.301   6.983  17.422  0.00  0.00    +0.000 C 
BRANCH  12  13
ATOM     13  N   UNL     1       5.514   6.266  16.933  0.00  0.00    +0.000 NA
BRANCH  13  15
ATOM     14  C   UNL     1       7.413   5.065  18.106  0.00  0.00    +0.000 C 
ATOM     15  C   UNL     1       6.650   6.390  17.903  0.00  0.00    +0.000 C 
ATOM     16  C   UNL     1       7.712   7.462  17.581  0.00  0.00    +0.000 C 
ENDBRANCH  13  15
BRANCH  13  17
ATOM     17  C   UNL     1       5.300   4.888  16.404  0.00  0.00    +0.000 C 
BRANCH  17  18
ATOM     18  C   UNL     1       5.742   4.607  14.973  0.00  0.00    +0.000 A 
ATOM     19  C   UNL     1       4.902   3.928  14.076  0.00  0.00    +0.000 A 
ATOM     20  C   UNL     1       5.404   3.452  12.859  0.00  0.00    +0.000 A 
ATOM     21  C   UNL     1       6.716   3.709  12.496  0.00  0.00    +0.000 A 
ATOM     22 CL   UNL     1       7.395   2.991  11.090  0.00  0.00    +0.000 Cl
ATOM     23  C   UNL     1       7.499   4.543  13.283  0.00  0.00    +0.000 A 
ATOM     24  C   UNL     1       6.994   5.016  14.493  0.00  0.00    +0.000 A 
ENDBRANCH  17  18
ENDBRANCH  13  17
ENDBRANCH  12  13
ENDBRANCH   1  12
BRANCH   1  25
ATOM     25  C   UNL     1       3.975   5.537  19.495  0.00  0.00    +0.000 C 
BRANCH  25  26
ATOM     26  N   UNL     1       3.558   4.155  19.543  0.00  0.00    +0.000 N 
ATOM     27  C   UNL     1       4.251   3.047  19.173  0.00  0.00    +0.000 A 
ATOM     28  N   UNL     1       3.470   1.994  19.258  0.00  0.00    +0.000 NA
ATOM     29  C   UNL     1       2.301   2.514  19.733  0.00  0.00    +0.000 A 
ATOM     30  N   UNL     1       2.318   3.831  19.962  0.00  0.00    +0.000 NA
ENDBRANCH  25  26
ENDBRANCH   1  25
TORSDOF 9
ENDMDL
