MODEL 1
REMARK VINA RESULT:      -7.0      0.000      0.000
REMARK  Name = 
REMARK  12 active torsions:
REMARK  status: ('A' for Active; 'I' for Inactive)
REMARK    1  A    between atoms: C_1  and  O_2
REMARK    2  A    between atoms: O_2  and  C_3
REMARK    3  A    between atoms: C_3  and  C_4
REMARK    4  A    between atoms: C_4  and  C_5
REMARK    5  A    between atoms: C_5  and  N_6
REMARK    6  A    between atoms: C_7  and  S_8
REMARK    7  A    between atoms: S_8  and  C_9
REMARK    8  A    between atoms: C_9  and  C_10
REMARK    9  A    between atoms: N_12  and  C_13
REMARK   10  A    between atoms: C_13  and  C_14
REMARK   11  A    between atoms: C_13  and  C_15
REMARK   12  A    between atoms: C_18  and  C_19
REMARK                            x       y       z     vdW  Elec       q    Type
REMARK                         _______ _______ _______ _____ _____    ______ ____
ROOT
ATOM      1  N   UNL     1       4.244   4.798  17.689  0.00  0.00    +0.000 N 
ATOM      2  C   UNL     1       4.901   4.538  16.516  0.00  0.00    +0.000 A 
ATOM      3  N   UNL     1       4.839   3.259  16.240  0.00  0.00    +0.000 NA
ATOM      4  N   UNL     1       4.078   2.664  17.214  0.00  0.00    +0.000 NA
ATOM      5  C   UNL     1       3.664   3.592  18.065  0.00  0.00    +0.000 A 
ENDROOT
BRANCH   5   6
ATOM      6  C   UNL     1       2.809   3.336  19.231  0.00  0.00    +0.000 A 
ATOM      7  C   UNL     1       3.370   2.791  20.396  0.00  0.00    +0.000 A 
ATOM      8  C   UNL     1       2.592   2.593  21.542  0.00  0.00    +0.000 A 
ATOM      9  C   UNL     1       1.245   2.942  21.542  0.00  0.00    +0.000 A 
ATOM     10  C   UNL     1       0.664   3.452  20.385  0.00  0.00    +0.000 A 
ATOM     11  C   UNL     1       1.435   3.620  19.231  0.00  0.00    +0.000 A 
ENDBRANCH   5   6
BRANCH   1  12
ATOM     12  C   UNL     1       4.201   6.061  18.404  0.00  0.00    +0.000 C 
BRANCH  12  13
ATOM     13  C   UNL     1       2.970   6.925  18.133  0.00  0.00    +0.000 C 
BRANCH  13  14
ATOM     14  C   UNL     1       2.265   7.352  19.412  0.00  0.00    +0.000 C 
BRANCH  14  16
ATOM     15  C   UNL     1       1.926   9.085  17.861  0.00  0.00    +0.000 C 
ATOM     16  O   UNL     1       1.722   8.653  19.200  0.00  0.00    +0.000 OA
ENDBRANCH  14  16
ENDBRANCH  13  14
ENDBRANCH  12  13
ENDBRANCH   1  12
BRANCH   2  17
ATOM     17  S   UNL     1       5.693   5.739  15.556  0.00  0.00    +0.000 S 
BRANCH  17  18
ATOM     18  C   UNL     1       7.135   4.829  14.941  0.00  0.00    +0.000 C 
BRANCH  18  19
ATOM     19  C   UNL     1       6.991   4.508  13.463  0.00  0.00    +0.000 C 
ATOM     20  O   UNL     1       7.645   5.086  12.598  0.00  0.00    +0.000 OA
ATOM     21  N   UNL     1       6.079   3.507  13.191  0.00  0.00    +0.000 N 
ATOM     22  H   UNL     1       5.350   3.363  13.890  0.00  0.00    +0.000 HD
BRANCH  21  23
ATOM     23  C   UNL     1       5.756   3.120  11.825  0.00  0.00    +0.000 C 
ATOM     24  C   UNL     1       6.136   1.661  11.598  0.00  0.00    +0.000 C 
ATOM     25  C   UNL     1       4.274   3.348  11.536  0.00  0.00    +0.000 C 
ENDBRANCH  21  23
ENDBRANCH  18  19
ENDBRANCH  17  18
ENDBRANCH   2  17
TORSDOF 9
ENDMDL
MODEL 2
REMARK VINA RESULT:      -6.8      2.130      4.125
REMARK  Name = 
REMARK  12 active torsions:
REMARK  status: ('A' for Active; 'I' for Inactive)
REMARK    1  A    between atoms: C_1  and  O_2
REMARK    2  A    between atoms: O_2  and  C_3
REMARK    3  A    between atoms: C_3  and  C_4
REMARK    4  A    between atoms: C_4  and  C_5
REMARK    5  A    between atoms: C_5  and  N_6
REMARK    6  A    between atoms: C_7  and  S_8
REMARK    7  A    between atoms: S_8  and  C_9
REMARK    8  A    between atoms: C_9  and  C_10
REMARK    9  A    between atoms: N_12  and  C_13
REMARK   10  A    between atoms: C_13  and  C_14
REMARK   11  A    between atoms: C_13  and  C_15
REMARK   12  A    between atoms: C_18  and  C_19
REMARK                            x       y       z     vdW  Elec       q    Type
REMARK                         _______ _______ _______ _____ _____    ______ ____
ROOT
ATOM      1  N   UNL     1       3.274   5.739  17.566  0.00  0.00    +0.000 N 
ATOM      2  C   UNL     1       4.476   5.416  16.995  0.00  0.00    +0.000 A 
ATOM      3  N   UNL     1       5.219   6.488  16.875  0.00  0.00    +0.000 NA
ATOM      4  N   UNL     1       4.526   7.534  17.429  0.00  0.00    +0.000 NA
ATOM      5  C   UNL     1       3.372   7.084  17.902  0.00  0.00    +0.000 A 
ENDROOT
BRANCH   5   6
ATOM      6  C   UNL     1       2.368   7.911  18.584  0.00  0.00    +0.000 A 
ATOM      7  C   UNL     1       2.092   7.688  19.941  0.00  0.00    +0.000 A 
ATOM      8  C   UNL     1       1.185   8.499  20.633  0.00  0.00    +0.000 A 
ATOM      9  C   UNL     1       0.545   9.547  19.979  0.00  0.00    +0.000 A 
ATOM     10  C   UNL     1       0.782   9.762  18.624  0.00  0.00    +0.000 A 
ATOM     11  C   UNL     1       1.664   8.932  17.928  0.00  0.00    +0.000 A 
ENDBRANCH   5   6
BRANCH   1  12
ATOM     12  C   UNL     1       2.129   4.865  17.743  0.00  0.00    +0.000 C 
BRANCH  12  13
ATOM     13  C   UNL     1       2.041   4.167  19.099  0.00  0.00    +0.000 C 
BRANCH  13  14
ATOM     14  C   UNL     1       1.266   2.858  19.031  0.00  0.00    +0.000 C 
BRANCH  14  16
ATOM     15  C   UNL     1       3.230   1.594  18.758  0.00  0.00    +0.000 C 
ATOM     16  O   UNL     1       1.985   1.967  18.181  0.00  0.00    +0.000 OA
ENDBRANCH  14  16
ENDBRANCH  13  14
ENDBRANCH  12  13
ENDBRANCH   1  12
BRANCH   2  17
ATOM     17  S   UNL     1       4.925   3.819  16.508  0.00  0.00    +0.000 S 
BRANCH  17  18
ATOM     18  C   UNL     1       6.618   4.076  15.913  0.00  0.00    +0.000 C 
BRANCH  18  19
ATOM     19  C   UNL     1       6.636   4.374  14.423  0.00  0.00    +0.000 C 
ATOM     20  O   UNL     1       6.997   5.458  13.974  0.00  0.00    +0.000 OA
ATOM     21  N   UNL     1       6.229   3.317  13.633  0.00  0.00    +0.000 N 
ATOM     22  H   UNL     1       5.620   2.631  14.081  0.00  0.00    +0.000 HD
BRANCH  21  23
ATOM     23  C   UNL     1       6.110   3.445  12.188  0.00  0.00    +0.000 C 
ATOM     24  C   UNL     1       6.908   2.340  11.504  0.00  0.00    +0.000 C 
ATOM     25  C   UNL     1       4.645   3.403  11.761  0.00  0.00    +0.000 C 
ENDBRANCH  21  23
ENDBRANCH  18  19
ENDBRANCH  17  18
ENDBRANCH   2  17
TORSDOF 9
ENDMDL
MODEL 3
REMARK VINA RESULT:      -6.6      1.812      3.987
REMARK  Name = 
REMARK  12 active torsions:
REMARK  status: ('A' for Active; 'I' for Inactive)
REMARK    1  A    between atoms: C_1  and  O_2
REMARK    2  A    between atoms: O_2  and  C_3
REMARK    3  A    between atoms: C_3  and  C_4
REMARK    4  A    between atoms: C_4  and  C_5
REMARK    5  A    between atoms: C_5  and  N_6
REMARK    6  A    between atoms: C_7  and  S_8
REMARK    7  A    between atoms: S_8  and  C_9
REMARK    8  A    between atoms: C_9  and  C_10
REMARK    9  A    between atoms: N_12  and  C_13
REMARK   10  A    between atoms: C_13  and  C_14
REMARK   11  A    between atoms: C_13  and  C_15
REMARK   12  A    between atoms: C_18  and  C_19
REMARK                            x       y       z     vdW  Elec       q    Type
REMARK                         _______ _______ _______ _____ _____    ______ ____
ROOT
ATOM      1  N   UNL     1       3.168   5.717  17.625  0.00  0.00    +0.000 N 
ATOM      2  C   UNL     1       4.390   5.347  17.130  0.00  0.00    +0.000 A 
ATOM      3  N   UNL     1       5.184   6.388  17.070  0.00  0.00    +0.000 NA
ATOM      4  N   UNL     1       4.501   7.457  17.589  0.00  0.00    +0.000 NA
ATOM      5  C   UNL     1       3.301   7.054  17.981  0.00  0.00    +0.000 A 
ENDROOT
BRANCH   5   6
ATOM      6  C   UNL     1       2.290   7.918  18.605  0.00  0.00    +0.000 A 
ATOM      7  C   UNL     1       2.022   7.792  19.976  0.00  0.00    +0.000 A 
ATOM      8  C   UNL     1       1.108   8.641  20.610  0.00  0.00    +0.000 A 
ATOM      9  C   UNL     1       0.454   9.632  19.884  0.00  0.00    +0.000 A 
ATOM     10  C   UNL     1       0.682   9.749  18.516  0.00  0.00    +0.000 A 
ATOM     11  C   UNL     1       1.572   8.879  17.878  0.00  0.00    +0.000 A 
ENDBRANCH   5   6
BRANCH   1  12
ATOM     12  C   UNL     1       1.978   4.891  17.717  0.00  0.00    +0.000 C 
BRANCH  12  13
ATOM     13  C   UNL     1       1.603   4.439  19.127  0.00  0.00    +0.000 C 
BRANCH  13  14
ATOM     14  C   UNL     1       2.823   4.161  19.993  0.00  0.00    +0.000 C 
BRANCH  14  16
ATOM     15  C   UNL     1       1.627   2.692  21.385  0.00  0.00    +0.000 C 
ATOM     16  O   UNL     1       2.369   3.903  21.320  0.00  0.00    +0.000 OA
ENDBRANCH  14  16
ENDBRANCH  13  14
ENDBRANCH  12  13
ENDBRANCH   1  12
BRANCH   2  17
ATOM     17  S   UNL     1       4.803   3.737  16.656  0.00  0.00    +0.000 S 
BRANCH  17  18
ATOM     18  C   UNL     1       6.495   3.953  16.044  0.00  0.00    +0.000 C 
BRANCH  18  19
ATOM     19  C   UNL     1       6.502   4.321  14.569  0.00  0.00    +0.000 C 
ATOM     20  O   UNL     1       6.732   5.462  14.177  0.00  0.00    +0.000 OA
ATOM     21  N   UNL     1       6.243   3.260  13.724  0.00  0.00    +0.000 N 
ATOM     22  H   UNL     1       5.717   2.484  14.126  0.00  0.00    +0.000 HD
BRANCH  21  23
ATOM     23  C   UNL     1       6.135   3.441  12.283  0.00  0.00    +0.000 C 
ATOM     24  C   UNL     1       6.968   2.384  11.566  0.00  0.00    +0.000 C 
ATOM     25  C   UNL     1       4.676   3.377  11.840  0.00  0.00    +0.000 C 
ENDBRANCH  21  23
ENDBRANCH  18  19
ENDBRANCH  17  18
ENDBRANCH   2  17
TORSDOF 9
ENDMDL
MODEL 4
REMARK VINA RESULT:      -6.5      2.044      4.263
REMARK  Name = 
REMARK  12 active torsions:
REMARK  status: ('A' for Active; 'I' for Inactive)
REMARK    1  A    between atoms: C_1  and  O_2
REMARK    2  A    between atoms: O_2  and  C_3
REMARK    3  A    between atoms: C_3  and  C_4
REMARK    4  A    between atoms: C_4  and  C_5
REMARK    5  A    between atoms: C_5  and  N_6
REMARK    6  A    between atoms: C_7  and  S_8
REMARK    7  A    between atoms: S_8  and  C_9
REMARK    8  A    between atoms: C_9  and  C_10
REMARK    9  A    between atoms: N_12  and  C_13
REMARK   10  A    between atoms: C_13  and  C_14
REMARK   11  A    between atoms: C_13  and  C_15
REMARK   12  A    between atoms: C_18  and  C_19
REMARK                            x       y       z     vdW  Elec       q    Type
REMARK                         _______ _______ _______ _____ _____    ______ ____
ROOT
ATOM      1  N   UNL     1       3.020   5.774  17.754  0.00  0.00    +0.000 N 
ATOM      2  C   UNL     1       4.194   5.387  17.169  0.00  0.00    +0.000 A 
ATOM      3  N   UNL     1       4.980   6.423  17.009  0.00  0.00    +0.000 NA
ATOM      4  N   UNL     1       4.343   7.510  17.550  0.00  0.00    +0.000 NA
ATOM      5  C   UNL     1       3.181   7.122  18.055  0.00  0.00    +0.000 A 
ENDROOT
BRANCH   5   6
ATOM      6  C   UNL     1       2.227   8.007  18.736  0.00  0.00    +0.000 A 
ATOM      7  C   UNL     1       1.551   8.993  18.001  0.00  0.00    +0.000 A 
ATOM      8  C   UNL     1       0.592   9.811  18.610  0.00  0.00    +0.000 A 
ATOM      9  C   UNL     1       0.291   9.650  19.960  0.00  0.00    +0.000 A 
ATOM     10  C   UNL     1       0.976   8.700  20.711  0.00  0.00    +0.000 A 
ATOM     11  C   UNL     1       1.956   7.906  20.108  0.00  0.00    +0.000 A 
ENDBRANCH   5   6
BRANCH   1  12
ATOM     12  C   UNL     1       1.842   4.955  17.974  0.00  0.00    +0.000 C 
BRANCH  12  13
ATOM     13  C   UNL     1       1.664   4.432  19.398  0.00  0.00    +0.000 C 
BRANCH  13  14
ATOM     14  C   UNL     1       0.918   3.106  19.443  0.00  0.00    +0.000 C 
BRANCH  14  16
ATOM     15  C   UNL     1       1.611   2.515  21.610  0.00  0.00    +0.000 C 
ATOM     16  O   UNL     1       1.688   2.197  20.226  0.00  0.00    +0.000 OA
ENDBRANCH  14  16
ENDBRANCH  13  14
ENDBRANCH  12  13
ENDBRANCH   1  12
BRANCH   2  17
ATOM     17  S   UNL     1       4.566   3.761  16.713  0.00  0.00    +0.000 S 
BRANCH  17  18
ATOM     18  C   UNL     1       6.266   3.926  16.104  0.00  0.00    +0.000 C 
BRANCH  18  19
ATOM     19  C   UNL     1       6.286   4.335  14.641  0.00  0.00    +0.000 C 
ATOM     20  O   UNL     1       6.359   5.510  14.287  0.00  0.00    +0.000 OA
ATOM     21  N   UNL     1       6.232   3.274  13.759  0.00  0.00    +0.000 N 
ATOM     22  H   UNL     1       5.812   2.416  14.116  0.00  0.00    +0.000 HD
BRANCH  21  23
ATOM     23  C   UNL     1       6.166   3.480  12.319  0.00  0.00    +0.000 C 
ATOM     24  C   UNL     1       6.983   2.408  11.606  0.00  0.00    +0.000 C 
ATOM     25  C   UNL     1       4.717   3.471  11.839  0.00  0.00    +0.000 C 
ENDBRANCH  21  23
ENDBRANCH  18  19
ENDBRANCH  17  18
ENDBRANCH   2  17
TORSDOF 9
ENDMDL
MODEL 5
REMARK VINA RESULT:      -6.5      1.706      3.795
REMARK  Name = 
REMARK  12 active torsions:
REMARK  status: ('A' for Active; 'I' for Inactive)
REMARK    1  A    between atoms: C_1  and  O_2
REMARK    2  A    between atoms: O_2  and  C_3
REMARK    3  A    between atoms: C_3  and  C_4
REMARK    4  A    between atoms: C_4  and  C_5
REMARK    5  A    between atoms: C_5  and  N_6
REMARK    6  A    between atoms: C_7  and  S_8
REMARK    7  A    between atoms: S_8  and  C_9
REMARK    8  A    between atoms: C_9  and  C_10
REMARK    9  A    between atoms: N_12  and  C_13
REMARK   10  A    between atoms: C_13  and  C_14
REMARK   11  A    between atoms: C_13  and  C_15
REMARK   12  A    between atoms: C_18  and  C_19
REMARK                            x       y       z     vdW  Elec       q    Type
REMARK                         _______ _______ _______ _____ _____    ______ ____
ROOT
ATOM      1  N   UNL     1       3.914   5.557  17.442  0.00  0.00    +0.000 N 
ATOM      2  C   UNL     1       4.857   5.452  16.455  0.00  0.00    +0.000 A 
ATOM      3  N   UNL     1       5.077   6.627  15.918  0.00  0.00    +0.000 NA
ATOM      4  N   UNL     1       4.312   7.540  16.596  0.00  0.00    +0.000 NA
ATOM      5  C   UNL     1       3.647   6.916  17.557  0.00  0.00    +0.000 A 
ENDROOT
BRANCH   5   6
ATOM      6  C   UNL     1       2.737   7.571  18.507  0.00  0.00    +0.000 A 
ATOM      7  C   UNL     1       2.091   8.761  18.139  0.00  0.00    +0.000 A 
ATOM      8  C   UNL     1       1.173   9.375  18.999  0.00  0.00    +0.000 A 
ATOM      9  C   UNL     1       0.884   8.805  20.235  0.00  0.00    +0.000 A 
ATOM     10  C   UNL     1       1.540   7.643  20.630  0.00  0.00    +0.000 A 
ATOM     11  C   UNL     1       2.480   7.049  19.783  0.00  0.00    +0.000 A 
ENDBRANCH   5   6
BRANCH   1  12
ATOM     12  C   UNL     1       3.297   4.469  18.179  0.00  0.00    +0.000 C 
BRANCH  12  13
ATOM     13  C   UNL     1       1.961   3.978  17.625  0.00  0.00    +0.000 C 
BRANCH  13  14
ATOM     14  C   UNL     1       1.072   3.371  18.702  0.00  0.00    +0.000 C 
BRANCH  14  16
ATOM     15  C   UNL     1       1.336   3.126  21.025  0.00  0.00    +0.000 C 
ATOM     16  O   UNL     1       1.915   2.893  19.747  0.00  0.00    +0.000 OA
ENDBRANCH  14  16
ENDBRANCH  13  14
ENDBRANCH  12  13
ENDBRANCH   1  12
BRANCH   2  17
ATOM     17  S   UNL     1       5.630   3.974  15.999  0.00  0.00    +0.000 S 
BRANCH  17  18
ATOM     18  C   UNL     1       7.096   4.579  15.122  0.00  0.00    +0.000 C 
BRANCH  18  19
ATOM     19  C   UNL     1       6.951   4.395  13.620  0.00  0.00    +0.000 C 
ATOM     20  O   UNL     1       7.551   5.098  12.811  0.00  0.00    +0.000 OA
ATOM     21  N   UNL     1       6.104   3.366  13.259  0.00  0.00    +0.000 N 
ATOM     22  H   UNL     1       5.398   3.104  13.947  0.00  0.00    +0.000 HD
BRANCH  21  23
ATOM     23  C   UNL     1       5.786   3.093  11.865  0.00  0.00    +0.000 C 
ATOM     24  C   UNL     1       6.181   1.662  11.515  0.00  0.00    +0.000 C 
ATOM     25  C   UNL     1       4.303   3.331  11.593  0.00  0.00    +0.000 C 
ENDBRANCH  21  23
ENDBRANCH  18  19
ENDBRANCH  17  18
ENDBRANCH   2  17
TORSDOF 9
ENDMDL
MODEL 6
REMARK VINA RESULT:      -6.4      4.001      5.715
REMARK  Name = 
REMARK  12 active torsions:
REMARK  status: ('A' for Active; 'I' for Inactive)
REMARK    1  A    between atoms: C_1  and  O_2
REMARK    2  A    between atoms: O_2  and  C_3
REMARK    3  A    between atoms: C_3  and  C_4
REMARK    4  A    between atoms: C_4  and  C_5
REMARK    5  A    between atoms: C_5  and  N_6
REMARK    6  A    between atoms: C_7  and  S_8
REMARK    7  A    between atoms: S_8  and  C_9
REMARK    8  A    between atoms: C_9  and  C_10
REMARK    9  A    between atoms: N_12  and  C_13
REMARK   10  A    between atoms: C_13  and  C_14
REMARK   11  A    between atoms: C_13  and  C_15
REMARK   12  A    between atoms: C_18  and  C_19
REMARK                            x       y       z     vdW  Elec       q    Type
REMARK                         _______ _______ _______ _____ _____    ______ ____
ROOT
ATOM      1  N   UNL     1       4.909   5.788  18.157  0.00  0.00    +0.000 N 
ATOM      2  C   UNL     1       6.271   5.915  18.216  0.00  0.00    +0.000 A 
ATOM      3  N   UNL     1       6.768   5.038  19.052  0.00  0.00    +0.000 NA
ATOM      4  N   UNL     1       5.727   4.274  19.516  0.00  0.00    +0.000 NA
ATOM      5  C   UNL     1       4.605   4.680  18.939  0.00  0.00    +0.000 A 
ENDROOT
BRANCH   5   6
ATOM      6  C   UNL     1       3.282   4.086  19.173  0.00  0.00    +0.000 A 
ATOM      7  C   UNL     1       2.602   4.359  20.369  0.00  0.00    +0.000 A 
ATOM      8  C   UNL     1       1.315   3.856  20.593  0.00  0.00    +0.000 A 
ATOM      9  C   UNL     1       0.688   3.079  19.624  0.00  0.00    +0.000 A 
ATOM     10  C   UNL     1       1.362   2.771  18.446  0.00  0.00    +0.000 A 
ATOM     11  C   UNL     1       2.660   3.247  18.237  0.00  0.00    +0.000 A 
ENDBRANCH   5   6
BRANCH   1  12
ATOM     12  C   UNL     1       3.981   6.657  17.456  0.00  0.00    +0.000 C 
BRANCH  12  13
ATOM     13  C   UNL     1       2.983   7.399  18.343  0.00  0.00    +0.000 C 
BRANCH  13  14
ATOM     14  C   UNL     1       2.159   8.417  17.567  0.00  0.00    +0.000 C 
BRANCH  14  16
ATOM     15  C   UNL     1       0.565   9.912  18.434  0.00  0.00    +0.000 C 
ATOM     16  O   UNL     1       1.938   9.541  18.416  0.00  0.00    +0.000 OA
ENDBRANCH  14  16
ENDBRANCH  13  14
ENDBRANCH  12  13
ENDBRANCH   1  12
BRANCH   2  17
ATOM     17  S   UNL     1       7.182   7.072  17.310  0.00  0.00    +0.000 S 
BRANCH  17  18
ATOM     18  C   UNL     1       8.343   7.688  18.559  0.00  0.00    +0.000 C 
BRANCH  18  19
ATOM     19  C   UNL     1       8.492   9.198  18.470  0.00  0.00    +0.000 C 
ATOM     20  O   UNL     1       7.816   9.882  17.706  0.00  0.00    +0.000 OA
ATOM     21  N   UNL     1       9.436   9.722  19.331  0.00  0.00    +0.000 N 
ATOM     22  H   UNL     1      10.173   9.082  19.631  0.00  0.00    +0.000 HD
BRANCH  21  23
ATOM     23  C   UNL     1       9.768  11.139  19.330  0.00  0.00    +0.000 C 
ATOM     24  C   UNL     1       9.238  11.794  20.601  0.00  0.00    +0.000 C 
ATOM     25  C   UNL     1      11.275  11.341  19.201  0.00  0.00    +0.000 C 
ENDBRANCH  21  23
ENDBRANCH  18  19
ENDBRANCH  17  18
ENDBRANCH   2  17
TORSDOF 9
ENDMDL
MODEL 7
REMARK VINA RESULT:      -6.3      1.191      1.442
REMARK  Name = 
REMARK  12 active torsions:
REMARK  status: ('A' for Active; 'I' for Inactive)
REMARK    1  A    between atoms: C_1  and  O_2
REMARK    2  A    between atoms: O_2  and  C_3
REMARK    3  A    between atoms: C_3  and  C_4
REMARK    4  A    between atoms: C_4  and  C_5
REMARK    5  A    between atoms: C_5  and  N_6
REMARK    6  A    between atoms: C_7  and  S_8
REMARK    7  A    between atoms: S_8  and  C_9
REMARK    8  A    between atoms: C_9  and  C_10
REMARK    9  A    between atoms: N_12  and  C_13
REMARK   10  A    between atoms: C_13  and  C_14
REMARK   11  A    between atoms: C_13  and  C_15
REMARK   12  A    between atoms: C_18  and  C_19
REMARK                            x       y       z     vdW  Elec       q    Type
REMARK                         _______ _______ _______ _____ _____    ______ ____
ROOT
ATOM      1  N   UNL     1       4.494   5.085  17.928  0.00  0.00    +0.000 N 
ATOM      2  C   UNL     1       5.807   5.104  17.541  0.00  0.00    +0.000 A 
ATOM      3  N   UNL     1       6.522   4.350  18.339  0.00  0.00    +0.000 NA
ATOM      4  N   UNL     1       5.663   3.772  19.238  0.00  0.00    +0.000 NA
ATOM      5  C   UNL     1       4.426   4.163  18.966  0.00  0.00    +0.000 A 
ENDROOT
BRANCH   5   6
ATOM      6  C   UNL     1       3.231   3.734  19.705  0.00  0.00    +0.000 A 
ATOM      7  C   UNL     1       2.278   2.924  19.071  0.00  0.00    +0.000 A 
ATOM      8  C   UNL     1       1.160   2.452  19.767  0.00  0.00    +0.000 A 
ATOM      9  C   UNL     1       0.983   2.777  21.109  0.00  0.00    +0.000 A 
ATOM     10  C   UNL     1       1.901   3.606  21.744  0.00  0.00    +0.000 A 
ATOM     11  C   UNL     1       3.000   4.104  21.038  0.00  0.00    +0.000 A 
ENDBRANCH   5   6
BRANCH   1  12
ATOM     12  C   UNL     1       3.414   5.892  17.391  0.00  0.00    +0.000 C 
BRANCH  12  13
ATOM     13  C   UNL     1       3.482   7.382  17.724  0.00  0.00    +0.000 C 
BRANCH  13  14
ATOM     14  C   UNL     1       2.274   7.856  18.520  0.00  0.00    +0.000 C 
BRANCH  14  16
ATOM     15  C   UNL     1       1.683  10.086  18.071  0.00  0.00    +0.000 C 
ATOM     16  O   UNL     1       1.515   8.728  17.686  0.00  0.00    +0.000 OA
ENDBRANCH  14  16
ENDBRANCH  13  14
ENDBRANCH  12  13
ENDBRANCH   1  12
BRANCH   2  17
ATOM     17  S   UNL     1       6.413   6.001  16.193  0.00  0.00    +0.000 S 
BRANCH  17  18
ATOM     18  C   UNL     1       7.511   4.792  15.406  0.00  0.00    +0.000 C 
BRANCH  18  19
ATOM     19  C   UNL     1       7.285   4.743  13.905  0.00  0.00    +0.000 C 
ATOM     20  O   UNL     1       7.801   5.551  13.136  0.00  0.00    +0.000 OA
ATOM     21  N   UNL     1       6.470   3.708  13.492  0.00  0.00    +0.000 N 
ATOM     22  H   UNL     1       5.819   3.345  14.189  0.00  0.00    +0.000 HD
BRANCH  21  23
ATOM     23  C   UNL     1       6.082   3.551  12.097  0.00  0.00    +0.000 C 
ATOM     24  C   UNL     1       6.879   2.416  11.465  0.00  0.00    +0.000 C 
ATOM     25  C   UNL     1       4.582   3.295  11.979  0.00  0.00    +0.000 C 
ENDBRANCH  21  23
ENDBRANCH  18  19
ENDBRANCH  17  18
ENDBRANCH   2  17
TORSDOF 9
ENDMDL
MODEL 8
REMARK VINA RESULT:      -6.3      1.150      1.287
REMARK  Name = 
REMARK  12 active torsions:
REMARK  status: ('A' for Active; 'I' for Inactive)
REMARK    1  A    between atoms: C_1  and  O_2
REMARK    2  A    between atoms: O_2  and  C_3
REMARK    3  A    between atoms: C_3  and  C_4
REMARK    4  A    between atoms: C_4  and  C_5
REMARK    5  A    between atoms: C_5  and  N_6
REMARK    6  A    between atoms: C_7  and  S_8
REMARK    7  A    between atoms: S_8  and  C_9
REMARK    8  A    between atoms: C_9  and  C_10
REMARK    9  A    between atoms: N_12  and  C_13
REMARK   10  A    between atoms: C_13  and  C_14
REMARK   11  A    between atoms: C_13  and  C_15
REMARK   12  A    between atoms: C_18  and  C_19
REMARK                            x       y       z     vdW  Elec       q    Type
REMARK                         _______ _______ _______ _____ _____    ______ ____
ROOT
ATOM      1  N   UNL     1       4.381   4.908  17.988  0.00  0.00    +0.000 N 
ATOM      2  C   UNL     1       5.692   5.042  17.620  0.00  0.00    +0.000 A 
ATOM      3  N   UNL     1       6.464   4.408  18.467  0.00  0.00    +0.000 NA
ATOM      4  N   UNL     1       5.651   3.791  19.383  0.00  0.00    +0.000 NA
ATOM      5  C   UNL     1       4.387   4.037  19.072  0.00  0.00    +0.000 A 
ENDROOT
BRANCH   5   6
ATOM      6  C   UNL     1       3.227   3.526  19.814  0.00  0.00    +0.000 A 
ATOM      7  C   UNL     1       3.036   3.908  21.150  0.00  0.00    +0.000 A 
ATOM      8  C   UNL     1       1.909   3.485  21.864  0.00  0.00    +0.000 A 
ATOM      9  C   UNL     1       0.954   2.680  21.250  0.00  0.00    +0.000 A 
ATOM     10  C   UNL     1       1.143   2.265  19.936  0.00  0.00    +0.000 A 
ATOM     11  C   UNL     1       2.286   2.662  19.235  0.00  0.00    +0.000 A 
ENDBRANCH   5   6
BRANCH   1  12
ATOM     12  C   UNL     1       3.235   5.571  17.392  0.00  0.00    +0.000 C 
BRANCH  12  13
ATOM     13  C   UNL     1       2.472   6.517  18.318  0.00  0.00    +0.000 C 
BRANCH  13  14
ATOM     14  C   UNL     1       2.552   7.967  17.863  0.00  0.00    +0.000 C 
BRANCH  14  16
ATOM     15  C   UNL     1       1.568  10.049  18.331  0.00  0.00    +0.000 C 
ATOM     16  O   UNL     1       1.915   8.772  18.852  0.00  0.00    +0.000 OA
ENDBRANCH  14  16
ENDBRANCH  13  14
ENDBRANCH  12  13
ENDBRANCH   1  12
BRANCH   2  17
ATOM     17  S   UNL     1       6.231   5.927  16.236  0.00  0.00    +0.000 S 
BRANCH  17  18
ATOM     18  C   UNL     1       7.381   4.754  15.469  0.00  0.00    +0.000 C 
BRANCH  18  19
ATOM     19  C   UNL     1       7.205   4.721  13.961  0.00  0.00    +0.000 C 
ATOM     20  O   UNL     1       7.692   5.573  13.223  0.00  0.00    +0.000 OA
ATOM     21  N   UNL     1       6.468   3.646  13.504  0.00  0.00    +0.000 N 
ATOM     22  H   UNL     1       5.820   3.230  14.173  0.00  0.00    +0.000 HD
BRANCH  21  23
ATOM     23  C   UNL     1       6.134   3.492  12.095  0.00  0.00    +0.000 C 
ATOM     24  C   UNL     1       6.859   2.280  11.522  0.00  0.00    +0.000 C 
ATOM     25  C   UNL     1       4.624   3.363  11.909  0.00  0.00    +0.000 C 
ENDBRANCH  21  23
ENDBRANCH  18  19
ENDBRANCH  17  18
ENDBRANCH   2  17
TORSDOF 9
ENDMDL
MODEL 9
REMARK VINA RESULT:      -6.2      1.507      1.965
REMARK  Name = 
REMARK  12 active torsions:
REMARK  status: ('A' for Active; 'I' for Inactive)
REMARK    1  A    between atoms: C_1  and  O_2
REMARK    2  A    between atoms: O_2  and  C_3
REMARK    3  A    between atoms: C_3  and  C_4
REMARK    4  A    between atoms: C_4  and  C_5
REMARK    5  A    between atoms: C_5  and  N_6
REMARK    6  A    between atoms: C_7  and  S_8
REMARK    7  A    between atoms: S_8  and  C_9
REMARK    8  A    between atoms: C_9  and  C_10
REMARK    9  A    between atoms: N_12  and  C_13
REMARK   10  A    between atoms: C_13  and  C_14
REMARK   11  A    between atoms: C_13  and  C_15
REMARK   12  A    between atoms: C_18  and  C_19
REMARK                            x       y       z     vdW  Elec       q    Type
REMARK                         _______ _______ _______ _____ _____    ______ ____
ROOT
ATOM      1  N   UNL     1       4.431   5.322  18.245  0.00  0.00    +0.000 N 
ATOM      2  C   UNL     1       5.792   5.412  18.137  0.00  0.00    +0.000 A 
ATOM      3  N   UNL     1       6.364   4.520  18.909  0.00  0.00    +0.000 NA
ATOM      4  N   UNL     1       5.368   3.784  19.496  0.00  0.00    +0.000 NA
ATOM      5  C   UNL     1       4.195   4.221  19.060  0.00  0.00    +0.000 A 
ENDROOT
BRANCH   5   6
ATOM      6  C   UNL     1       2.895   3.662  19.455  0.00  0.00    +0.000 A 
ATOM      7  C   UNL     1       2.060   3.095  18.481  0.00  0.00    +0.000 A 
ATOM      8  C   UNL     1       0.843   2.501  18.835  0.00  0.00    +0.000 A 
ATOM      9  C   UNL     1       0.446   2.462  20.169  0.00  0.00    +0.000 A 
ATOM     10  C   UNL     1       1.246   3.050  21.144  0.00  0.00    +0.000 A 
ATOM     11  C   UNL     1       2.446   3.670  20.784  0.00  0.00    +0.000 A 
ENDBRANCH   5   6
BRANCH   1  12
ATOM     12  C   UNL     1       3.448   6.217  17.662  0.00  0.00    +0.000 C 
BRANCH  12  13
ATOM     13  C   UNL     1       2.821   7.220  18.629  0.00  0.00    +0.000 C 
BRANCH  13  14
ATOM     14  C   UNL     1       2.621   8.590  17.997  0.00  0.00    +0.000 C 
BRANCH  14  16
ATOM     15  C   UNL     1       0.712   9.904  18.397  0.00  0.00    +0.000 C 
ATOM     16  O   UNL     1       1.228   8.754  17.738  0.00  0.00    +0.000 OA
ENDBRANCH  14  16
ENDBRANCH  13  14
ENDBRANCH  12  13
ENDBRANCH   1  12
BRANCH   2  17
ATOM     17  S   UNL     1       6.617   6.546  17.126  0.00  0.00    +0.000 S 
BRANCH  17  18
ATOM     18  C   UNL     1       5.804   6.278  15.528  0.00  0.00    +0.000 C 
BRANCH  18  19
ATOM     19  C   UNL     1       6.428   5.109  14.785  0.00  0.00    +0.000 C 
ATOM     20  O   UNL     1       7.495   4.607  15.127  0.00  0.00    +0.000 OA
ATOM     21  N   UNL     1       5.681   4.660  13.713  0.00  0.00    +0.000 N 
ATOM     22  H   UNL     1       5.042   5.338  13.297  0.00  0.00    +0.000 HD
BRANCH  21  23
ATOM     23  C   UNL     1       6.160   3.598  12.841  0.00  0.00    +0.000 C 
ATOM     24  C   UNL     1       5.007   3.062  11.999  0.00  0.00    +0.000 C 
ATOM     25  C   UNL     1       7.295   4.100  11.953  0.00  0.00    +0.000 C 
ENDBRANCH  21  23
ENDBRANCH  18  19
ENDBRANCH  17  18
ENDBRANCH   2  17
TORSDOF 9
ENDMDL
