MODEL 1
REMARK VINA RESULT:      -7.6      0.000      0.000
REMARK  Name = 
REMARK  9 active torsions:
REMARK  status: ('A' for Active; 'I' for Inactive)
REMARK    1  A    between atoms: C_1  and  C_2
REMARK    2  A    between atoms: C_2  and  C_3
REMARK    3  A    between atoms: C_3  and  C_4
REMARK    4  A    between atoms: C_4  and  N_5
REMARK    5  A    between atoms: C_4  and  C_9
REMARK    6  A    between atoms: C_6  and  C_7
REMARK    7  A    between atoms: N_11  and  C_12
REMARK    8  A    between atoms: C_12  and  C_13
REMARK    9  A    between atoms: C_13  and  C_14
REMARK                            x       y       z     vdW  Elec       q    Type
REMARK                         _______ _______ _______ _____ _____    ______ ____
ROOT
ATOM      1  C   UNL     1       4.265   4.643  19.157  0.00  0.00    +0.000 C 
ATOM      2  O   UNL     1       4.531   3.438  19.155  0.00  0.00    +0.000 OA
ATOM      3  N   UNL     1       5.209   5.611  18.894  0.00  0.00    +0.000 N 
ATOM      4  H   UNL     1       4.892   6.555  18.675  0.00  0.00    +0.000 HD
ENDROOT
BRANCH   1   5
ATOM      5  C   UNL     1       2.828   5.175  19.353  0.00  0.00    +0.000 C 
BRANCH   5   6
ATOM      6  N   UNL     1       2.630   6.324  18.453  0.00  0.00    +0.000 N 
ATOM      7  C   UNL     1       2.251   7.564  18.909  0.00  0.00    +0.000 C 
ATOM      8  C   UNL     1       2.045   8.596  17.828  0.00  0.00    +0.000 C 
ATOM      9  O   UNL     1       2.064   7.811  20.094  0.00  0.00    +0.000 OA
ATOM     10  H   UNL     1       3.020   6.247  17.523  0.00  0.00    +0.000 HD
ENDBRANCH   5   6
BRANCH   5  11
ATOM     11  C   UNL     1       1.771   4.107  19.017  0.00  0.00    +0.000 C 
BRANCH  11  13
ATOM     12  C   UNL     1       1.635   3.034  21.297  0.00  0.00    +0.000 C 
ATOM     13  C   UNL     1       0.853   3.725  20.182  0.00  0.00    +0.000 C 
ENDBRANCH  11  13
ENDBRANCH   5  11
ENDBRANCH   1   5
BRANCH   3  14
ATOM     14  C   UNL     1       6.603   5.290  18.625  0.00  0.00    +0.000 C 
BRANCH  14  15
ATOM     15  C   UNL     1       7.202   6.065  17.452  0.00  0.00    +0.000 C 
BRANCH  15  16
ATOM     16  C   UNL     1       6.924   5.403  16.150  0.00  0.00    +0.000 A 
ATOM     17  N   UNL     1       5.964   4.551  15.846  0.00  0.00    +0.000 NA
ATOM     18  C   UNL     1       6.174   4.293  14.515  0.00  0.00    +0.000 A 
ATOM     19  C   UNL     1       5.484   3.472  13.616  0.00  0.00    +0.000 A 
ATOM     20  C   UNL     1       5.921   3.437  12.282  0.00  0.00    +0.000 A 
ATOM     21  C   UNL     1       7.023   4.194  11.863  0.00  0.00    +0.000 A 
ATOM     22  C   UNL     1       7.733   5.007  12.754  0.00  0.00    +0.000 A 
ATOM     23  C   UNL     1       7.262   5.020  14.061  0.00  0.00    +0.000 A 
ATOM     24  O   UNL     1       7.755   5.736  15.112  0.00  0.00    +0.000 OA
ENDBRANCH  15  16
ENDBRANCH  14  15
ENDBRANCH   3  14
TORSDOF 7
ENDMDL
MODEL 2
REMARK VINA RESULT:      -7.5      2.689      7.945
REMARK  Name = 
REMARK  9 active torsions:
REMARK  status: ('A' for Active; 'I' for Inactive)
REMARK    1  A    between atoms: C_1  and  C_2
REMARK    2  A    between atoms: C_2  and  C_3
REMARK    3  A    between atoms: C_3  and  C_4
REMARK    4  A    between atoms: C_4  and  N_5
REMARK    5  A    between atoms: C_4  and  C_9
REMARK    6  A    between atoms: C_6  and  C_7
REMARK    7  A    between atoms: N_11  and  C_12
REMARK    8  A    between atoms: C_12  and  C_13
REMARK    9  A    between atoms: C_13  and  C_14
REMARK                            x       y       z     vdW  Elec       q    Type
REMARK                         _______ _______ _______ _____ _____    ______ ____
ROOT
ATOM      1  C   UNL     1       6.402   3.832  13.050  0.00  0.00    +0.000 C 
ATOM      2  O   UNL     1       7.338   4.628  12.945  0.00  0.00    +0.000 OA
ATOM      3  N   UNL     1       5.853   3.489  14.264  0.00  0.00    +0.000 N 
ATOM      4  H   UNL     1       4.946   3.024  14.276  0.00  0.00    +0.000 HD
ENDROOT
BRANCH   1   5
ATOM      5  C   UNL     1       5.690   3.224  11.820  0.00  0.00    +0.000 C 
BRANCH   5   6
ATOM      6  N   UNL     1       5.684   1.758  11.964  0.00  0.00    +0.000 N 
ATOM      7  C   UNL     1       6.408   0.932  11.138  0.00  0.00    +0.000 C 
ATOM      8  C   UNL     1       6.228  -0.542  11.408  0.00  0.00    +0.000 C 
ATOM      9  O   UNL     1       7.121   1.348  10.234  0.00  0.00    +0.000 OA
ATOM     10  H   UNL     1       5.335   1.388  12.838  0.00  0.00    +0.000 HD
ENDBRANCH   5   6
BRANCH   5  11
ATOM     11  C   UNL     1       4.232   3.707  11.705  0.00  0.00    +0.000 C 
BRANCH  11  13
ATOM     12  C   UNL     1       2.927   4.226   9.609  0.00  0.00    +0.000 C 
ATOM     13  C   UNL     1       3.456   3.122  10.522  0.00  0.00    +0.000 C 
ENDBRANCH  11  13
ENDBRANCH   5  11
ENDBRANCH   1   5
BRANCH   3  14
ATOM     14  C   UNL     1       6.356   4.014  15.525  0.00  0.00    +0.000 C 
BRANCH  14  15
ATOM     15  C   UNL     1       5.570   5.214  16.055  0.00  0.00    +0.000 C 
BRANCH  15  16
ATOM     16  C   UNL     1       4.444   4.797  16.930  0.00  0.00    +0.000 A 
ATOM     17  N   UNL     1       3.693   3.715  16.851  0.00  0.00    +0.000 NA
ATOM     18  C   UNL     1       2.840   3.837  17.918  0.00  0.00    +0.000 A 
ATOM     19  C   UNL     1       1.812   3.005  18.376  0.00  0.00    +0.000 A 
ATOM     20  C   UNL     1       1.123   3.383  19.539  0.00  0.00    +0.000 A 
ATOM     21  C   UNL     1       1.446   4.565  20.219  0.00  0.00    +0.000 A 
ATOM     22  C   UNL     1       2.461   5.416  19.765  0.00  0.00    +0.000 A 
ATOM     23  C   UNL     1       3.124   4.999  18.616  0.00  0.00    +0.000 A 
ATOM     24  O   UNL     1       4.156   5.627  17.982  0.00  0.00    +0.000 OA
ENDBRANCH  15  16
ENDBRANCH  14  15
ENDBRANCH   3  14
TORSDOF 7
ENDMDL
MODEL 3
REMARK VINA RESULT:      -7.2      2.099      3.117
REMARK  Name = 
REMARK  9 active torsions:
REMARK  status: ('A' for Active; 'I' for Inactive)
REMARK    1  A    between atoms: C_1  and  C_2
REMARK    2  A    between atoms: C_2  and  C_3
REMARK    3  A    between atoms: C_3  and  C_4
REMARK    4  A    between atoms: C_4  and  N_5
REMARK    5  A    between atoms: C_4  and  C_9
REMARK    6  A    between atoms: C_6  and  C_7
REMARK    7  A    between atoms: N_11  and  C_12
REMARK    8  A    between atoms: C_12  and  C_13
REMARK    9  A    between atoms: C_13  and  C_14
REMARK                            x       y       z     vdW  Elec       q    Type
REMARK                         _______ _______ _______ _____ _____    ______ ____
ROOT
ATOM      1  C   UNL     1       5.256   4.324  19.077  0.00  0.00    +0.000 C 
ATOM      2  O   UNL     1       4.990   5.357  19.697  0.00  0.00    +0.000 OA
ATOM      3  N   UNL     1       6.426   4.163  18.371  0.00  0.00    +0.000 N 
ATOM      4  H   UNL     1       6.698   3.223  18.084  0.00  0.00    +0.000 HD
ENDROOT
BRANCH   1   5
ATOM      5  C   UNL     1       4.347   3.075  19.120  0.00  0.00    +0.000 C 
BRANCH   5   6
ATOM      6  N   UNL     1       3.204   3.361  20.005  0.00  0.00    +0.000 N 
ATOM      7  C   UNL     1       3.028   2.728  21.212  0.00  0.00    +0.000 C 
ATOM      8  C   UNL     1       1.768   3.115  21.947  0.00  0.00    +0.000 C 
ATOM      9  O   UNL     1       3.809   1.893  21.649  0.00  0.00    +0.000 OA
ATOM     10  H   UNL     1       2.688   4.211  19.822  0.00  0.00    +0.000 HD
ENDBRANCH   5   6
BRANCH   5  11
ATOM     11  C   UNL     1       3.802   2.714  17.726  0.00  0.00    +0.000 C 
BRANCH  11  13
ATOM     12  C   UNL     1       1.711   4.090  17.401  0.00  0.00    +0.000 C 
ATOM     13  C   UNL     1       2.275   2.687  17.622  0.00  0.00    +0.000 C 
ENDBRANCH  11  13
ENDBRANCH   5  11
ENDBRANCH   1   5
BRANCH   3  14
ATOM     14  C   UNL     1       7.430   5.213  18.272  0.00  0.00    +0.000 C 
BRANCH  14  15
ATOM     15  C   UNL     1       7.138   6.249  17.187  0.00  0.00    +0.000 C 
BRANCH  15  16
ATOM     16  C   UNL     1       6.982   5.621  15.849  0.00  0.00    +0.000 A 
ATOM     17  N   UNL     1       7.837   5.594  14.844  0.00  0.00    +0.000 NA
ATOM     18  C   UNL     1       7.181   4.866  13.884  0.00  0.00    +0.000 A 
ATOM     19  C   UNL     1       7.567   4.484  12.594  0.00  0.00    +0.000 A 
ATOM     20  C   UNL     1       6.680   3.695  11.845  0.00  0.00    +0.000 A 
ATOM     21  C   UNL     1       5.439   3.306  12.367  0.00  0.00    +0.000 A 
ATOM     22  C   UNL     1       5.033   3.693  13.650  0.00  0.00    +0.000 A 
ATOM     23  C   UNL     1       5.944   4.466  14.360  0.00  0.00    +0.000 A 
ATOM     24  O   UNL     1       5.805   4.953  15.627  0.00  0.00    +0.000 OA
ENDBRANCH  15  16
ENDBRANCH  14  15
ENDBRANCH   3  14
TORSDOF 7
ENDMDL
MODEL 4
REMARK VINA RESULT:      -7.1      0.796      1.313
REMARK  Name = 
REMARK  9 active torsions:
REMARK  status: ('A' for Active; 'I' for Inactive)
REMARK    1  A    between atoms: C_1  and  C_2
REMARK    2  A    between atoms: C_2  and  C_3
REMARK    3  A    between atoms: C_3  and  C_4
REMARK    4  A    between atoms: C_4  and  N_5
REMARK    5  A    between atoms: C_4  and  C_9
REMARK    6  A    between atoms: C_6  and  C_7
REMARK    7  A    between atoms: N_11  and  C_12
REMARK    8  A    between atoms: C_12  and  C_13
REMARK    9  A    between atoms: C_13  and  C_14
REMARK                            x       y       z     vdW  Elec       q    Type
REMARK                         _______ _______ _______ _____ _____    ______ ____
ROOT
ATOM      1  C   UNL     1       3.967   4.343  18.615  0.00  0.00    +0.000 C 
ATOM      2  O   UNL     1       4.090   3.219  18.122  0.00  0.00    +0.000 OA
ATOM      3  N   UNL     1       5.027   5.211  18.756  0.00  0.00    +0.000 N 
ATOM      4  H   UNL     1       4.831   6.194  18.942  0.00  0.00    +0.000 HD
ENDROOT
BRANCH   1   5
ATOM      5  C   UNL     1       2.595   4.923  19.026  0.00  0.00    +0.000 C 
BRANCH   5   6
ATOM      6  N   UNL     1       2.351   6.145  18.241  0.00  0.00    +0.000 N 
ATOM      7  C   UNL     1       2.252   7.388  18.818  0.00  0.00    +0.000 C 
ATOM      8  C   UNL     1       1.944   8.506  17.854  0.00  0.00    +0.000 C 
ATOM      9  O   UNL     1       2.374   7.576  20.022  0.00  0.00    +0.000 OA
ATOM     10  H   UNL     1       2.506   6.083  17.243  0.00  0.00    +0.000 HD
ENDBRANCH   5   6
BRANCH   5  11
ATOM     11  C   UNL     1       1.449   3.932  18.752  0.00  0.00    +0.000 C 
BRANCH  11  13
ATOM     12  C   UNL     1       1.621   3.189  21.158  0.00  0.00    +0.000 C 
ATOM     13  C   UNL     1       0.675   3.488  19.997  0.00  0.00    +0.000 C 
ENDBRANCH  11  13
ENDBRANCH   5  11
ENDBRANCH   1   5
BRANCH   3  14
ATOM     14  C   UNL     1       6.383   4.858  18.364  0.00  0.00    +0.000 C 
BRANCH  14  15
ATOM     15  C   UNL     1       7.030   5.855  17.402  0.00  0.00    +0.000 C 
BRANCH  15  16
ATOM     16  C   UNL     1       6.958   5.392  15.992  0.00  0.00    +0.000 A 
ATOM     17  N   UNL     1       7.788   5.642  14.997  0.00  0.00    +0.000 NA
ATOM     18  C   UNL     1       7.248   4.947  13.945  0.00  0.00    +0.000 A 
ATOM     19  C   UNL     1       7.669   4.810  12.618  0.00  0.00    +0.000 A 
ATOM     20  C   UNL     1       6.915   3.989  11.765  0.00  0.00    +0.000 A 
ATOM     21  C   UNL     1       5.766   3.331  12.225  0.00  0.00    +0.000 A 
ATOM     22  C   UNL     1       5.323   3.471  13.545  0.00  0.00    +0.000 A 
ATOM     23  C   UNL     1       6.103   4.285  14.357  0.00  0.00    +0.000 A 
ATOM     24  O   UNL     1       5.907   4.570  15.677  0.00  0.00    +0.000 OA
ENDBRANCH  15  16
ENDBRANCH  14  15
ENDBRANCH   3  14
TORSDOF 7
ENDMDL
MODEL 5
REMARK VINA RESULT:      -7.1      2.887      4.523
REMARK  Name = 
REMARK  9 active torsions:
REMARK  status: ('A' for Active; 'I' for Inactive)
REMARK    1  A    between atoms: C_1  and  C_2
REMARK    2  A    between atoms: C_2  and  C_3
REMARK    3  A    between atoms: C_3  and  C_4
REMARK    4  A    between atoms: C_4  and  N_5
REMARK    5  A    between atoms: C_4  and  C_9
REMARK    6  A    between atoms: C_6  and  C_7
REMARK    7  A    between atoms: N_11  and  C_12
REMARK    8  A    between atoms: C_12  and  C_13
REMARK    9  A    between atoms: C_13  and  C_14
REMARK                            x       y       z     vdW  Elec       q    Type
REMARK                         _______ _______ _______ _____ _____    ______ ____
ROOT
ATOM      1  C   UNL     1       2.112   5.282  20.162  0.00  0.00    +0.000 C 
ATOM      2  O   UNL     1       2.142   4.833  21.310  0.00  0.00    +0.000 OA
ATOM      3  N   UNL     1       2.267   4.487  19.049  0.00  0.00    +0.000 N 
ATOM      4  H   UNL     1       1.999   4.861  18.140  0.00  0.00    +0.000 HD
ENDROOT
BRANCH   1   5
ATOM      5  C   UNL     1       1.796   6.765  19.861  0.00  0.00    +0.000 C 
BRANCH   5   6
ATOM      6  N   UNL     1       1.907   7.529  21.115  0.00  0.00    +0.000 N 
ATOM      7  C   UNL     1       1.045   8.548  21.439  0.00  0.00    +0.000 C 
ATOM      8  C   UNL     1       1.358   9.247  22.739  0.00  0.00    +0.000 C 
ATOM      9  O   UNL     1       0.114   8.889  20.721  0.00  0.00    +0.000 OA
ATOM     10  H   UNL     1       2.477   7.123  21.845  0.00  0.00    +0.000 HD
ENDBRANCH   5   6
BRANCH   5  11
ATOM     11  C   UNL     1       2.778   7.364  18.838  0.00  0.00    +0.000 C 
BRANCH  11  13
ATOM     12  C   UNL     1       2.042   9.591  17.906  0.00  0.00    +0.000 C 
ATOM     13  C   UNL     1       2.115   8.085  17.660  0.00  0.00    +0.000 C 
ENDBRANCH  11  13
ENDBRANCH   5  11
ENDBRANCH   1   5
BRANCH   3  14
ATOM     14  C   UNL     1       2.511   3.055  19.141  0.00  0.00    +0.000 C 
BRANCH  14  15
ATOM     15  C   UNL     1       3.806   2.602  18.466  0.00  0.00    +0.000 C 
BRANCH  15  16
ATOM     16  C   UNL     1       4.724   3.741  18.209  0.00  0.00    +0.000 A 
ATOM     17  N   UNL     1       4.705   4.609  17.215  0.00  0.00    +0.000 NA
ATOM     18  C   UNL     1       5.758   5.442  17.495  0.00  0.00    +0.000 A 
ATOM     19  C   UNL     1       6.251   6.564  16.819  0.00  0.00    +0.000 A 
ATOM     20  C   UNL     1       7.342   7.247  17.378  0.00  0.00    +0.000 A 
ATOM     21  C   UNL     1       7.930   6.815  18.575  0.00  0.00    +0.000 A 
ATOM     22  C   UNL     1       7.458   5.686  19.254  0.00  0.00    +0.000 A 
ATOM     23  C   UNL     1       6.372   5.045  18.672  0.00  0.00    +0.000 A 
ATOM     24  O   UNL     1       5.713   3.944  19.136  0.00  0.00    +0.000 OA
ENDBRANCH  15  16
ENDBRANCH  14  15
ENDBRANCH   3  14
TORSDOF 7
ENDMDL
MODEL 6
REMARK VINA RESULT:      -7.0      2.646      4.454
REMARK  Name = 
REMARK  9 active torsions:
REMARK  status: ('A' for Active; 'I' for Inactive)
REMARK    1  A    between atoms: C_1  and  C_2
REMARK    2  A    between atoms: C_2  and  C_3
REMARK    3  A    between atoms: C_3  and  C_4
REMARK    4  A    between atoms: C_4  and  N_5
REMARK    5  A    between atoms: C_4  and  C_9
REMARK    6  A    between atoms: C_6  and  C_7
REMARK    7  A    between atoms: N_11  and  C_12
REMARK    8  A    between atoms: C_12  and  C_13
REMARK    9  A    between atoms: C_13  and  C_14
REMARK                            x       y       z     vdW  Elec       q    Type
REMARK                         _______ _______ _______ _____ _____    ______ ____
ROOT
ATOM      1  C   UNL     1       1.963   5.104  20.363  0.00  0.00    +0.000 C 
ATOM      2  O   UNL     1       2.217   4.748  21.516  0.00  0.00    +0.000 OA
ATOM      3  N   UNL     1       1.750   4.208  19.339  0.00  0.00    +0.000 N 
ATOM      4  H   UNL     1       1.315   4.542  18.480  0.00  0.00    +0.000 HD
ENDROOT
BRANCH   1   5
ATOM      5  C   UNL     1       1.757   6.587  19.979  0.00  0.00    +0.000 C 
BRANCH   5   6
ATOM      6  N   UNL     1       1.820   7.398  21.207  0.00  0.00    +0.000 N 
ATOM      7  C   UNL     1       1.003   8.482  21.420  0.00  0.00    +0.000 C 
ATOM      8  C   UNL     1       1.258   9.218  22.712  0.00  0.00    +0.000 C 
ATOM      9  O   UNL     1       0.154   8.846  20.616  0.00  0.00    +0.000 OA
ATOM     10  H   UNL     1       2.305   6.992  21.996  0.00  0.00    +0.000 HD
ENDBRANCH   5   6
BRANCH   5  11
ATOM     11  C   UNL     1       2.846   7.085  19.011  0.00  0.00    +0.000 C 
BRANCH  11  13
ATOM     12  C   UNL     1       2.125   9.210  17.856  0.00  0.00    +0.000 C 
ATOM     13  C   UNL     1       2.316   7.701  17.713  0.00  0.00    +0.000 C 
ENDBRANCH  11  13
ENDBRANCH   5  11
ENDBRANCH   1   5
BRANCH   3  14
ATOM     14  C   UNL     1       1.841   2.768  19.532  0.00  0.00    +0.000 C 
BRANCH  14  15
ATOM     15  C   UNL     1       3.147   2.156  19.026  0.00  0.00    +0.000 C 
BRANCH  15  16
ATOM     16  C   UNL     1       4.145   3.198  18.668  0.00  0.00    +0.000 A 
ATOM     17  N   UNL     1       5.153   3.656  19.386  0.00  0.00    +0.000 NA
ATOM     18  C   UNL     1       5.744   4.577  18.558  0.00  0.00    +0.000 A 
ATOM     19  C   UNL     1       6.863   5.397  18.742  0.00  0.00    +0.000 A 
ATOM     20  C   UNL     1       7.256   6.227  17.681  0.00  0.00    +0.000 A 
ATOM     21  C   UNL     1       6.545   6.244  16.474  0.00  0.00    +0.000 A 
ATOM     22  C   UNL     1       5.414   5.442  16.280  0.00  0.00    +0.000 A 
ATOM     23  C   UNL     1       5.065   4.629  17.352  0.00  0.00    +0.000 A 
ATOM     24  O   UNL     1       4.029   3.744  17.417  0.00  0.00    +0.000 OA
ENDBRANCH  15  16
ENDBRANCH  14  15
ENDBRANCH   3  14
TORSDOF 7
ENDMDL
MODEL 7
REMARK VINA RESULT:      -7.0      1.495      2.802
REMARK  Name = 
REMARK  9 active torsions:
REMARK  status: ('A' for Active; 'I' for Inactive)
REMARK    1  A    between atoms: C_1  and  C_2
REMARK    2  A    between atoms: C_2  and  C_3
REMARK    3  A    between atoms: C_3  and  C_4
REMARK    4  A    between atoms: C_4  and  N_5
REMARK    5  A    between atoms: C_4  and  C_9
REMARK    6  A    between atoms: C_6  and  C_7
REMARK    7  A    between atoms: N_11  and  C_12
REMARK    8  A    between atoms: C_12  and  C_13
REMARK    9  A    between atoms: C_13  and  C_14
REMARK                            x       y       z     vdW  Elec       q    Type
REMARK                         _______ _______ _______ _____ _____    ______ ____
ROOT
ATOM      1  C   UNL     1       4.648   4.218  19.002  0.00  0.00    +0.000 C 
ATOM      2  O   UNL     1       5.240   3.251  19.488  0.00  0.00    +0.000 OA
ATOM      3  N   UNL     1       5.310   5.308  18.482  0.00  0.00    +0.000 N 
ATOM      4  H   UNL     1       4.793   5.955  17.889  0.00  0.00    +0.000 HD
ENDROOT
BRANCH   1   5
ATOM      5  C   UNL     1       3.112   4.252  18.837  0.00  0.00    +0.000 C 
BRANCH   5   6
ATOM      6  N   UNL     1       2.498   3.878  20.122  0.00  0.00    +0.000 N 
ATOM      7  C   UNL     1       1.912   2.652  20.332  0.00  0.00    +0.000 C 
ATOM      8  C   UNL     1       1.288   2.479  21.695  0.00  0.00    +0.000 C 
ATOM      9  O   UNL     1       1.870   1.777  19.477  0.00  0.00    +0.000 OA
ATOM     10  H   UNL     1       2.736   4.447  20.923  0.00  0.00    +0.000 HD
ENDBRANCH   5   6
BRANCH   5  11
ATOM     11  C   UNL     1       2.609   5.654  18.448  0.00  0.00    +0.000 C 
BRANCH  11  13
ATOM     12  C   UNL     1       2.079   8.028  19.122  0.00  0.00    +0.000 C 
ATOM     13  C   UNL     1       2.556   6.659  19.602  0.00  0.00    +0.000 C 
ENDBRANCH  11  13
ENDBRANCH   5  11
ENDBRANCH   1   5
BRANCH   3  14
ATOM     14  C   UNL     1       6.761   5.419  18.495  0.00  0.00    +0.000 C 
BRANCH  14  15
ATOM     15  C   UNL     1       7.337   6.160  17.289  0.00  0.00    +0.000 C 
BRANCH  15  16
ATOM     16  C   UNL     1       7.024   5.468  16.012  0.00  0.00    +0.000 A 
ATOM     17  N   UNL     1       6.034   4.638  15.743  0.00  0.00    +0.000 NA
ATOM     18  C   UNL     1       6.222   4.331  14.420  0.00  0.00    +0.000 A 
ATOM     19  C   UNL     1       5.496   3.505  13.554  0.00  0.00    +0.000 A 
ATOM     20  C   UNL     1       5.918   3.413  12.218  0.00  0.00    +0.000 A 
ATOM     21  C   UNL     1       7.040   4.120  11.764  0.00  0.00    +0.000 A 
ATOM     22  C   UNL     1       7.785   4.938  12.622  0.00  0.00    +0.000 A 
ATOM     23  C   UNL     1       7.328   5.007  13.933  0.00  0.00    +0.000 A 
ATOM     24  O   UNL     1       7.854   5.740  14.956  0.00  0.00    +0.000 OA
ENDBRANCH  15  16
ENDBRANCH  14  15
ENDBRANCH   3  14
TORSDOF 7
ENDMDL
MODEL 8
REMARK VINA RESULT:      -7.0      1.347      1.373
REMARK  Name = 
REMARK  9 active torsions:
REMARK  status: ('A' for Active; 'I' for Inactive)
REMARK    1  A    between atoms: C_1  and  C_2
REMARK    2  A    between atoms: C_2  and  C_3
REMARK    3  A    between atoms: C_3  and  C_4
REMARK    4  A    between atoms: C_4  and  N_5
REMARK    5  A    between atoms: C_4  and  C_9
REMARK    6  A    between atoms: C_6  and  C_7
REMARK    7  A    between atoms: N_11  and  C_12
REMARK    8  A    between atoms: C_12  and  C_13
REMARK    9  A    between atoms: C_13  and  C_14
REMARK                            x       y       z     vdW  Elec       q    Type
REMARK                         _______ _______ _______ _____ _____    ______ ____
ROOT
ATOM      1  C   UNL     1       4.775   4.570  19.258  0.00  0.00    +0.000 C 
ATOM      2  O   UNL     1       5.366   3.518  19.513  0.00  0.00    +0.000 OA
ATOM      3  N   UNL     1       5.414   5.669  18.729  0.00  0.00    +0.000 N 
ATOM      4  H   UNL     1       4.848   6.414  18.322  0.00  0.00    +0.000 HD
ENDROOT
BRANCH   1   5
ATOM      5  C   UNL     1       3.245   4.721  19.413  0.00  0.00    +0.000 C 
BRANCH   5   6
ATOM      6  N   UNL     1       2.953   6.106  19.820  0.00  0.00    +0.000 N 
ATOM      7  C   UNL     1       1.831   6.445  20.538  0.00  0.00    +0.000 C 
ATOM      8  C   UNL     1       1.680   7.921  20.809  0.00  0.00    +0.000 C 
ATOM      9  O   UNL     1       1.001   5.624  20.906  0.00  0.00    +0.000 OA
ATOM     10  H   UNL     1       3.719   6.765  19.775  0.00  0.00    +0.000 HD
ENDBRANCH   5   6
BRANCH   5  11
ATOM     11  C   UNL     1       2.505   4.435  18.094  0.00  0.00    +0.000 C 
BRANCH  11  13
ATOM     12  C   UNL     1       2.170   1.942  18.297  0.00  0.00    +0.000 C 
ATOM     13  C   UNL     1       1.481   3.299  18.168  0.00  0.00    +0.000 C 
ENDBRANCH  11  13
ENDBRANCH   5  11
ENDBRANCH   1   5
BRANCH   3  14
ATOM     14  C   UNL     1       6.844   5.687  18.458  0.00  0.00    +0.000 C 
BRANCH  14  15
ATOM     15  C   UNL     1       7.224   6.441  17.184  0.00  0.00    +0.000 C 
BRANCH  15  16
ATOM     16  C   UNL     1       6.893   5.666  15.960  0.00  0.00    +0.000 A 
ATOM     17  N   UNL     1       5.821   4.939  15.709  0.00  0.00    +0.000 NA
ATOM     18  C   UNL     1       6.036   4.479  14.434  0.00  0.00    +0.000 A 
ATOM     19  C   UNL     1       5.258   3.663  13.605  0.00  0.00    +0.000 A 
ATOM     20  C   UNL     1       5.734   3.388  12.314  0.00  0.00    +0.000 A 
ATOM     21  C   UNL     1       6.957   3.905  11.867  0.00  0.00    +0.000 A 
ATOM     22  C   UNL     1       7.754   4.709  12.691  0.00  0.00    +0.000 A 
ATOM     23  C   UNL     1       7.243   4.965  13.957  0.00  0.00    +0.000 A 
ATOM     24  O   UNL     1       7.804   5.729  14.938  0.00  0.00    +0.000 OA
ENDBRANCH  15  16
ENDBRANCH  14  15
ENDBRANCH   3  14
TORSDOF 7
ENDMDL
MODEL 9
REMARK VINA RESULT:      -6.9      2.684      8.117
REMARK  Name = 
REMARK  9 active torsions:
REMARK  status: ('A' for Active; 'I' for Inactive)
REMARK    1  A    between atoms: C_1  and  C_2
REMARK    2  A    between atoms: C_2  and  C_3
REMARK    3  A    between atoms: C_3  and  C_4
REMARK    4  A    between atoms: C_4  and  N_5
REMARK    5  A    between atoms: C_4  and  C_9
REMARK    6  A    between atoms: C_6  and  C_7
REMARK    7  A    between atoms: N_11  and  C_12
REMARK    8  A    between atoms: C_12  and  C_13
REMARK    9  A    between atoms: C_13  and  C_14
REMARK                            x       y       z     vdW  Elec       q    Type
REMARK                         _______ _______ _______ _____ _____    ______ ____
ROOT
ATOM      1  C   UNL     1       6.131   3.872  12.888  0.00  0.00    +0.000 C 
ATOM      2  O   UNL     1       7.283   4.311  12.855  0.00  0.00    +0.000 OA
ATOM      3  N   UNL     1       5.314   4.015  13.988  0.00  0.00    +0.000 N 
ATOM      4  H   UNL     1       4.314   3.850  13.877  0.00  0.00    +0.000 HD
ENDROOT
BRANCH   1   5
ATOM      5  C   UNL     1       5.460   3.211  11.663  0.00  0.00    +0.000 C 
BRANCH   5   6
ATOM      6  N   UNL     1       5.505   1.750  11.840  0.00  0.00    +0.000 N 
ATOM      7  C   UNL     1       6.321   0.938  11.089  0.00  0.00    +0.000 C 
ATOM      8  C   UNL     1       6.182  -0.535  11.380  0.00  0.00    +0.000 C 
ATOM      9  O   UNL     1       7.080   1.367  10.230  0.00  0.00    +0.000 OA
ATOM     10  H   UNL     1       5.108   1.383  12.695  0.00  0.00    +0.000 HD
ENDBRANCH   5   6
BRANCH   5  11
ATOM     11  C   UNL     1       3.988   3.638  11.516  0.00  0.00    +0.000 C 
BRANCH  11  13
ATOM     12  C   UNL     1       2.774   4.375   9.430  0.00  0.00    +0.000 C 
ATOM     13  C   UNL     1       3.317   3.184  10.216  0.00  0.00    +0.000 C 
ENDBRANCH  11  13
ENDBRANCH   5  11
ENDBRANCH   1   5
BRANCH   3  14
ATOM     14  C   UNL     1       5.757   4.668  15.211  0.00  0.00    +0.000 C 
BRANCH  14  15
ATOM     15  C   UNL     1       5.830   3.735  16.420  0.00  0.00    +0.000 C 
BRANCH  15  16
ATOM     16  C   UNL     1       4.786   4.052  17.428  0.00  0.00    +0.000 A 
ATOM     17  N   UNL     1       4.610   5.167  18.111  0.00  0.00    +0.000 NA
ATOM     18  C   UNL     1       3.495   4.909  18.867  0.00  0.00    +0.000 A 
ATOM     19  C   UNL     1       2.804   5.700  19.791  0.00  0.00    +0.000 A 
ATOM     20  C   UNL     1       1.653   5.166  20.391  0.00  0.00    +0.000 A 
ATOM     21  C   UNL     1       1.212   3.871  20.083  0.00  0.00    +0.000 A 
ATOM     22  C   UNL     1       1.901   3.061  19.173  0.00  0.00    +0.000 A 
ATOM     23  C   UNL     1       3.029   3.633  18.595  0.00  0.00    +0.000 A 
ATOM     24  O   UNL     1       3.860   3.071  17.671  0.00  0.00    +0.000 OA
ENDBRANCH  15  16
ENDBRANCH  14  15
ENDBRANCH   3  14
TORSDOF 7
ENDMDL
