MODEL 1
REMARK VINA RESULT:      -7.8      0.000      0.000
REMARK  Name = 
REMARK  7 active torsions:
REMARK  status: ('A' for Active; 'I' for Inactive)
REMARK    1  A    between atoms: C_1  and  N_2
REMARK    2  A    between atoms: N_2  and  C_3
REMARK    3  A    between atoms: C_3  and  C_4
REMARK    4  A    between atoms: C_3  and  C_5
REMARK    5  A    between atoms: C_3  and  C_6
REMARK    6  A    between atoms: C_9  and  N_10
REMARK    7  A    between atoms: C_16  and  C_17
REMARK                            x       y       z     vdW  Elec       q    Type
REMARK                         _______ _______ _______ _____ _____    ______ ____
ROOT
ATOM      1  N   UNL     1       1.535   8.574  19.460  0.00  0.00    +0.000 N 
ATOM      2  C   UNL     1       1.113   9.536  18.580  0.00  0.00    +0.000 A 
ATOM      3  C   UNL     1       0.839  10.599  19.371  0.00  0.00    +0.000 A 
ATOM      4  C   UNL     1       0.696  11.884  18.879  0.00  0.00    +0.000 A 
ATOM      5  C   UNL     1       0.225  12.750  19.874  0.00  0.00    +0.000 A 
ATOM      6  C   UNL     1      -0.176  12.298  21.163  0.00  0.00    +0.000 A 
ATOM      7  C   UNL     1      -0.082  10.943  21.604  0.00  0.00    +0.000 A 
ATOM      8  C   UNL     1       0.558  10.071  20.684  0.00  0.00    +0.000 A 
ATOM      9  N   UNL     1       0.968   8.767  20.704  0.00  0.00    +0.000 NA
ENDROOT
BRANCH   1  13
ATOM     10  C   UNL     1       4.089   5.455  18.051  0.00  0.00    +0.000 A 
ATOM     11  C   UNL     1       3.989   6.669  17.389  0.00  0.00    +0.000 A 
ATOM     12  C   UNL     1       3.188   7.696  17.899  0.00  0.00    +0.000 A 
ATOM     13  C   UNL     1       2.440   7.533  19.085  0.00  0.00    +0.000 A 
ATOM     14  C   UNL     1       2.620   6.377  19.830  0.00  0.00    +0.000 A 
ATOM     15  C   UNL     1       3.427   5.348  19.306  0.00  0.00    +0.000 A 
BRANCH  10  16
ATOM     16  C   UNL     1       4.857   4.266  17.441  0.00  0.00    +0.000 C 
ATOM     17  C   UNL     1       5.190   4.388  15.932  0.00  0.00    +0.000 C 
ATOM     18  C   UNL     1       3.951   3.010  17.558  0.00  0.00    +0.000 C 
BRANCH  16  20
ATOM     19  C   UNL     1       7.285   4.676  17.707  0.00  0.00    +0.000 C 
ATOM     20  N   UNL     1       6.099   3.970  18.186  0.00  0.00    +0.000 NA
ATOM     21  H   UNL     1       5.967   4.182  19.168  0.00  0.00    +0.000 HD
ENDBRANCH  16  20
ENDBRANCH  10  16
ENDBRANCH   1  13
BRANCH   7  22
ATOM     22  C   UNL     1      -0.809  10.563  22.828  0.00  0.00    +0.000 C 
ATOM     23  N   UNL     1      -0.556   9.341  23.374  0.00  0.00    +0.000 N 
ATOM     24  O   UNL     1      -1.684  11.279  23.292  0.00  0.00    +0.000 OA
ATOM     25  H   UNL     1       0.072   8.688  22.922  0.00  0.00    +0.000 HD
ATOM     26  H   UNL     1      -1.215   8.997  24.059  0.00  0.00    +0.000 HD
ENDBRANCH   7  22
TORSDOF 4
ENDMDL
MODEL 2
REMARK VINA RESULT:      -7.7      1.684      2.825
REMARK  Name = 
REMARK  7 active torsions:
REMARK  status: ('A' for Active; 'I' for Inactive)
REMARK    1  A    between atoms: C_1  and  N_2
REMARK    2  A    between atoms: N_2  and  C_3
REMARK    3  A    between atoms: C_3  and  C_4
REMARK    4  A    between atoms: C_3  and  C_5
REMARK    5  A    between atoms: C_3  and  C_6
REMARK    6  A    between atoms: C_9  and  N_10
REMARK    7  A    between atoms: C_16  and  C_17
REMARK                            x       y       z     vdW  Elec       q    Type
REMARK                         _______ _______ _______ _____ _____    ______ ____
ROOT
ATOM      1  N   UNL     1       1.517   8.461  20.316  0.00  0.00    +0.000 N 
ATOM      2  C   UNL     1       1.472   8.626  21.675  0.00  0.00    +0.000 A 
ATOM      3  C   UNL     1       0.433   9.473  21.863  0.00  0.00    +0.000 A 
ATOM      4  C   UNL     1      -0.174   9.655  23.092  0.00  0.00    +0.000 A 
ATOM      5  C   UNL     1      -1.082  10.721  23.047  0.00  0.00    +0.000 A 
ATOM      6  C   UNL     1      -1.223  11.566  21.911  0.00  0.00    +0.000 A 
ATOM      7  C   UNL     1      -0.516  11.385  20.683  0.00  0.00    +0.000 A 
ATOM      8  C   UNL     1       0.278  10.209  20.632  0.00  0.00    +0.000 A 
ATOM      9  N   UNL     1       1.013   9.573  19.671  0.00  0.00    +0.000 NA
ENDROOT
BRANCH   1  13
ATOM     10  C   UNL     1       3.237   4.881  18.746  0.00  0.00    +0.000 A 
ATOM     11  C   UNL     1       2.569   4.896  19.961  0.00  0.00    +0.000 A 
ATOM     12  C   UNL     1       1.967   6.068  20.429  0.00  0.00    +0.000 A 
ATOM     13  C   UNL     1       2.030   7.276  19.702  0.00  0.00    +0.000 A 
ATOM     14  C   UNL     1       2.583   7.257  18.430  0.00  0.00    +0.000 A 
ATOM     15  C   UNL     1       3.189   6.072  17.969  0.00  0.00    +0.000 A 
BRANCH  10  16
ATOM     16  C   UNL     1       4.021   3.641  18.272  0.00  0.00    +0.000 C 
ATOM     17  C   UNL     1       4.719   3.778  16.895  0.00  0.00    +0.000 C 
ATOM     18  C   UNL     1       3.007   2.479  18.102  0.00  0.00    +0.000 C 
BRANCH  16  20
ATOM     19  C   UNL     1       4.622   2.031  20.056  0.00  0.00    +0.000 C 
ATOM     20  N   UNL     1       5.015   3.201  19.275  0.00  0.00    +0.000 NA
ATOM     21  H   UNL     1       5.898   3.007  18.818  0.00  0.00    +0.000 HD
ENDBRANCH  16  20
ENDBRANCH  10  16
ENDBRANCH   1  13
BRANCH   7  22
ATOM     22  C   UNL     1      -0.522  12.494  19.712  0.00  0.00    +0.000 C 
ATOM     23  N   UNL     1      -0.067  12.250  18.453  0.00  0.00    +0.000 N 
ATOM     24  O   UNL     1      -0.837  13.626  20.048  0.00  0.00    +0.000 OA
ATOM     25  H   UNL     1       0.318  11.347  18.203  0.00  0.00    +0.000 HD
ATOM     26  H   UNL     1       0.145  13.052  17.875  0.00  0.00    +0.000 HD
ENDBRANCH   7  22
TORSDOF 4
ENDMDL
MODEL 3
REMARK VINA RESULT:      -7.7      3.169      7.701
REMARK  Name = 
REMARK  7 active torsions:
REMARK  status: ('A' for Active; 'I' for Inactive)
REMARK    1  A    between atoms: C_1  and  N_2
REMARK    2  A    between atoms: N_2  and  C_3
REMARK    3  A    between atoms: C_3  and  C_4
REMARK    4  A    between atoms: C_3  and  C_5
REMARK    5  A    between atoms: C_3  and  C_6
REMARK    6  A    between atoms: C_9  and  N_10
REMARK    7  A    between atoms: C_16  and  C_17
REMARK                            x       y       z     vdW  Elec       q    Type
REMARK                         _______ _______ _______ _____ _____    ______ ____
ROOT
ATOM      1  N   UNL     1       2.562   6.577  19.202  0.00  0.00    +0.000 N 
ATOM      2  C   UNL     1       3.481   6.063  18.325  0.00  0.00    +0.000 A 
ATOM      3  C   UNL     1       3.234   4.733  18.342  0.00  0.00    +0.000 A 
ATOM      4  C   UNL     1       3.704   3.870  17.368  0.00  0.00    +0.000 A 
ATOM      5  C   UNL     1       3.472   2.536  17.729  0.00  0.00    +0.000 A 
ATOM      6  C   UNL     1       2.953   2.161  19.000  0.00  0.00    +0.000 A 
ATOM      7  C   UNL     1       2.550   3.088  20.009  0.00  0.00    +0.000 A 
ATOM      8  C   UNL     1       2.602   4.449  19.607  0.00  0.00    +0.000 A 
ATOM      9  N   UNL     1       2.223   5.641  20.159  0.00  0.00    +0.000 NA
ENDROOT
BRANCH   1  13
ATOM     10  C   UNL     1       0.765  10.444  18.967  0.00  0.00    +0.000 A 
ATOM     11  C   UNL     1       0.738   9.698  20.136  0.00  0.00    +0.000 A 
ATOM     12  C   UNL     1       1.380   8.457  20.205  0.00  0.00    +0.000 A 
ATOM     13  C   UNL     1       2.058   7.910  19.095  0.00  0.00    +0.000 A 
ATOM     14  C   UNL     1       2.206   8.690  17.957  0.00  0.00    +0.000 A 
ATOM     15  C   UNL     1       1.553   9.937  17.897  0.00  0.00    +0.000 A 
BRANCH  10  16
ATOM     16  C   UNL     1      -0.045  11.748  18.824  0.00  0.00    +0.000 C 
ATOM     17  C   UNL     1       0.794  13.039  18.643  0.00  0.00    +0.000 C 
ATOM     18  C   UNL     1      -0.838  11.957  20.142  0.00  0.00    +0.000 C 
BRANCH  16  20
ATOM     19  C   UNL     1      -1.998  10.568  17.860  0.00  0.00    +0.000 C 
ATOM     20  N   UNL     1      -1.039  11.663  17.733  0.00  0.00    +0.000 NA
ATOM     21  H   UNL     1      -1.547  12.535  17.665  0.00  0.00    +0.000 HD
ENDBRANCH  16  20
ENDBRANCH  10  16
ENDBRANCH   1  13
BRANCH   7  22
ATOM     22  C   UNL     1       2.326   2.573  21.370  0.00  0.00    +0.000 C 
ATOM     23  N   UNL     1       1.108   2.779  21.945  0.00  0.00    +0.000 N 
ATOM     24  O   UNL     1       3.231   2.057  22.009  0.00  0.00    +0.000 OA
ATOM     25  H   UNL     1       0.394   3.321  21.472  0.00  0.00    +0.000 HD
ATOM     26  H   UNL     1       1.040   2.638  22.944  0.00  0.00    +0.000 HD
ENDBRANCH   7  22
TORSDOF 4
ENDMDL
MODEL 4
REMARK VINA RESULT:      -7.6      3.228      7.697
REMARK  Name = 
REMARK  7 active torsions:
REMARK  status: ('A' for Active; 'I' for Inactive)
REMARK    1  A    between atoms: C_1  and  N_2
REMARK    2  A    between atoms: N_2  and  C_3
REMARK    3  A    between atoms: C_3  and  C_4
REMARK    4  A    between atoms: C_3  and  C_5
REMARK    5  A    between atoms: C_3  and  C_6
REMARK    6  A    between atoms: C_9  and  N_10
REMARK    7  A    between atoms: C_16  and  C_17
REMARK                            x       y       z     vdW  Elec       q    Type
REMARK                         _______ _______ _______ _____ _____    ______ ____
ROOT
ATOM      1  N   UNL     1       2.369   6.429  19.203  0.00  0.00    +0.000 N 
ATOM      2  C   UNL     1       2.996   5.797  18.161  0.00  0.00    +0.000 A 
ATOM      3  C   UNL     1       2.591   4.511  18.272  0.00  0.00    +0.000 A 
ATOM      4  C   UNL     1       2.717   3.592  17.246  0.00  0.00    +0.000 A 
ATOM      5  C   UNL     1       2.404   2.301  17.690  0.00  0.00    +0.000 A 
ATOM      6  C   UNL     1       2.137   1.999  19.056  0.00  0.00    +0.000 A 
ATOM      7  C   UNL     1       2.092   2.973  20.099  0.00  0.00    +0.000 A 
ATOM      8  C   UNL     1       2.226   4.315  19.654  0.00  0.00    +0.000 A 
ATOM      9  N   UNL     1       2.135   5.547  20.239  0.00  0.00    +0.000 NA
ENDROOT
BRANCH   1  13
ATOM     10  C   UNL     1       1.049  10.490  19.184  0.00  0.00    +0.000 A 
ATOM     11  C   UNL     1       0.947   9.697  20.317  0.00  0.00    +0.000 A 
ATOM     12  C   UNL     1       1.435   8.386  20.315  0.00  0.00    +0.000 A 
ATOM     13  C   UNL     1       2.028   7.816  19.168  0.00  0.00    +0.000 A 
ATOM     14  C   UNL     1       2.255   8.628  18.066  0.00  0.00    +0.000 A 
ATOM     15  C   UNL     1       1.757   9.945  18.077  0.00  0.00    +0.000 A 
BRANCH  10  16
ATOM     16  C   UNL     1       0.401  11.887  19.118  0.00  0.00    +0.000 C 
ATOM     17  C   UNL     1       0.192  12.592  20.483  0.00  0.00    +0.000 C 
ATOM     18  C   UNL     1      -1.023  11.718  18.524  0.00  0.00    +0.000 C 
BRANCH  16  20
ATOM     19  C   UNL     1       1.018  14.215  18.539  0.00  0.00    +0.000 C 
ATOM     20  N   UNL     1       1.139  12.796  18.215  0.00  0.00    +0.000 NA
ATOM     21  H   UNL     1       2.119  12.545  18.204  0.00  0.00    +0.000 HD
ENDBRANCH  16  20
ENDBRANCH  10  16
ENDBRANCH   1  13
BRANCH   7  22
ATOM     22  C   UNL     1       2.113   2.494  21.492  0.00  0.00    +0.000 C 
ATOM     23  N   UNL     1       0.948   2.513  22.198  0.00  0.00    +0.000 N 
ATOM     24  O   UNL     1       3.160   2.177  22.036  0.00  0.00    +0.000 OA
ATOM     25  H   UNL     1       0.101   2.897  21.796  0.00  0.00    +0.000 HD
ATOM     26  H   UNL     1       1.015   2.411  23.201  0.00  0.00    +0.000 HD
ENDBRANCH   7  22
TORSDOF 4
ENDMDL
MODEL 5
REMARK VINA RESULT:      -7.5      3.135      8.079
REMARK  Name = 
REMARK  7 active torsions:
REMARK  status: ('A' for Active; 'I' for Inactive)
REMARK    1  A    between atoms: C_1  and  N_2
REMARK    2  A    between atoms: N_2  and  C_3
REMARK    3  A    between atoms: C_3  and  C_4
REMARK    4  A    between atoms: C_3  and  C_5
REMARK    5  A    between atoms: C_3  and  C_6
REMARK    6  A    between atoms: C_9  and  N_10
REMARK    7  A    between atoms: C_16  and  C_17
REMARK                            x       y       z     vdW  Elec       q    Type
REMARK                         _______ _______ _______ _____ _____    ______ ____
ROOT
ATOM      1  N   UNL     1       3.057   6.980  18.444  0.00  0.00    +0.000 N 
ATOM      2  C   UNL     1       4.161   7.268  17.684  0.00  0.00    +0.000 A 
ATOM      3  C   UNL     1       4.398   6.118  17.012  0.00  0.00    +0.000 A 
ATOM      4  C   UNL     1       5.213   6.054  15.896  0.00  0.00    +0.000 A 
ATOM      5  C   UNL     1       5.441   4.725  15.519  0.00  0.00    +0.000 A 
ATOM      6  C   UNL     1       4.995   3.616  16.293  0.00  0.00    +0.000 A 
ATOM      7  C   UNL     1       4.217   3.731  17.485  0.00  0.00    +0.000 A 
ATOM      8  C   UNL     1       3.815   5.057  17.797  0.00  0.00    +0.000 A 
ATOM      9  N   UNL     1       3.000   5.631  18.732  0.00  0.00    +0.000 NA
ENDROOT
BRANCH   1  13
ATOM     10  C   UNL     1       0.472  10.196  19.543  0.00  0.00    +0.000 A 
ATOM     11  C   UNL     1       0.835   9.973  18.224  0.00  0.00    +0.000 A 
ATOM     12  C   UNL     1       1.640   8.881  17.881  0.00  0.00    +0.000 A 
ATOM     13  C   UNL     1       2.125   7.982  18.855  0.00  0.00    +0.000 A 
ATOM     14  C   UNL     1       1.674   8.111  20.161  0.00  0.00    +0.000 A 
ATOM     15  C   UNL     1       0.866   9.216  20.496  0.00  0.00    +0.000 A 
BRANCH  10  16
ATOM     16  C   UNL     1      -0.300  11.463  19.963  0.00  0.00    +0.000 C 
ATOM     17  C   UNL     1      -0.646  11.566  21.471  0.00  0.00    +0.000 C 
ATOM     18  C   UNL     1      -1.668  11.447  19.230  0.00  0.00    +0.000 C 
BRANCH  16  20
ATOM     19  C   UNL     1      -0.349  13.539  18.612  0.00  0.00    +0.000 C 
ATOM     20  N   UNL     1       0.398  12.698  19.544  0.00  0.00    +0.000 NA
ATOM     21  H   UNL     1       0.638  13.248  20.359  0.00  0.00    +0.000 HD
ENDBRANCH  16  20
ENDBRANCH  10  16
ENDBRANCH   1  13
BRANCH   7  22
ATOM     22  C   UNL     1       4.088   2.540  18.343  0.00  0.00    +0.000 C 
ATOM     23  N   UNL     1       4.882   2.451  19.446  0.00  0.00    +0.000 N 
ATOM     24  O   UNL     1       3.360   1.611  18.028  0.00  0.00    +0.000 OA
ATOM     25  H   UNL     1       5.582   3.156  19.643  0.00  0.00    +0.000 HD
ATOM     26  H   UNL     1       4.958   1.545  19.887  0.00  0.00    +0.000 HD
ENDBRANCH   7  22
TORSDOF 4
ENDMDL
MODEL 6
REMARK VINA RESULT:      -7.5      1.691      2.822
REMARK  Name = 
REMARK  7 active torsions:
REMARK  status: ('A' for Active; 'I' for Inactive)
REMARK    1  A    between atoms: C_1  and  N_2
REMARK    2  A    between atoms: N_2  and  C_3
REMARK    3  A    between atoms: C_3  and  C_4
REMARK    4  A    between atoms: C_3  and  C_5
REMARK    5  A    between atoms: C_3  and  C_6
REMARK    6  A    between atoms: C_9  and  N_10
REMARK    7  A    between atoms: C_16  and  C_17
REMARK                            x       y       z     vdW  Elec       q    Type
REMARK                         _______ _______ _______ _____ _____    ______ ____
ROOT
ATOM      1  N   UNL     1       1.479   8.350  20.377  0.00  0.00    +0.000 N 
ATOM      2  C   UNL     1       1.438   8.553  21.732  0.00  0.00    +0.000 A 
ATOM      3  C   UNL     1       0.421   9.430  21.896  0.00  0.00    +0.000 A 
ATOM      4  C   UNL     1      -0.182   9.661  23.119  0.00  0.00    +0.000 A 
ATOM      5  C   UNL     1      -1.063  10.747  23.045  0.00  0.00    +0.000 A 
ATOM      6  C   UNL     1      -1.183  11.565  21.885  0.00  0.00    +0.000 A 
ATOM      7  C   UNL     1      -0.481  11.333  20.664  0.00  0.00    +0.000 A 
ATOM      8  C   UNL     1       0.283  10.136  20.646  0.00  0.00    +0.000 A 
ATOM      9  N   UNL     1       1.003   9.456  19.703  0.00  0.00    +0.000 NA
ENDROOT
BRANCH   1  13
ATOM     10  C   UNL     1       3.113   4.690  18.904  0.00  0.00    +0.000 A 
ATOM     11  C   UNL     1       2.461   4.756  20.126  0.00  0.00    +0.000 A 
ATOM     12  C   UNL     1       1.887   5.954  20.563  0.00  0.00    +0.000 A 
ATOM     13  C   UNL     1       1.962   7.137  19.796  0.00  0.00    +0.000 A 
ATOM     14  C   UNL     1       2.498   7.066  18.519  0.00  0.00    +0.000 A 
ATOM     15  C   UNL     1       3.076   5.855  18.089  0.00  0.00    +0.000 A 
BRANCH  10  16
ATOM     16  C   UNL     1       3.868   3.420  18.462  0.00  0.00    +0.000 C 
ATOM     17  C   UNL     1       3.013   2.356  17.727  0.00  0.00    +0.000 C 
ATOM     18  C   UNL     1       4.390   2.712  19.741  0.00  0.00    +0.000 C 
BRANCH  16  20
ATOM     19  C   UNL     1       6.119   4.446  18.339  0.00  0.00    +0.000 C 
ATOM     20  N   UNL     1       5.051   3.742  17.635  0.00  0.00    +0.000 NA
ATOM     21  H   UNL     1       5.429   2.893  17.234  0.00  0.00    +0.000 HD
ENDBRANCH  16  20
ENDBRANCH  10  16
ENDBRANCH   1  13
BRANCH   7  22
ATOM     22  C   UNL     1      -0.459  12.414  19.663  0.00  0.00    +0.000 C 
ATOM     23  N   UNL     1      -0.023  12.122  18.407  0.00  0.00    +0.000 N 
ATOM     24  O   UNL     1      -0.734  13.565  19.970  0.00  0.00    +0.000 OA
ATOM     25  H   UNL     1       0.330  11.200  18.179  0.00  0.00    +0.000 HD
ATOM     26  H   UNL     1       0.210  12.901  17.807  0.00  0.00    +0.000 HD
ENDBRANCH   7  22
TORSDOF 4
ENDMDL
MODEL 7
REMARK VINA RESULT:      -7.5      3.165      7.723
REMARK  Name = 
REMARK  7 active torsions:
REMARK  status: ('A' for Active; 'I' for Inactive)
REMARK    1  A    between atoms: C_1  and  N_2
REMARK    2  A    between atoms: N_2  and  C_3
REMARK    3  A    between atoms: C_3  and  C_4
REMARK    4  A    between atoms: C_3  and  C_5
REMARK    5  A    between atoms: C_3  and  C_6
REMARK    6  A    between atoms: C_9  and  N_10
REMARK    7  A    between atoms: C_16  and  C_17
REMARK                            x       y       z     vdW  Elec       q    Type
REMARK                         _______ _______ _______ _____ _____    ______ ____
ROOT
ATOM      1  N   UNL     1       2.606   6.650  19.239  0.00  0.00    +0.000 N 
ATOM      2  C   UNL     1       3.498   6.254  18.277  0.00  0.00    +0.000 A 
ATOM      3  C   UNL     1       3.378   4.906  18.262  0.00  0.00    +0.000 A 
ATOM      4  C   UNL     1       3.849   4.122  17.224  0.00  0.00    +0.000 A 
ATOM      5  C   UNL     1       3.772   2.762  17.551  0.00  0.00    +0.000 A 
ATOM      6  C   UNL     1       3.390   2.300  18.842  0.00  0.00    +0.000 A 
ATOM      7  C   UNL     1       2.983   3.154  19.912  0.00  0.00    +0.000 A 
ATOM      8  C   UNL     1       2.876   4.525  19.559  0.00  0.00    +0.000 A 
ATOM      9  N   UNL     1       2.432   5.657  20.182  0.00  0.00    +0.000 NA
ENDROOT
BRANCH   1  13
ATOM     10  C   UNL     1       0.997  10.602  19.067  0.00  0.00    +0.000 A 
ATOM     11  C   UNL     1       1.513   9.977  17.942  0.00  0.00    +0.000 A 
ATOM     12  C   UNL     1       1.986   8.662  18.011  0.00  0.00    +0.000 A 
ATOM     13  C   UNL     1       1.974   7.932  19.219  0.00  0.00    +0.000 A 
ATOM     14  C   UNL     1       1.349   8.489  20.325  0.00  0.00    +0.000 A 
ATOM     15  C   UNL     1       0.879   9.815  20.246  0.00  0.00    +0.000 A 
BRANCH  10  16
ATOM     16  C   UNL     1       0.595  12.090  19.049  0.00  0.00    +0.000 C 
ATOM     17  C   UNL     1       1.772  13.100  19.037  0.00  0.00    +0.000 C 
ATOM     18  C   UNL     1      -0.182  12.386  20.360  0.00  0.00    +0.000 C 
BRANCH  16  20
ATOM     19  C   UNL     1      -1.698  11.966  18.122  0.00  0.00    +0.000 C 
ATOM     20  N   UNL     1      -0.318  12.402  17.929  0.00  0.00    +0.000 NA
ATOM     21  H   UNL     1      -0.313  13.398  17.750  0.00  0.00    +0.000 HD
ENDBRANCH  16  20
ENDBRANCH  10  16
ENDBRANCH   1  13
BRANCH   7  22
ATOM     22  C   UNL     1       2.914   2.578  21.266  0.00  0.00    +0.000 C 
ATOM     23  N   UNL     1       1.866   2.928  22.063  0.00  0.00    +0.000 N 
ATOM     24  O   UNL     1       3.817   1.880  21.703  0.00  0.00    +0.000 OA
ATOM     25  H   UNL     1       1.182   3.609  21.755  0.00  0.00    +0.000 HD
ATOM     26  H   UNL     1       1.949   2.724  23.050  0.00  0.00    +0.000 HD
ENDBRANCH   7  22
TORSDOF 4
ENDMDL
MODEL 8
REMARK VINA RESULT:      -7.5      3.228      7.523
REMARK  Name = 
REMARK  7 active torsions:
REMARK  status: ('A' for Active; 'I' for Inactive)
REMARK    1  A    between atoms: C_1  and  N_2
REMARK    2  A    between atoms: N_2  and  C_3
REMARK    3  A    between atoms: C_3  and  C_4
REMARK    4  A    between atoms: C_3  and  C_5
REMARK    5  A    between atoms: C_3  and  C_6
REMARK    6  A    between atoms: C_9  and  N_10
REMARK    7  A    between atoms: C_16  and  C_17
REMARK                            x       y       z     vdW  Elec       q    Type
REMARK                         _______ _______ _______ _____ _____    ______ ____
ROOT
ATOM      1  N   UNL     1       2.262   6.569  19.233  0.00  0.00    +0.000 N 
ATOM      2  C   UNL     1       2.930   5.988  18.188  0.00  0.00    +0.000 A 
ATOM      3  C   UNL     1       2.587   4.681  18.273  0.00  0.00    +0.000 A 
ATOM      4  C   UNL     1       2.768   3.787  17.233  0.00  0.00    +0.000 A 
ATOM      5  C   UNL     1       2.514   2.475  17.651  0.00  0.00    +0.000 A 
ATOM      6  C   UNL     1       2.249   2.137  19.008  0.00  0.00    +0.000 A 
ATOM      7  C   UNL     1       2.146   3.089  20.068  0.00  0.00    +0.000 A 
ATOM      8  C   UNL     1       2.219   4.443  19.647  0.00  0.00    +0.000 A 
ATOM      9  N   UNL     1       2.061   5.659  20.252  0.00  0.00    +0.000 NA
ENDROOT
BRANCH   1  13
ATOM     10  C   UNL     1       1.349  10.739  19.101  0.00  0.00    +0.000 A 
ATOM     11  C   UNL     1       1.841  10.066  17.994  0.00  0.00    +0.000 A 
ATOM     12  C   UNL     1       2.082   8.689  18.045  0.00  0.00    +0.000 A 
ATOM     13  C   UNL     1       1.854   7.939  19.219  0.00  0.00    +0.000 A 
ATOM     14  C   UNL     1       1.246   8.563  20.297  0.00  0.00    +0.000 A 
ATOM     15  C   UNL     1       1.010   9.951  20.236  0.00  0.00    +0.000 A 
BRANCH  10  16
ATOM     16  C   UNL     1       1.203  12.273  19.113  0.00  0.00    +0.000 C 
ATOM     17  C   UNL     1      -0.118  12.824  18.515  0.00  0.00    +0.000 C 
ATOM     18  C   UNL     1       2.330  12.861  18.222  0.00  0.00    +0.000 C 
BRANCH  16  20
ATOM     19  C   UNL     1       2.619  13.601  20.651  0.00  0.00    +0.000 C 
ATOM     20  N   UNL     1       1.389  12.835  20.468  0.00  0.00    +0.000 NA
ATOM     21  H   UNL     1       0.600  13.423  20.705  0.00  0.00    +0.000 HD
ENDBRANCH  16  20
ENDBRANCH  10  16
ENDBRANCH   1  13
BRANCH   7  22
ATOM     22  C   UNL     1       2.176   2.587  21.453  0.00  0.00    +0.000 C 
ATOM     23  N   UNL     1       1.023   2.623  22.177  0.00  0.00    +0.000 N 
ATOM     24  O   UNL     1       3.223   2.235  21.975  0.00  0.00    +0.000 OA
ATOM     25  H   UNL     1       0.180   3.035  21.794  0.00  0.00    +0.000 HD
ATOM     26  H   UNL     1       1.103   2.504  23.177  0.00  0.00    +0.000 HD
ENDBRANCH   7  22
TORSDOF 4
ENDMDL
MODEL 9
REMARK VINA RESULT:      -7.5      1.999      3.143
REMARK  Name = 
REMARK  7 active torsions:
REMARK  status: ('A' for Active; 'I' for Inactive)
REMARK    1  A    between atoms: C_1  and  N_2
REMARK    2  A    between atoms: N_2  and  C_3
REMARK    3  A    between atoms: C_3  and  C_4
REMARK    4  A    between atoms: C_3  and  C_5
REMARK    5  A    between atoms: C_3  and  C_6
REMARK    6  A    between atoms: C_9  and  N_10
REMARK    7  A    between atoms: C_16  and  C_17
REMARK                            x       y       z     vdW  Elec       q    Type
REMARK                         _______ _______ _______ _____ _____    ______ ____
ROOT
ATOM      1  N   UNL     1       1.359   8.580  20.535  0.00  0.00    +0.000 N 
ATOM      2  C   UNL     1       1.281   8.881  21.869  0.00  0.00    +0.000 A 
ATOM      3  C   UNL     1       0.232   9.733  21.947  0.00  0.00    +0.000 A 
ATOM      4  C   UNL     1      -0.405  10.032  23.138  0.00  0.00    +0.000 A 
ATOM      5  C   UNL     1      -1.319  11.080  22.965  0.00  0.00    +0.000 A 
ATOM      6  C   UNL     1      -1.439  11.805  21.746  0.00  0.00    +0.000 A 
ATOM      7  C   UNL     1      -0.702  11.508  20.560  0.00  0.00    +0.000 A 
ATOM      8  C   UNL     1       0.100  10.340  20.646  0.00  0.00    +0.000 A 
ATOM      9  N   UNL     1       0.862   9.617  19.770  0.00  0.00    +0.000 NA
ENDROOT
BRANCH   1  13
ATOM     10  C   UNL     1       2.766   4.922  18.840  0.00  0.00    +0.000 A 
ATOM     11  C   UNL     1       2.872   6.126  18.162  0.00  0.00    +0.000 A 
ATOM     12  C   UNL     1       2.454   7.320  18.759  0.00  0.00    +0.000 A 
ATOM     13  C   UNL     1       1.894   7.345  20.055  0.00  0.00    +0.000 A 
ATOM     14  C   UNL     1       1.892   6.175  20.800  0.00  0.00    +0.000 A 
ATOM     15  C   UNL     1       2.313   4.978  20.188  0.00  0.00    +0.000 A 
BRANCH  10  16
ATOM     16  C   UNL     1       3.094   3.580  18.155  0.00  0.00    +0.000 C 
ATOM     17  C   UNL     1       3.866   2.556  19.027  0.00  0.00    +0.000 C 
ATOM     18  C   UNL     1       4.030   3.880  16.954  0.00  0.00    +0.000 C 
BRANCH  16  20
ATOM     19  C   UNL     1       1.067   2.224  18.589  0.00  0.00    +0.000 C 
ATOM     20  N   UNL     1       1.885   2.930  17.606  0.00  0.00    +0.000 NA
ATOM     21  H   UNL     1       1.310   3.619  17.138  0.00  0.00    +0.000 HD
ENDBRANCH  16  20
ENDBRANCH  10  16
ENDBRANCH   1  13
BRANCH   7  22
ATOM     22  C   UNL     1      -0.693  12.514  19.482  0.00  0.00    +0.000 C 
ATOM     23  N   UNL     1       0.007  12.237  18.348  0.00  0.00    +0.000 N 
ATOM     24  O   UNL     1      -1.219  13.607  19.633  0.00  0.00    +0.000 OA
ATOM     25  H   UNL     1       0.554  11.387  18.267  0.00  0.00    +0.000 HD
ATOM     26  H   UNL     1       0.203  13.009  17.726  0.00  0.00    +0.000 HD
ENDBRANCH   7  22
TORSDOF 4
ENDMDL
