MODEL 1
REMARK VINA RESULT:      -7.0      0.000      0.000
REMARK  Name = 
REMARK  5 active torsions:
REMARK  status: ('A' for Active; 'I' for Inactive)
REMARK    1  A    between atoms: C_1  and  O_2
REMARK    2  A    between atoms: O_2  and  C_3
REMARK    3  A    between atoms: C_6  and  N_7
REMARK    4  A    between atoms: C_8  and  C_10
REMARK    5  A    between atoms: C_15  and  N_16
REMARK                            x       y       z     vdW  Elec       q    Type
REMARK                         _______ _______ _______ _____ _____    ______ ____
ROOT
ATOM      1  C   UNL     1       5.681   5.243  15.828  0.00  0.00    +0.000 A 
ATOM      2  N   UNL     1       5.870   6.530  16.156  0.00  0.00    +0.000 NA
ATOM      3  C   UNL     1       5.074   7.018  17.120  0.00  0.00    +0.000 A 
ATOM      4  C   UNL     1       4.125   6.255  17.754  0.00  0.00    +0.000 A 
ATOM      5  C   UNL     1       4.017   4.911  17.366  0.00  0.00    +0.000 A 
ATOM      6  N   UNL     1       4.784   4.398  16.383  0.00  0.00    +0.000 NA
ENDROOT
BRANCH   5   7
ATOM      7  N   UNL     1       3.110   4.108  18.075  0.00  0.00    +0.000 N 
ATOM      8  C   UNL     1       1.801   3.848  17.493  0.00  0.00    +0.000 C 
ATOM      9  C   UNL     1       1.227   2.908  18.545  0.00  0.00    +0.000 C 
ATOM     10  C   UNL     1       2.403   1.986  18.868  0.00  0.00    +0.000 C 
ATOM     11  C   UNL     1       3.652   2.796  18.488  0.00  0.00    +0.000 C 
ENDBRANCH   5   7
BRANCH   4  12
ATOM     12  N   UNL     1       3.223   6.784  18.699  0.00  0.00    +0.000 N 
ATOM     13  C   UNL     1       2.432   7.882  18.426  0.00  0.00    +0.000 C 
ATOM     14  O   UNL     1       2.400   8.440  17.331  0.00  0.00    +0.000 OA
ATOM     15  H   UNL     1       3.504   6.685  19.672  0.00  0.00    +0.000 HD
BRANCH  13  16
ATOM     16  C   UNL     1       1.700   8.367  19.578  0.00  0.00    +0.000 A 
ATOM     17  C   UNL     1       1.523   7.824  20.836  0.00  0.00    +0.000 A 
ATOM     18  C   UNL     1       0.779   8.766  21.584  0.00  0.00    +0.000 A 
ATOM     19  C   UNL     1       0.522   9.815  20.733  0.00  0.00    +0.000 A 
ATOM     20  O   UNL     1       1.054   9.575  19.508  0.00  0.00    +0.000 OA
ENDBRANCH  13  16
ENDBRANCH   4  12
BRANCH   1  22
ATOM     21  C   UNL     1       5.967   3.904  13.946  0.00  0.00    +0.000 C 
ATOM     22  O   UNL     1       6.571   4.784  14.878  0.00  0.00    +0.000 OA
ENDBRANCH   1  22
TORSDOF 4
ENDMDL
MODEL 2
REMARK VINA RESULT:      -7.0      2.974      4.648
REMARK  Name = 
REMARK  5 active torsions:
REMARK  status: ('A' for Active; 'I' for Inactive)
REMARK    1  A    between atoms: C_1  and  O_2
REMARK    2  A    between atoms: O_2  and  C_3
REMARK    3  A    between atoms: C_6  and  N_7
REMARK    4  A    between atoms: C_8  and  C_10
REMARK    5  A    between atoms: C_15  and  N_16
REMARK                            x       y       z     vdW  Elec       q    Type
REMARK                         _______ _______ _______ _____ _____    ______ ____
ROOT
ATOM      1  C   UNL     1       6.772   4.662  14.020  0.00  0.00    +0.000 A 
ATOM      2  N   UNL     1       5.492   4.311  13.822  0.00  0.00    +0.000 NA
ATOM      3  C   UNL     1       4.677   4.427  14.881  0.00  0.00    +0.000 A 
ATOM      4  C   UNL     1       5.107   4.889  16.101  0.00  0.00    +0.000 A 
ATOM      5  C   UNL     1       6.456   5.258  16.208  0.00  0.00    +0.000 A 
ATOM      6  N   UNL     1       7.306   5.129  15.171  0.00  0.00    +0.000 NA
ENDROOT
BRANCH   5   7
ATOM      7  N   UNL     1       6.875   5.814  17.427  0.00  0.00    +0.000 N 
ATOM      8  C   UNL     1       7.744   5.029  18.293  0.00  0.00    +0.000 C 
ATOM      9  C   UNL     1       7.982   6.037  19.410  0.00  0.00    +0.000 C 
ATOM     10  C   UNL     1       8.205   7.348  18.656  0.00  0.00    +0.000 C 
ATOM     11  C   UNL     1       7.500   7.148  17.305  0.00  0.00    +0.000 C 
ENDBRANCH   5   7
BRANCH   4  12
ATOM     12  N   UNL     1       4.280   4.924  17.242  0.00  0.00    +0.000 N 
ATOM     13  C   UNL     1       3.846   3.774  17.871  0.00  0.00    +0.000 C 
ATOM     14  O   UNL     1       4.192   2.645  17.535  0.00  0.00    +0.000 OA
ATOM     15  H   UNL     1       3.637   5.712  17.290  0.00  0.00    +0.000 HD
BRANCH  13  16
ATOM     16  C   UNL     1       2.875   4.021  18.918  0.00  0.00    +0.000 A 
ATOM     17  C   UNL     1       1.523   3.749  18.985  0.00  0.00    +0.000 A 
ATOM     18  C   UNL     1       1.093   4.138  20.276  0.00  0.00    +0.000 A 
ATOM     19  C   UNL     1       2.200   4.648  20.911  0.00  0.00    +0.000 A 
ATOM     20  O   UNL     1       3.281   4.605  20.091  0.00  0.00    +0.000 OA
ENDBRANCH  13  16
ENDBRANCH   4  12
BRANCH   1  22
ATOM     21  C   UNL     1       6.951   3.775  11.875  0.00  0.00    +0.000 C 
ATOM     22  O   UNL     1       7.544   4.581  12.879  0.00  0.00    +0.000 OA
ENDBRANCH   1  22
TORSDOF 4
ENDMDL
MODEL 3
REMARK VINA RESULT:      -6.9      3.003      4.818
REMARK  Name = 
REMARK  5 active torsions:
REMARK  status: ('A' for Active; 'I' for Inactive)
REMARK    1  A    between atoms: C_1  and  O_2
REMARK    2  A    between atoms: O_2  and  C_3
REMARK    3  A    between atoms: C_6  and  N_7
REMARK    4  A    between atoms: C_8  and  C_10
REMARK    5  A    between atoms: C_15  and  N_16
REMARK                            x       y       z     vdW  Elec       q    Type
REMARK                         _______ _______ _______ _____ _____    ______ ____
ROOT
ATOM      1  C   UNL     1       6.991   4.741  13.905  0.00  0.00    +0.000 A 
ATOM      2  N   UNL     1       5.898   3.984  13.724  0.00  0.00    +0.000 NA
ATOM      3  C   UNL     1       5.191   3.695  14.827  0.00  0.00    +0.000 A 
ATOM      4  C   UNL     1       5.542   4.150  16.075  0.00  0.00    +0.000 A 
ATOM      5  C   UNL     1       6.685   4.958  16.164  0.00  0.00    +0.000 A 
ATOM      6  N   UNL     1       7.432   5.246  15.079  0.00  0.00    +0.000 NA
ENDROOT
BRANCH   5   7
ATOM      7  N   UNL     1       6.995   5.497  17.423  0.00  0.00    +0.000 N 
ATOM      8  C   UNL     1       7.912   4.770  18.290  0.00  0.00    +0.000 C 
ATOM      9  C   UNL     1       7.995   5.742  19.459  0.00  0.00    +0.000 C 
ATOM     10  C   UNL     1       8.101   7.105  18.773  0.00  0.00    +0.000 C 
ATOM     11  C   UNL     1       7.474   6.895  17.386  0.00  0.00    +0.000 C 
ENDBRANCH   5   7
BRANCH   4  12
ATOM     12  N   UNL     1       4.860   3.772  17.248  0.00  0.00    +0.000 N 
ATOM     13  C   UNL     1       3.887   4.567  17.821  0.00  0.00    +0.000 C 
ATOM     14  O   UNL     1       3.495   5.621  17.328  0.00  0.00    +0.000 OA
ATOM     15  H   UNL     1       5.397   3.208  17.902  0.00  0.00    +0.000 HD
BRANCH  13  16
ATOM     16  C   UNL     1       3.427   4.080  19.106  0.00  0.00    +0.000 A 
ATOM     17  C   UNL     1       2.500   4.592  19.993  0.00  0.00    +0.000 A 
ATOM     18  C   UNL     1       2.394   3.662  21.053  0.00  0.00    +0.000 A 
ATOM     19  C   UNL     1       3.279   2.651  20.765  0.00  0.00    +0.000 A 
ATOM     20  O   UNL     1       3.929   2.903  19.600  0.00  0.00    +0.000 OA
ENDBRANCH  13  16
ENDBRANCH   4  12
BRANCH   1  22
ATOM     21  C   UNL     1       7.275   4.199  11.659  0.00  0.00    +0.000 C 
ATOM     22  O   UNL     1       7.638   5.056  12.727  0.00  0.00    +0.000 OA
ENDBRANCH   1  22
TORSDOF 4
ENDMDL
MODEL 4
REMARK VINA RESULT:      -6.9      1.039      1.246
REMARK  Name = 
REMARK  5 active torsions:
REMARK  status: ('A' for Active; 'I' for Inactive)
REMARK    1  A    between atoms: C_1  and  O_2
REMARK    2  A    between atoms: O_2  and  C_3
REMARK    3  A    between atoms: C_6  and  N_7
REMARK    4  A    between atoms: C_8  and  C_10
REMARK    5  A    between atoms: C_15  and  N_16
REMARK                            x       y       z     vdW  Elec       q    Type
REMARK                         _______ _______ _______ _____ _____    ______ ____
ROOT
ATOM      1  C   UNL     1       5.089   4.521  16.430  0.00  0.00    +0.000 A 
ATOM      2  N   UNL     1       5.373   5.832  16.446  0.00  0.00    +0.000 NA
ATOM      3  C   UNL     1       4.620   6.589  17.259  0.00  0.00    +0.000 A 
ATOM      4  C   UNL     1       3.622   6.067  18.046  0.00  0.00    +0.000 A 
ATOM      5  C   UNL     1       3.415   4.681  17.984  0.00  0.00    +0.000 A 
ATOM      6  N   UNL     1       4.137   3.897  17.160  0.00  0.00    +0.000 NA
ENDROOT
BRANCH   5   7
ATOM      7  N   UNL     1       2.457   4.135  18.854  0.00  0.00    +0.000 N 
ATOM      8  C   UNL     1       1.421   3.274  18.302  0.00  0.00    +0.000 C 
ATOM      9  C   UNL     1       0.697   2.880  19.582  0.00  0.00    +0.000 C 
ATOM     10  C   UNL     1       1.841   2.604  20.559  0.00  0.00    +0.000 C 
ATOM     11  C   UNL     1       3.026   3.415  20.012  0.00  0.00    +0.000 C 
ENDBRANCH   5   7
BRANCH   4  12
ATOM     12  N   UNL     1       2.766   6.868  18.829  0.00  0.00    +0.000 N 
ATOM     13  C   UNL     1       2.253   8.064  18.369  0.00  0.00    +0.000 C 
ATOM     14  O   UNL     1       2.442   8.491  17.232  0.00  0.00    +0.000 OA
ATOM     15  H   UNL     1       2.927   6.825  19.833  0.00  0.00    +0.000 HD
BRANCH  13  16
ATOM     16  C   UNL     1       1.534   8.811  19.381  0.00  0.00    +0.000 A 
ATOM     17  C   UNL     1       0.732   9.932  19.284  0.00  0.00    +0.000 A 
ATOM     18  C   UNL     1       0.228  10.184  20.582  0.00  0.00    +0.000 A 
ATOM     19  C   UNL     1       0.771   9.220  21.398  0.00  0.00    +0.000 A 
ATOM     20  O   UNL     1       1.582   8.396  20.687  0.00  0.00    +0.000 OA
ENDBRANCH  13  16
ENDBRANCH   4  12
BRANCH   1  22
ATOM     21  C   UNL     1       5.994   4.283  14.299  0.00  0.00    +0.000 C 
ATOM     22  O   UNL     1       5.938   3.788  15.625  0.00  0.00    +0.000 OA
ENDBRANCH   1  22
TORSDOF 4
ENDMDL
MODEL 5
REMARK VINA RESULT:      -6.7      1.487      5.932
REMARK  Name = 
REMARK  5 active torsions:
REMARK  status: ('A' for Active; 'I' for Inactive)
REMARK    1  A    between atoms: C_1  and  O_2
REMARK    2  A    between atoms: O_2  and  C_3
REMARK    3  A    between atoms: C_6  and  N_7
REMARK    4  A    between atoms: C_8  and  C_10
REMARK    5  A    between atoms: C_15  and  N_16
REMARK                            x       y       z     vdW  Elec       q    Type
REMARK                         _______ _______ _______ _____ _____    ______ ____
ROOT
ATOM      1  C   UNL     1       1.915   7.613  19.921  0.00  0.00    +0.000 A 
ATOM      2  N   UNL     1       2.360   8.385  18.918  0.00  0.00    +0.000 NA
ATOM      3  C   UNL     1       3.011   7.752  17.929  0.00  0.00    +0.000 A 
ATOM      4  C   UNL     1       3.207   6.392  17.921  0.00  0.00    +0.000 A 
ATOM      5  C   UNL     1       2.682   5.663  18.998  0.00  0.00    +0.000 A 
ATOM      6  N   UNL     1       2.047   6.271  20.019  0.00  0.00    +0.000 NA
ENDROOT
BRANCH   5   7
ATOM      7  N   UNL     1       2.804   4.265  18.947  0.00  0.00    +0.000 N 
ATOM      8  C   UNL     1       3.797   3.616  19.793  0.00  0.00    +0.000 C 
ATOM      9  C   UNL     1       3.512   2.158  19.461  0.00  0.00    +0.000 C 
ATOM     10  C   UNL     1       1.984   2.094  19.447  0.00  0.00    +0.000 C 
ATOM     11  C   UNL     1       1.535   3.535  19.157  0.00  0.00    +0.000 C 
ENDBRANCH   5   7
BRANCH   4  12
ATOM     12  N   UNL     1       3.970   5.734  16.936  0.00  0.00    +0.000 N 
ATOM     13  C   UNL     1       5.342   5.863  16.860  0.00  0.00    +0.000 C 
ATOM     14  O   UNL     1       6.009   6.499  17.672  0.00  0.00    +0.000 OA
ATOM     15  H   UNL     1       3.499   5.590  16.045  0.00  0.00    +0.000 HD
BRANCH  13  16
ATOM     16  C   UNL     1       5.915   5.244  15.682  0.00  0.00    +0.000 A 
ATOM     17  C   UNL     1       5.432   4.252  14.851  0.00  0.00    +0.000 A 
ATOM     18  C   UNL     1       6.380   4.093  13.813  0.00  0.00    +0.000 A 
ATOM     19  C   UNL     1       7.397   4.977  14.085  0.00  0.00    +0.000 A 
ATOM     20  O   UNL     1       7.139   5.663  15.228  0.00  0.00    +0.000 OA
ENDBRANCH  13  16
ENDBRANCH   4  12
BRANCH   1  22
ATOM     21  C   UNL     1       0.764   9.577  20.407  0.00  0.00    +0.000 C 
ATOM     22  O   UNL     1       1.201   8.312  20.873  0.00  0.00    +0.000 OA
ENDBRANCH   1  22
TORSDOF 4
ENDMDL
MODEL 6
REMARK VINA RESULT:      -6.7      1.319      1.457
REMARK  Name = 
REMARK  5 active torsions:
REMARK  status: ('A' for Active; 'I' for Inactive)
REMARK    1  A    between atoms: C_1  and  O_2
REMARK    2  A    between atoms: O_2  and  C_3
REMARK    3  A    between atoms: C_6  and  N_7
REMARK    4  A    between atoms: C_8  and  C_10
REMARK    5  A    between atoms: C_15  and  N_16
REMARK                            x       y       z     vdW  Elec       q    Type
REMARK                         _______ _______ _______ _____ _____    ______ ____
ROOT
ATOM      1  C   UNL     1       4.807   5.095  16.526  0.00  0.00    +0.000 A 
ATOM      2  N   UNL     1       5.037   6.415  16.475  0.00  0.00    +0.000 NA
ATOM      3  C   UNL     1       4.294   7.177  17.293  0.00  0.00    +0.000 A 
ATOM      4  C   UNL     1       3.358   6.651  18.150  0.00  0.00    +0.000 A 
ATOM      5  C   UNL     1       3.206   5.256  18.155  0.00  0.00    +0.000 A 
ATOM      6  N   UNL     1       3.918   4.466  17.327  0.00  0.00    +0.000 NA
ENDROOT
BRANCH   5   7
ATOM      7  N   UNL     1       2.314   4.711  19.093  0.00  0.00    +0.000 N 
ATOM      8  C   UNL     1       1.423   3.640  18.671  0.00  0.00    +0.000 C 
ATOM      9  C   UNL     1       0.733   3.336  19.994  0.00  0.00    +0.000 C 
ATOM     10  C   UNL     1       1.881   3.371  21.003  0.00  0.00    +0.000 C 
ATOM     11  C   UNL     1       2.952   4.255  20.345  0.00  0.00    +0.000 C 
ENDBRANCH   5   7
BRANCH   4  12
ATOM     12  N   UNL     1       2.510   7.450  18.941  0.00  0.00    +0.000 N 
ATOM     13  C   UNL     1       1.912   8.595  18.454  0.00  0.00    +0.000 C 
ATOM     14  O   UNL     1       2.016   8.972  17.289  0.00  0.00    +0.000 OA
ATOM     15  H   UNL     1       2.729   7.466  19.935  0.00  0.00    +0.000 HD
BRANCH  13  16
ATOM     16  C   UNL     1       1.216   9.359  19.469  0.00  0.00    +0.000 A 
ATOM     17  C   UNL     1       0.758   8.999  20.722  0.00  0.00    +0.000 A 
ATOM     18  C   UNL     1       0.219  10.168  21.309  0.00  0.00    +0.000 A 
ATOM     19  C   UNL     1       0.355  11.165  20.372  0.00  0.00    +0.000 A 
ATOM     20  O   UNL     1       0.936  10.683  19.244  0.00  0.00    +0.000 OA
ENDBRANCH  13  16
ENDBRANCH   4  12
BRANCH   1  22
ATOM     21  C   UNL     1       6.996   4.405  16.135  0.00  0.00    +0.000 C 
ATOM     22  O   UNL     1       5.645   4.362  15.710  0.00  0.00    +0.000 OA
ENDBRANCH   1  22
TORSDOF 4
ENDMDL
MODEL 7
REMARK VINA RESULT:      -6.7      2.865      6.934
REMARK  Name = 
REMARK  5 active torsions:
REMARK  status: ('A' for Active; 'I' for Inactive)
REMARK    1  A    between atoms: C_1  and  O_2
REMARK    2  A    between atoms: O_2  and  C_3
REMARK    3  A    between atoms: C_6  and  N_7
REMARK    4  A    between atoms: C_8  and  C_10
REMARK    5  A    between atoms: C_15  and  N_16
REMARK                            x       y       z     vdW  Elec       q    Type
REMARK                         _______ _______ _______ _____ _____    ______ ____
ROOT
ATOM      1  C   UNL     1       2.935   4.946  19.495  0.00  0.00    +0.000 A 
ATOM      2  N   UNL     1       2.293   4.292  18.515  0.00  0.00    +0.000 NA
ATOM      3  C   UNL     1       2.922   4.236  17.331  0.00  0.00    +0.000 A 
ATOM      4  C   UNL     1       4.158   4.797  17.120  0.00  0.00    +0.000 A 
ATOM      5  C   UNL     1       4.766   5.437  18.210  0.00  0.00    +0.000 A 
ATOM      6  N   UNL     1       4.150   5.533  19.405  0.00  0.00    +0.000 NA
ENDROOT
BRANCH   5   7
ATOM      7  N   UNL     1       6.066   5.933  18.021  0.00  0.00    +0.000 N 
ATOM      8  C   UNL     1       6.234   7.322  17.620  0.00  0.00    +0.000 C 
ATOM      9  C   UNL     1       7.754   7.413  17.616  0.00  0.00    +0.000 C 
ATOM     10  C   UNL     1       8.152   6.661  18.887  0.00  0.00    +0.000 C 
ATOM     11  C   UNL     1       6.974   5.716  19.167  0.00  0.00    +0.000 C 
ENDBRANCH   5   7
BRANCH   4  12
ATOM     12  N   UNL     1       4.781   4.824  15.856  0.00  0.00    +0.000 N 
ATOM     13  C   UNL     1       5.646   3.832  15.441  0.00  0.00    +0.000 C 
ATOM     14  O   UNL     1       5.889   2.824  16.101  0.00  0.00    +0.000 OA
ATOM     15  H   UNL     1       4.980   5.752  15.489  0.00  0.00    +0.000 HD
BRANCH  13  16
ATOM     16  C   UNL     1       6.305   4.129  14.185  0.00  0.00    +0.000 A 
ATOM     17  C   UNL     1       6.164   3.568  12.931  0.00  0.00    +0.000 A 
ATOM     18  C   UNL     1       7.004   4.301  12.061  0.00  0.00    +0.000 A 
ATOM     19  C   UNL     1       7.627   5.248  12.838  0.00  0.00    +0.000 A 
ATOM     20  O   UNL     1       7.230   5.139  14.132  0.00  0.00    +0.000 OA
ENDBRANCH  13  16
ENDBRANCH   4  12
BRANCH   1  22
ATOM     21  C   UNL     1       2.194   3.609  21.251  0.00  0.00    +0.000 C 
ATOM     22  O   UNL     1       2.268   4.914  20.702  0.00  0.00    +0.000 OA
ENDBRANCH   1  22
TORSDOF 4
ENDMDL
MODEL 8
REMARK VINA RESULT:      -6.5      1.736      5.920
REMARK  Name = 
REMARK  5 active torsions:
REMARK  status: ('A' for Active; 'I' for Inactive)
REMARK    1  A    between atoms: C_1  and  O_2
REMARK    2  A    between atoms: O_2  and  C_3
REMARK    3  A    between atoms: C_6  and  N_7
REMARK    4  A    between atoms: C_8  and  C_10
REMARK    5  A    between atoms: C_15  and  N_16
REMARK                            x       y       z     vdW  Elec       q    Type
REMARK                         _______ _______ _______ _____ _____    ______ ____
ROOT
ATOM      1  C   UNL     1       1.497   8.493  19.876  0.00  0.00    +0.000 A 
ATOM      2  N   UNL     1       1.913   9.028  18.719  0.00  0.00    +0.000 NA
ATOM      3  C   UNL     1       2.586   8.209  17.897  0.00  0.00    +0.000 A 
ATOM      4  C   UNL     1       2.834   6.892  18.201  0.00  0.00    +0.000 A 
ATOM      5  C   UNL     1       2.337   6.412  19.422  0.00  0.00    +0.000 A 
ATOM      6  N   UNL     1       1.679   7.216  20.280  0.00  0.00    +0.000 NA
ENDROOT
BRANCH   5   7
ATOM      7  N   UNL     1       2.511   5.045  19.693  0.00  0.00    +0.000 N 
ATOM      8  C   UNL     1       2.459   4.594  21.076  0.00  0.00    +0.000 C 
ATOM      9  C   UNL     1       2.616   3.093  20.869  0.00  0.00    +0.000 C 
ATOM     10  C   UNL     1       1.713   2.811  19.668  0.00  0.00    +0.000 C 
ATOM     11  C   UNL     1       1.614   4.154  18.928  0.00  0.00    +0.000 C 
ENDBRANCH   5   7
BRANCH   4  12
ATOM     12  N   UNL     1       3.621   6.053  17.387  0.00  0.00    +0.000 N 
ATOM     13  C   UNL     1       4.963   6.291  17.166  0.00  0.00    +0.000 C 
ATOM     14  O   UNL     1       5.588   7.201  17.704  0.00  0.00    +0.000 OA
ATOM     15  H   UNL     1       3.128   5.607  16.616  0.00  0.00    +0.000 HD
BRANCH  13  16
ATOM     16  C   UNL     1       5.548   5.413  16.173  0.00  0.00    +0.000 A 
ATOM     17  C   UNL     1       5.188   4.146  15.756  0.00  0.00    +0.000 A 
ATOM     18  C   UNL     1       6.070   3.799  14.705  0.00  0.00    +0.000 A 
ATOM     19  C   UNL     1       6.931   4.860  14.561  0.00  0.00    +0.000 A 
ATOM     20  O   UNL     1       6.641   5.835  15.460  0.00  0.00    +0.000 OA
ENDBRANCH  13  16
ENDBRANCH   4  12
BRANCH   1  22
ATOM     21  C   UNL     1       0.796  10.695  20.157  0.00  0.00    +0.000 C 
ATOM     22  O   UNL     1       0.757   9.366  20.648  0.00  0.00    +0.000 OA
ENDBRANCH   1  22
TORSDOF 4
ENDMDL
MODEL 9
REMARK VINA RESULT:      -6.5      2.901      6.965
REMARK  Name = 
REMARK  5 active torsions:
REMARK  status: ('A' for Active; 'I' for Inactive)
REMARK    1  A    between atoms: C_1  and  O_2
REMARK    2  A    between atoms: O_2  and  C_3
REMARK    3  A    between atoms: C_6  and  N_7
REMARK    4  A    between atoms: C_8  and  C_10
REMARK    5  A    between atoms: C_15  and  N_16
REMARK                            x       y       z     vdW  Elec       q    Type
REMARK                         _______ _______ _______ _____ _____    ______ ____
ROOT
ATOM      1  C   UNL     1       3.491   3.854  19.533  0.00  0.00    +0.000 A 
ATOM      2  N   UNL     1       3.180   2.899  18.643  0.00  0.00    +0.000 NA
ATOM      3  C   UNL     1       3.938   2.853  17.537  0.00  0.00    +0.000 A 
ATOM      4  C   UNL     1       4.984   3.716  17.317  0.00  0.00    +0.000 A 
ATOM      5  C   UNL     1       5.253   4.664  18.315  0.00  0.00    +0.000 A 
ATOM      6  N   UNL     1       4.494   4.753  19.426  0.00  0.00    +0.000 NA
ENDROOT
BRANCH   5   7
ATOM      7  N   UNL     1       6.375   5.488  18.133  0.00  0.00    +0.000 N 
ATOM      8  C   UNL     1       6.169   6.880  17.760  0.00  0.00    +0.000 C 
ATOM      9  C   UNL     1       7.612   7.367  17.755  0.00  0.00    +0.000 C 
ATOM     10  C   UNL     1       8.203   6.722  19.010  0.00  0.00    +0.000 C 
ATOM     11  C   UNL     1       7.316   5.495  19.274  0.00  0.00    +0.000 C 
ENDBRANCH   5   7
BRANCH   4  12
ATOM     12  N   UNL     1       5.723   3.734  16.117  0.00  0.00    +0.000 N 
ATOM     13  C   UNL     1       5.508   4.682  15.136  0.00  0.00    +0.000 C 
ATOM     14  O   UNL     1       4.715   5.612  15.253  0.00  0.00    +0.000 OA
ATOM     15  H   UNL     1       6.028   2.824  15.780  0.00  0.00    +0.000 HD
BRANCH  13  16
ATOM     16  C   UNL     1       6.251   4.428  13.918  0.00  0.00    +0.000 A 
ATOM     17  C   UNL     1       6.064   3.493  12.919  0.00  0.00    +0.000 A 
ATOM     18  C   UNL     1       7.043   3.753  11.931  0.00  0.00    +0.000 A 
ATOM     19  C   UNL     1       7.785   4.812  12.396  0.00  0.00    +0.000 A 
ATOM     20  O   UNL     1       7.330   5.216  13.610  0.00  0.00    +0.000 OA
ENDBRANCH  13  16
ENDBRANCH   4  12
BRANCH   1  22
ATOM     21  C   UNL     1       2.145   5.065  20.995  0.00  0.00    +0.000 C 
ATOM     22  O   UNL     1       2.718   3.809  20.675  0.00  0.00    +0.000 OA
ENDBRANCH   1  22
TORSDOF 4
ENDMDL
