MODEL 1
REMARK VINA RESULT:      -8.5      0.000      0.000
REMARK  Name = 
REMARK  6 active torsions:
REMARK  status: ('A' for Active; 'I' for Inactive)
REMARK    1  A    between atoms: C_1  and  C_2
REMARK    2  A    between atoms: C_5  and  O_6
REMARK    3  A    between atoms: C_7  and  C_8
REMARK    4  A    between atoms: C_8  and  C_10
REMARK    5  A    between atoms: N_14  and  C_15
REMARK    6  A    between atoms: N_21  and  C_22
REMARK                            x       y       z     vdW  Elec       q    Type
REMARK                         _______ _______ _______ _____ _____    ______ ____
ROOT
ATOM      1  C   UNL     1       2.293   8.476  18.349  0.00  0.00    +0.000 A 
ATOM      2  C   UNL     1       3.246   8.188  17.259  0.00  0.00    +0.000 A 
ATOM      3  N   UNL     1       3.800   7.053  16.999  0.00  0.00    +0.000 NA
ATOM      4  C   UNL     1       3.543   5.981  17.834  0.00  0.00    +0.000 A 
ATOM      5  N   UNL     1       4.280   4.917  17.669  0.00  0.00    +0.000 NA
ATOM      6  N   UNL     1       2.512   6.095  18.807  0.00  0.00    +0.000 N 
ATOM      7  C   UNL     1       1.934   7.357  19.000  0.00  0.00    +0.000 A 
ENDROOT
BRANCH   5   8
ATOM      8  C   UNL     1       5.288   4.802  16.690  0.00  0.00    +0.000 A 
ATOM      9  C   UNL     1       6.626   5.171  16.877  0.00  0.00    +0.000 A 
ATOM     10  C   UNL     1       7.546   5.121  15.829  0.00  0.00    +0.000 A 
ATOM     11  C   UNL     1       7.162   4.610  14.594  0.00  0.00    +0.000 A 
ATOM     12  C   UNL     1       5.863   4.140  14.417  0.00  0.00    +0.000 A 
ATOM     13  C   UNL     1       4.935   4.241  15.460  0.00  0.00    +0.000 A 
ENDBRANCH   5   8
BRANCH   6  14
ATOM     14  C   UNL     1       2.094   4.982  19.622  0.00  0.00    +0.000 A 
ATOM     15  C   UNL     1       2.511   4.824  20.956  0.00  0.00    +0.000 A 
ATOM     16  C   UNL     1       2.116   3.724  21.726  0.00  0.00    +0.000 A 
ATOM     17  C   UNL     1       1.270   2.761  21.189  0.00  0.00    +0.000 A 
ATOM     18  C   UNL     1       0.814   2.902  19.883  0.00  0.00    +0.000 A 
ATOM     19  C   UNL     1       1.225   3.995  19.111  0.00  0.00    +0.000 A 
ENDBRANCH   6  14
BRANCH   1  20
ATOM     20  C   UNL     1       1.833   9.870  18.578  0.00  0.00    +0.000 C 
ATOM     21  O   UNL     1       2.368  10.785  17.955  0.00  0.00    +0.000 OA
BRANCH  20  27
ATOM     22  C   UNL     1       0.196   9.397  23.298  0.00  0.00    +0.000 C 
ATOM     23  C   UNL     1       0.024   9.979  21.925  0.00  0.00    +0.000 A 
ATOM     24  C   UNL     1      -1.089  10.756  21.599  0.00  0.00    +0.000 A 
ATOM     25  C   UNL     1      -1.247  11.256  20.306  0.00  0.00    +0.000 A 
ATOM     26  C   UNL     1      -0.308  10.956  19.320  0.00  0.00    +0.000 A 
ATOM     27  C   UNL     1       0.813  10.171  19.621  0.00  0.00    +0.000 A 
ATOM     28  C   UNL     1       0.990   9.726  20.943  0.00  0.00    +0.000 A 
BRANCH  26  29
ATOM     29  O   UNL     1      -0.521  11.410  18.050  0.00  0.00    +0.000 OA
ATOM     30  H   UNL     1      -1.450  11.670  17.949  0.00  0.00    +0.000 HD
ENDBRANCH  26  29
ENDBRANCH  20  27
ENDBRANCH   1  20
TORSDOF 5
ENDMDL
MODEL 2
REMARK VINA RESULT:      -8.1      1.257      2.042
REMARK  Name = 
REMARK  6 active torsions:
REMARK  status: ('A' for Active; 'I' for Inactive)
REMARK    1  A    between atoms: C_1  and  C_2
REMARK    2  A    between atoms: C_5  and  O_6
REMARK    3  A    between atoms: C_7  and  C_8
REMARK    4  A    between atoms: C_8  and  C_10
REMARK    5  A    between atoms: N_14  and  C_15
REMARK    6  A    between atoms: N_21  and  C_22
REMARK                            x       y       z     vdW  Elec       q    Type
REMARK                         _______ _______ _______ _____ _____    ______ ____
ROOT
ATOM      1  C   UNL     1       2.217   8.461  18.203  0.00  0.00    +0.000 A 
ATOM      2  C   UNL     1       3.186   8.170  17.128  0.00  0.00    +0.000 A 
ATOM      3  N   UNL     1       3.763   7.040  16.895  0.00  0.00    +0.000 NA
ATOM      4  C   UNL     1       3.518   5.980  17.749  0.00  0.00    +0.000 A 
ATOM      5  N   UNL     1       4.276   4.927  17.611  0.00  0.00    +0.000 NA
ATOM      6  N   UNL     1       2.476   6.094  18.710  0.00  0.00    +0.000 N 
ATOM      7  C   UNL     1       1.873   7.348  18.872  0.00  0.00    +0.000 A 
ENDROOT
BRANCH   5   8
ATOM      8  C   UNL     1       5.295   4.811  16.644  0.00  0.00    +0.000 A 
ATOM      9  C   UNL     1       6.617   5.237  16.825  0.00  0.00    +0.000 A 
ATOM     10  C   UNL     1       7.546   5.180  15.785  0.00  0.00    +0.000 A 
ATOM     11  C   UNL     1       7.191   4.608  14.569  0.00  0.00    +0.000 A 
ATOM     12  C   UNL     1       5.911   4.084  14.402  0.00  0.00    +0.000 A 
ATOM     13  C   UNL     1       4.972   4.191  15.434  0.00  0.00    +0.000 A 
ENDBRANCH   5   8
BRANCH   6  14
ATOM     14  C   UNL     1       2.071   4.990  19.543  0.00  0.00    +0.000 A 
ATOM     15  C   UNL     1       2.497   4.853  20.876  0.00  0.00    +0.000 A 
ATOM     16  C   UNL     1       2.115   3.760  21.664  0.00  0.00    +0.000 A 
ATOM     17  C   UNL     1       1.272   2.785  21.146  0.00  0.00    +0.000 A 
ATOM     18  C   UNL     1       0.807   2.905  19.841  0.00  0.00    +0.000 A 
ATOM     19  C   UNL     1       1.206   3.989  19.051  0.00  0.00    +0.000 A 
ENDBRANCH   6  14
BRANCH   1  20
ATOM     20  C   UNL     1       1.730   9.850  18.400  0.00  0.00    +0.000 C 
ATOM     21  O   UNL     1       2.545  10.744  18.620  0.00  0.00    +0.000 OA
BRANCH  20  27
ATOM     22  C   UNL     1      -2.780   9.681  16.204  0.00  0.00    +0.000 C 
ATOM     23  C   UNL     1      -1.937  10.034  17.395  0.00  0.00    +0.000 A 
ATOM     24  C   UNL     1      -2.486  10.668  18.511  0.00  0.00    +0.000 A 
ATOM     25  C   UNL     1      -1.677  11.021  19.593  0.00  0.00    +0.000 A 
ATOM     26  C   UNL     1      -0.305  10.770  19.551  0.00  0.00    +0.000 A 
ATOM     27  C   UNL     1       0.269  10.144  18.437  0.00  0.00    +0.000 A 
ATOM     28  C   UNL     1      -0.568   9.739  17.384  0.00  0.00    +0.000 A 
BRANCH  26  29
ATOM     29  O   UNL     1       0.469  11.181  20.598  0.00  0.00    +0.000 OA
ATOM     30  H   UNL     1       0.155  12.042  20.917  0.00  0.00    +0.000 HD
ENDBRANCH  26  29
ENDBRANCH  20  27
ENDBRANCH   1  20
TORSDOF 5
ENDMDL
MODEL 3
REMARK VINA RESULT:      -8.1      2.975      7.759
REMARK  Name = 
REMARK  6 active torsions:
REMARK  status: ('A' for Active; 'I' for Inactive)
REMARK    1  A    between atoms: C_1  and  C_2
REMARK    2  A    between atoms: C_5  and  O_6
REMARK    3  A    between atoms: C_7  and  C_8
REMARK    4  A    between atoms: C_8  and  C_10
REMARK    5  A    between atoms: N_14  and  C_15
REMARK    6  A    between atoms: N_21  and  C_22
REMARK                            x       y       z     vdW  Elec       q    Type
REMARK                         _______ _______ _______ _____ _____    ______ ____
ROOT
ATOM      1  C   UNL     1       5.709   5.121  16.803  0.00  0.00    +0.000 A 
ATOM      2  C   UNL     1       5.412   6.553  16.997  0.00  0.00    +0.000 A 
ATOM      3  N   UNL     1       4.396   7.053  17.615  0.00  0.00    +0.000 NA
ATOM      4  C   UNL     1       3.434   6.194  18.114  0.00  0.00    +0.000 A 
ATOM      5  N   UNL     1       2.325   6.737  18.539  0.00  0.00    +0.000 NA
ATOM      6  N   UNL     1       3.699   4.798  18.138  0.00  0.00    +0.000 N 
ATOM      7  C   UNL     1       4.847   4.341  17.477  0.00  0.00    +0.000 A 
ENDROOT
BRANCH   5   8
ATOM      8  C   UNL     1       2.074   8.124  18.532  0.00  0.00    +0.000 A 
ATOM      9  C   UNL     1       2.432   8.993  17.492  0.00  0.00    +0.000 A 
ATOM     10  C   UNL     1       2.240  10.371  17.600  0.00  0.00    +0.000 A 
ATOM     11  C   UNL     1       1.599  10.896  18.716  0.00  0.00    +0.000 A 
ATOM     12  C   UNL     1       1.141  10.039  19.715  0.00  0.00    +0.000 A 
ATOM     13  C   UNL     1       1.384   8.663  19.620  0.00  0.00    +0.000 A 
ENDBRANCH   5   8
BRANCH   6  14
ATOM     14  C   UNL     1       2.808   3.854  18.763  0.00  0.00    +0.000 A 
ATOM     15  C   UNL     1       1.829   3.147  18.042  0.00  0.00    +0.000 A 
ATOM     16  C   UNL     1       0.954   2.252  18.669  0.00  0.00    +0.000 A 
ATOM     17  C   UNL     1       1.051   2.020  20.035  0.00  0.00    +0.000 A 
ATOM     18  C   UNL     1       2.027   2.679  20.774  0.00  0.00    +0.000 A 
ATOM     19  C   UNL     1       2.889   3.586  20.147  0.00  0.00    +0.000 A 
ENDBRANCH   6  14
BRANCH   1  20
ATOM     20  C   UNL     1       6.869   4.714  15.968  0.00  0.00    +0.000 C 
ATOM     21  O   UNL     1       7.965   4.559  16.503  0.00  0.00    +0.000 OA
BRANCH  20  27
ATOM     22  C   UNL     1       4.408   2.948  11.966  0.00  0.00    +0.000 C 
ATOM     23  C   UNL     1       5.525   3.776  12.532  0.00  0.00    +0.000 A 
ATOM     24  C   UNL     1       6.461   4.400  11.703  0.00  0.00    +0.000 A 
ATOM     25  C   UNL     1       7.512   5.134  12.252  0.00  0.00    +0.000 A 
ATOM     26  C   UNL     1       7.656   5.224  13.637  0.00  0.00    +0.000 A 
ATOM     27  C   UNL     1       6.735   4.599  14.488  0.00  0.00    +0.000 A 
ATOM     28  C   UNL     1       5.647   3.915  13.920  0.00  0.00    +0.000 A 
BRANCH  26  29
ATOM     29  O   UNL     1       8.729   5.899  14.144  0.00  0.00    +0.000 OA
ATOM     30  H   UNL     1       8.804   6.764  13.709  0.00  0.00    +0.000 HD
ENDBRANCH  26  29
ENDBRANCH  20  27
ENDBRANCH   1  20
TORSDOF 5
ENDMDL
MODEL 4
REMARK VINA RESULT:      -8.0      1.442      4.927
REMARK  Name = 
REMARK  6 active torsions:
REMARK  status: ('A' for Active; 'I' for Inactive)
REMARK    1  A    between atoms: C_1  and  C_2
REMARK    2  A    between atoms: C_5  and  O_6
REMARK    3  A    between atoms: C_7  and  C_8
REMARK    4  A    between atoms: C_8  and  C_10
REMARK    5  A    between atoms: N_14  and  C_15
REMARK    6  A    between atoms: N_21  and  C_22
REMARK                            x       y       z     vdW  Elec       q    Type
REMARK                         _______ _______ _______ _____ _____    ______ ____
ROOT
ATOM      1  C   UNL     1       2.535   8.676  18.169  0.00  0.00    +0.000 A 
ATOM      2  C   UNL     1       1.961   7.800  19.209  0.00  0.00    +0.000 A 
ATOM      3  N   UNL     1       2.279   6.572  19.444  0.00  0.00    +0.000 NA
ATOM      4  C   UNL     1       3.210   5.959  18.625  0.00  0.00    +0.000 A 
ATOM      5  N   UNL     1       3.346   4.667  18.755  0.00  0.00    +0.000 NA
ATOM      6  N   UNL     1       3.950   6.751  17.706  0.00  0.00    +0.000 N 
ATOM      7  C   UNL     1       3.565   8.088  17.540  0.00  0.00    +0.000 A 
ENDROOT
BRANCH   5   8
ATOM      8  C   UNL     1       2.624   3.888  19.681  0.00  0.00    +0.000 A 
ATOM      9  C   UNL     1       1.240   3.674  19.634  0.00  0.00    +0.000 A 
ATOM     10  C   UNL     1       0.579   2.973  20.644  0.00  0.00    +0.000 A 
ATOM     11  C   UNL     1       1.309   2.392  21.675  0.00  0.00    +0.000 A 
ATOM     12  C   UNL     1       2.697   2.504  21.685  0.00  0.00    +0.000 A 
ATOM     13  C   UNL     1       3.345   3.252  20.695  0.00  0.00    +0.000 A 
ENDBRANCH   5   8
BRANCH   6  14
ATOM     14  C   UNL     1       5.029   6.212  16.916  0.00  0.00    +0.000 A 
ATOM     15  C   UNL     1       6.374   6.298  17.315  0.00  0.00    +0.000 A 
ATOM     16  C   UNL     1       7.411   5.791  16.522  0.00  0.00    +0.000 A 
ATOM     17  C   UNL     1       7.128   5.159  15.318  0.00  0.00    +0.000 A 
ATOM     18  C   UNL     1       5.806   5.029  14.908  0.00  0.00    +0.000 A 
ATOM     19  C   UNL     1       4.773   5.553  15.694  0.00  0.00    +0.000 A 
ENDBRANCH   6  14
BRANCH   1  20
ATOM     20  C   UNL     1       1.975  10.037  17.960  0.00  0.00    +0.000 C 
ATOM     21  O   UNL     1       2.702  10.918  17.504  0.00  0.00    +0.000 OA
BRANCH  20  27
ATOM     22  C   UNL     1      -2.977   9.756  17.195  0.00  0.00    +0.000 C 
ATOM     23  C   UNL     1      -1.827  10.199  18.052  0.00  0.00    +0.000 A 
ATOM     24  C   UNL     1      -2.032  10.942  19.217  0.00  0.00    +0.000 A 
ATOM     25  C   UNL     1      -0.946  11.376  19.979  0.00  0.00    +0.000 A 
ATOM     26  C   UNL     1       0.356  11.096  19.563  0.00  0.00    +0.000 A 
ATOM     27  C   UNL     1       0.587  10.361  18.393  0.00  0.00    +0.000 A 
ATOM     28  C   UNL     1      -0.518   9.879  17.670  0.00  0.00    +0.000 A 
BRANCH  26  29
ATOM     29  O   UNL     1       1.399  11.585  20.297  0.00  0.00    +0.000 OA
ATOM     30  H   UNL     1       1.997  10.858  20.536  0.00  0.00    +0.000 HD
ENDBRANCH  26  29
ENDBRANCH  20  27
ENDBRANCH   1  20
TORSDOF 5
ENDMDL
MODEL 5
REMARK VINA RESULT:      -7.8      1.519      2.599
REMARK  Name = 
REMARK  6 active torsions:
REMARK  status: ('A' for Active; 'I' for Inactive)
REMARK    1  A    between atoms: C_1  and  C_2
REMARK    2  A    between atoms: C_5  and  O_6
REMARK    3  A    between atoms: C_7  and  C_8
REMARK    4  A    between atoms: C_8  and  C_10
REMARK    5  A    between atoms: N_14  and  C_15
REMARK    6  A    between atoms: N_21  and  C_22
REMARK                            x       y       z     vdW  Elec       q    Type
REMARK                         _______ _______ _______ _____ _____    ______ ____
ROOT
ATOM      1  C   UNL     1       1.676   8.508  19.395  0.00  0.00    +0.000 A 
ATOM      2  C   UNL     1       2.627   8.497  18.267  0.00  0.00    +0.000 A 
ATOM      3  N   UNL     1       3.291   7.482  17.827  0.00  0.00    +0.000 NA
ATOM      4  C   UNL     1       3.168   6.273  18.487  0.00  0.00    +0.000 A 
ATOM      5  N   UNL     1       4.010   5.332  18.151  0.00  0.00    +0.000 NA
ATOM      6  N   UNL     1       2.155   6.123  19.473  0.00  0.00    +0.000 N 
ATOM      7  C   UNL     1       1.453   7.270  19.865  0.00  0.00    +0.000 A 
ENDROOT
BRANCH   5   8
ATOM      8  C   UNL     1       5.000   5.479  17.159  0.00  0.00    +0.000 A 
ATOM      9  C   UNL     1       4.851   5.087  15.822  0.00  0.00    +0.000 A 
ATOM     10  C   UNL     1       5.912   5.173  14.919  0.00  0.00    +0.000 A 
ATOM     11  C   UNL     1       7.116   5.742  15.317  0.00  0.00    +0.000 A 
ATOM     12  C   UNL     1       7.251   6.234  16.613  0.00  0.00    +0.000 A 
ATOM     13  C   UNL     1       6.198   6.097  17.525  0.00  0.00    +0.000 A 
ENDBRANCH   5   8
BRANCH   6  14
ATOM     14  C   UNL     1       1.877   4.859  20.107  0.00  0.00    +0.000 A 
ATOM     15  C   UNL     1       1.050   3.885  19.519  0.00  0.00    +0.000 A 
ATOM     16  C   UNL     1       0.770   2.672  20.161  0.00  0.00    +0.000 A 
ATOM     17  C   UNL     1       1.330   2.390  21.400  0.00  0.00    +0.000 A 
ATOM     18  C   UNL     1       2.176   3.318  21.996  0.00  0.00    +0.000 A 
ATOM     19  C   UNL     1       2.441   4.536  21.360  0.00  0.00    +0.000 A 
ENDBRANCH   6  14
BRANCH   1  20
ATOM     20  C   UNL     1       1.078   9.792  19.843  0.00  0.00    +0.000 C 
ATOM     21  O   UNL     1       1.356  10.223  20.961  0.00  0.00    +0.000 OA
BRANCH  20  27
ATOM     22  C   UNL     1      -2.763   9.609  16.618  0.00  0.00    +0.000 C 
ATOM     23  C   UNL     1      -1.820  10.422  17.456  0.00  0.00    +0.000 A 
ATOM     24  C   UNL     1      -1.838  11.818  17.424  0.00  0.00    +0.000 A 
ATOM     25  C   UNL     1      -0.927  12.554  18.184  0.00  0.00    +0.000 A 
ATOM     26  C   UNL     1       0.031  11.897  18.957  0.00  0.00    +0.000 A 
ATOM     27  C   UNL     1       0.074  10.497  18.997  0.00  0.00    +0.000 A 
ATOM     28  C   UNL     1      -0.889   9.772  18.275  0.00  0.00    +0.000 A 
BRANCH  26  29
ATOM     29  O   UNL     1       0.946  12.644  19.642  0.00  0.00    +0.000 OA
ATOM     30  H   UNL     1       1.135  13.459  19.150  0.00  0.00    +0.000 HD
ENDBRANCH  26  29
ENDBRANCH  20  27
ENDBRANCH   1  20
TORSDOF 5
ENDMDL
MODEL 6
REMARK VINA RESULT:      -7.7      1.519      2.255
REMARK  Name = 
REMARK  6 active torsions:
REMARK  status: ('A' for Active; 'I' for Inactive)
REMARK    1  A    between atoms: C_1  and  C_2
REMARK    2  A    between atoms: C_5  and  O_6
REMARK    3  A    between atoms: C_7  and  C_8
REMARK    4  A    between atoms: C_8  and  C_10
REMARK    5  A    between atoms: N_14  and  C_15
REMARK    6  A    between atoms: N_21  and  C_22
REMARK                            x       y       z     vdW  Elec       q    Type
REMARK                         _______ _______ _______ _____ _____    ______ ____
ROOT
ATOM      1  C   UNL     1       1.687   8.475  19.462  0.00  0.00    +0.000 A 
ATOM      2  C   UNL     1       2.622   8.454  18.320  0.00  0.00    +0.000 A 
ATOM      3  N   UNL     1       3.274   7.433  17.877  0.00  0.00    +0.000 NA
ATOM      4  C   UNL     1       3.156   6.228  18.545  0.00  0.00    +0.000 A 
ATOM      5  N   UNL     1       3.988   5.282  18.203  0.00  0.00    +0.000 NA
ATOM      6  N   UNL     1       2.157   6.089  19.547  0.00  0.00    +0.000 N 
ATOM      7  C   UNL     1       1.465   7.241  19.942  0.00  0.00    +0.000 A 
ENDROOT
BRANCH   5   8
ATOM      8  C   UNL     1       4.964   5.418  17.196  0.00  0.00    +0.000 A 
ATOM      9  C   UNL     1       6.162   6.130  17.339  0.00  0.00    +0.000 A 
ATOM     10  C   UNL     1       7.035   6.306  16.264  0.00  0.00    +0.000 A 
ATOM     11  C   UNL     1       6.767   5.689  15.047  0.00  0.00    +0.000 A 
ATOM     12  C   UNL     1       5.634   4.890  14.913  0.00  0.00    +0.000 A 
ATOM     13  C   UNL     1       4.739   4.762  15.983  0.00  0.00    +0.000 A 
ENDBRANCH   5   8
BRANCH   6  14
ATOM     14  C   UNL     1       1.881   4.829  20.192  0.00  0.00    +0.000 A 
ATOM     15  C   UNL     1       2.424   4.487  21.443  0.00  0.00    +0.000 A 
ATOM     16  C   UNL     1       2.167   3.249  22.044  0.00  0.00    +0.000 A 
ATOM     17  C   UNL     1       1.336   2.327  21.420  0.00  0.00    +0.000 A 
ATOM     18  C   UNL     1       0.758   2.645  20.197  0.00  0.00    +0.000 A 
ATOM     19  C   UNL     1       1.031   3.877  19.590  0.00  0.00    +0.000 A 
ENDBRANCH   6  14
BRANCH   1  20
ATOM     20  C   UNL     1       1.101   9.765  19.911  0.00  0.00    +0.000 C 
ATOM     21  O   UNL     1       1.378  10.189  21.032  0.00  0.00    +0.000 OA
BRANCH  20  27
ATOM     22  C   UNL     1      -2.788   9.642  16.741  0.00  0.00    +0.000 C 
ATOM     23  C   UNL     1      -1.805  10.441  17.547  0.00  0.00    +0.000 A 
ATOM     24  C   UNL     1      -1.775  11.835  17.483  0.00  0.00    +0.000 A 
ATOM     25  C   UNL     1      -0.828  12.556  18.213  0.00  0.00    +0.000 A 
ATOM     26  C   UNL     1       0.116  11.884  18.988  0.00  0.00    +0.000 A 
ATOM     27  C   UNL     1       0.111  10.485  19.061  0.00  0.00    +0.000 A 
ATOM     28  C   UNL     1      -0.886   9.777  18.370  0.00  0.00    +0.000 A 
BRANCH  26  29
ATOM     29  O   UNL     1       1.067  12.614  19.644  0.00  0.00    +0.000 OA
ATOM     30  H   UNL     1       0.656  13.099  20.377  0.00  0.00    +0.000 HD
ENDBRANCH  26  29
ENDBRANCH  20  27
ENDBRANCH   1  20
TORSDOF 5
ENDMDL
MODEL 7
REMARK VINA RESULT:      -7.5      1.290      4.780
REMARK  Name = 
REMARK  6 active torsions:
REMARK  status: ('A' for Active; 'I' for Inactive)
REMARK    1  A    between atoms: C_1  and  C_2
REMARK    2  A    between atoms: C_5  and  O_6
REMARK    3  A    between atoms: C_7  and  C_8
REMARK    4  A    between atoms: C_8  and  C_10
REMARK    5  A    between atoms: N_14  and  C_15
REMARK    6  A    between atoms: N_21  and  C_22
REMARK                            x       y       z     vdW  Elec       q    Type
REMARK                         _______ _______ _______ _____ _____    ______ ____
ROOT
ATOM      1  C   UNL     1       2.494   8.788  18.212  0.00  0.00    +0.000 A 
ATOM      2  C   UNL     1       1.910   7.894  19.230  0.00  0.00    +0.000 A 
ATOM      3  N   UNL     1       2.221   6.660  19.443  0.00  0.00    +0.000 NA
ATOM      4  C   UNL     1       3.155   6.059  18.619  0.00  0.00    +0.000 A 
ATOM      5  N   UNL     1       3.285   4.764  18.725  0.00  0.00    +0.000 NA
ATOM      6  N   UNL     1       3.906   6.866  17.722  0.00  0.00    +0.000 N 
ATOM      7  C   UNL     1       3.527   8.208  17.579  0.00  0.00    +0.000 A 
ENDROOT
BRANCH   5   8
ATOM      8  C   UNL     1       2.553   3.971  19.631  0.00  0.00    +0.000 A 
ATOM      9  C   UNL     1       1.215   3.593  19.457  0.00  0.00    +0.000 A 
ATOM     10  C   UNL     1       0.526   2.889  20.445  0.00  0.00    +0.000 A 
ATOM     11  C   UNL     1       1.194   2.468  21.590  0.00  0.00    +0.000 A 
ATOM     12  C   UNL     1       2.552   2.743  21.736  0.00  0.00    +0.000 A 
ATOM     13  C   UNL     1       3.221   3.494  20.761  0.00  0.00    +0.000 A 
ENDBRANCH   5   8
BRANCH   6  14
ATOM     14  C   UNL     1       4.988   6.338  16.929  0.00  0.00    +0.000 A 
ATOM     15  C   UNL     1       4.785   5.761  15.663  0.00  0.00    +0.000 A 
ATOM     16  C   UNL     1       5.844   5.229  14.917  0.00  0.00    +0.000 A 
ATOM     17  C   UNL     1       7.142   5.283  15.409  0.00  0.00    +0.000 A 
ATOM     18  C   UNL     1       7.383   5.874  16.644  0.00  0.00    +0.000 A 
ATOM     19  C   UNL     1       6.319   6.389  17.395  0.00  0.00    +0.000 A 
ENDBRANCH   6  14
BRANCH   1  20
ATOM     20  C   UNL     1       1.942  10.155  18.026  0.00  0.00    +0.000 C 
ATOM     21  O   UNL     1       2.569  10.965  17.346  0.00  0.00    +0.000 OA
BRANCH  20  27
ATOM     22  C   UNL     1      -0.261  12.364  21.957  0.00  0.00    +0.000 C 
ATOM     23  C   UNL     1      -0.383  11.680  20.626  0.00  0.00    +0.000 A 
ATOM     24  C   UNL     1      -1.630  11.393  20.067  0.00  0.00    +0.000 A 
ATOM     25  C   UNL     1      -1.719  10.724  18.846  0.00  0.00    +0.000 A 
ATOM     26  C   UNL     1      -0.561  10.307  18.190  0.00  0.00    +0.000 A 
ATOM     27  C   UNL     1       0.701  10.575  18.737  0.00  0.00    +0.000 A 
ATOM     28  C   UNL     1       0.776  11.304  19.936  0.00  0.00    +0.000 A 
BRANCH  26  29
ATOM     29  O   UNL     1      -0.682   9.601  17.027  0.00  0.00    +0.000 OA
ATOM     30  H   UNL     1      -0.422  10.161  16.278  0.00  0.00    +0.000 HD
ENDBRANCH  26  29
ENDBRANCH  20  27
ENDBRANCH   1  20
TORSDOF 5
ENDMDL
MODEL 8
REMARK VINA RESULT:      -7.3      4.590      7.762
REMARK  Name = 
REMARK  6 active torsions:
REMARK  status: ('A' for Active; 'I' for Inactive)
REMARK    1  A    between atoms: C_1  and  C_2
REMARK    2  A    between atoms: C_5  and  O_6
REMARK    3  A    between atoms: C_7  and  C_8
REMARK    4  A    between atoms: C_8  and  C_10
REMARK    5  A    between atoms: N_14  and  C_15
REMARK    6  A    between atoms: N_21  and  C_22
REMARK                            x       y       z     vdW  Elec       q    Type
REMARK                         _______ _______ _______ _____ _____    ______ ____
ROOT
ATOM      1  C   UNL     1       1.517  13.120  19.091  0.00  0.00    +0.000 A 
ATOM      2  C   UNL     1       0.118  13.283  18.651  0.00  0.00    +0.000 A 
ATOM      3  N   UNL     1      -0.708  12.341  18.343  0.00  0.00    +0.000 NA
ATOM      4  C   UNL     1      -0.260  11.033  18.361  0.00  0.00    +0.000 A 
ATOM      5  N   UNL     1      -1.051  10.134  17.841  0.00  0.00    +0.000 NA
ATOM      6  N   UNL     1       1.010  10.745  18.931  0.00  0.00    +0.000 N 
ATOM      7  C   UNL     1       1.830  11.828  19.276  0.00  0.00    +0.000 A 
ENDROOT
BRANCH   5   8
ATOM      8  C   UNL     1      -2.318  10.421  17.294  0.00  0.00    +0.000 A 
ATOM      9  C   UNL     1      -2.605  10.455  15.923  0.00  0.00    +0.000 A 
ATOM     10  C   UNL     1      -3.860  10.845  15.454  0.00  0.00    +0.000 A 
ATOM     11  C   UNL     1      -4.882  11.119  16.356  0.00  0.00    +0.000 A 
ATOM     12  C   UNL     1      -4.648  10.991  17.723  0.00  0.00    +0.000 A 
ATOM     13  C   UNL     1      -3.371  10.647  18.184  0.00  0.00    +0.000 A 
ENDBRANCH   5   8
BRANCH   6  14
ATOM     14  C   UNL     1       1.489   9.397  19.108  0.00  0.00    +0.000 A 
ATOM     15  C   UNL     1       2.168   8.697  18.095  0.00  0.00    +0.000 A 
ATOM     16  C   UNL     1       2.604   7.379  18.275  0.00  0.00    +0.000 A 
ATOM     17  C   UNL     1       2.394   6.732  19.486  0.00  0.00    +0.000 A 
ATOM     18  C   UNL     1       1.753   7.404  20.520  0.00  0.00    +0.000 A 
ATOM     19  C   UNL     1       1.303   8.716  20.331  0.00  0.00    +0.000 A 
ENDBRANCH   6  14
BRANCH   1  20
ATOM     20  C   UNL     1       2.368  14.320  19.301  0.00  0.00    +0.000 C 
ATOM     21  O   UNL     1       3.199  14.312  20.207  0.00  0.00    +0.000 OA
BRANCH  20  27
ATOM     22  C   UNL     1      -0.417  18.354  18.227  0.00  0.00    +0.000 C 
ATOM     23  C   UNL     1       0.823  17.542  17.989  0.00  0.00    +0.000 A 
ATOM     24  C   UNL     1       1.747  17.897  17.005  0.00  0.00    +0.000 A 
ATOM     25  C   UNL     1       2.875  17.107  16.777  0.00  0.00    +0.000 A 
ATOM     26  C   UNL     1       3.069  15.937  17.510  0.00  0.00    +0.000 A 
ATOM     27  C   UNL     1       2.150  15.555  18.496  0.00  0.00    +0.000 A 
ATOM     28  C   UNL     1       1.053  16.393  18.757  0.00  0.00    +0.000 A 
BRANCH  26  29
ATOM     29  O   UNL     1       4.150  15.154  17.223  0.00  0.00    +0.000 OA
ATOM     30  H   UNL     1       3.852  14.260  16.989  0.00  0.00    +0.000 HD
ENDBRANCH  26  29
ENDBRANCH  20  27
ENDBRANCH   1  20
TORSDOF 5
ENDMDL
MODEL 9
REMARK VINA RESULT:      -7.3      1.020      1.869
REMARK  Name = 
REMARK  6 active torsions:
REMARK  status: ('A' for Active; 'I' for Inactive)
REMARK    1  A    between atoms: C_1  and  C_2
REMARK    2  A    between atoms: C_5  and  O_6
REMARK    3  A    between atoms: C_7  and  C_8
REMARK    4  A    between atoms: C_8  and  C_10
REMARK    5  A    between atoms: N_14  and  C_15
REMARK    6  A    between atoms: N_21  and  C_22
REMARK                            x       y       z     vdW  Elec       q    Type
REMARK                         _______ _______ _______ _____ _____    ______ ____
ROOT
ATOM      1  C   UNL     1       2.015   8.380  18.836  0.00  0.00    +0.000 A 
ATOM      2  C   UNL     1       2.979   8.209  17.732  0.00  0.00    +0.000 A 
ATOM      3  N   UNL     1       3.585   7.121  17.398  0.00  0.00    +0.000 NA
ATOM      4  C   UNL     1       3.380   5.986  18.162  0.00  0.00    +0.000 A 
ATOM      5  N   UNL     1       4.166   4.970  17.928  0.00  0.00    +0.000 NA
ATOM      6  N   UNL     1       2.347   5.987  19.138  0.00  0.00    +0.000 N 
ATOM      7  C   UNL     1       1.710   7.206  19.412  0.00  0.00    +0.000 A 
ENDROOT
BRANCH   5   8
ATOM      8  C   UNL     1       5.176   4.966  16.945  0.00  0.00    +0.000 A 
ATOM      9  C   UNL     1       6.461   5.498  17.120  0.00  0.00    +0.000 A 
ATOM     10  C   UNL     1       7.376   5.548  16.068  0.00  0.00    +0.000 A 
ATOM     11  C   UNL     1       7.052   4.979  14.841  0.00  0.00    +0.000 A 
ATOM     12  C   UNL     1       5.819   4.352  14.676  0.00  0.00    +0.000 A 
ATOM     13  C   UNL     1       4.889   4.352  15.723  0.00  0.00    +0.000 A 
ENDBRANCH   5   8
BRANCH   6  14
ATOM     14  C   UNL     1       1.983   4.805  19.878  0.00  0.00    +0.000 A 
ATOM     15  C   UNL     1       1.127   3.820  19.354  0.00  0.00    +0.000 A 
ATOM     16  C   UNL     1       0.763   2.690  20.097  0.00  0.00    +0.000 A 
ATOM     17  C   UNL     1       1.267   2.502  21.378  0.00  0.00    +0.000 A 
ATOM     18  C   UNL     1       2.140   3.441  21.915  0.00  0.00    +0.000 A 
ATOM     19  C   UNL     1       2.488   4.579  21.177  0.00  0.00    +0.000 A 
ENDBRANCH   6  14
BRANCH   1  20
ATOM     20  C   UNL     1       1.491   9.733  19.155  0.00  0.00    +0.000 C 
ATOM     21  O   UNL     1       1.765  10.671  18.408  0.00  0.00    +0.000 OA
BRANCH  20  27
ATOM     22  C   UNL     1      -2.152  12.147  21.622  0.00  0.00    +0.000 C 
ATOM     23  C   UNL     1      -1.061  11.116  21.618  0.00  0.00    +0.000 A 
ATOM     24  C   UNL     1      -0.716  10.417  22.776  0.00  0.00    +0.000 A 
ATOM     25  C   UNL     1       0.327   9.490  22.758  0.00  0.00    +0.000 A 
ATOM     26  C   UNL     1       1.055   9.279  21.587  0.00  0.00    +0.000 A 
ATOM     27  C   UNL     1       0.734   9.976  20.415  0.00  0.00    +0.000 A 
ATOM     28  C   UNL     1      -0.359  10.860  20.433  0.00  0.00    +0.000 A 
BRANCH  26  29
ATOM     29  O   UNL     1       2.108   8.410  21.616  0.00  0.00    +0.000 OA
ATOM     30  H   UNL     1       2.123   7.890  20.797  0.00  0.00    +0.000 HD
ENDBRANCH  26  29
ENDBRANCH  20  27
ENDBRANCH   1  20
TORSDOF 5
ENDMDL
