MODEL 1
REMARK VINA RESULT:      -4.0      0.000      0.000
REMARK  Name = 
REMARK  6 active torsions:
REMARK  status: ('A' for Active; 'I' for Inactive)
REMARK    1  A    between atoms: N_1  and  C_2
REMARK    2  A    between atoms: C_2  and  C_3
REMARK    3  A    between atoms: C_3  and  C_4
REMARK    4  A    between atoms: C_4  and  P_5
REMARK    5  A    between atoms: P_5  and  O_7
REMARK    6  A    between atoms: P_5  and  O_8
REMARK                            x       y       z     vdW  Elec       q    Type
REMARK                         _______ _______ _______ _____ _____    ______ ____
ROOT
ATOM      1  C   UNL     1       5.743   5.638  16.861  0.00  0.00    +0.000 C 
ENDROOT
BRANCH   1   2
ATOM      2  P   UNL     1       6.900   4.620  15.978  0.00  0.00    +0.000 P 
ATOM      3  O   UNL     1       7.563   5.230  14.788  0.00  0.00    +0.000 OA
BRANCH   2   4
ATOM      4  O   UNL     1       7.991   4.160  17.056  0.00  0.00    +0.000 OA
ATOM      5  H   UNL     1       8.549   3.437  16.722  0.00  0.00    +0.000 HD
ENDBRANCH   2   4
BRANCH   2   6
ATOM      6  O   UNL     1       6.205   3.230  15.609  0.00  0.00    +0.000 OA
ATOM      7  H   UNL     1       5.236   3.244  15.761  0.00  0.00    +0.000 HD
ENDBRANCH   2   6
ENDBRANCH   1   2
BRANCH   1   8
ATOM      8  C   UNL     1       4.632   4.958  17.659  0.00  0.00    +0.000 C 
BRANCH   8   9
ATOM      9  C   UNL     1       5.104   4.575  19.067  0.00  0.00    +0.000 C 
BRANCH   9  10
ATOM     10  N   UNL     1       5.158   3.131  19.252  0.00  0.00    +0.000 NA
ATOM     11  H   UNL     1       5.040   2.665  18.356  0.00  0.00    +0.000 HD
ATOM     12  H   UNL     1       4.377   2.827  19.837  0.00  0.00    +0.000 HD
ENDBRANCH   9  10
ENDBRANCH   8   9
ENDBRANCH   1   8
TORSDOF 6
ENDMDL
MODEL 2
REMARK VINA RESULT:      -4.0      0.883      1.884
REMARK  Name = 
REMARK  6 active torsions:
REMARK  status: ('A' for Active; 'I' for Inactive)
REMARK    1  A    between atoms: N_1  and  C_2
REMARK    2  A    between atoms: C_2  and  C_3
REMARK    3  A    between atoms: C_3  and  C_4
REMARK    4  A    between atoms: C_4  and  P_5
REMARK    5  A    between atoms: P_5  and  O_7
REMARK    6  A    between atoms: P_5  and  O_8
REMARK                            x       y       z     vdW  Elec       q    Type
REMARK                         _______ _______ _______ _____ _____    ______ ____
ROOT
ATOM      1  C   UNL     1       5.799   5.545  17.857  0.00  0.00    +0.000 C 
ENDROOT
BRANCH   1   2
ATOM      2  P   UNL     1       7.043   4.746  16.872  0.00  0.00    +0.000 P 
ATOM      3  O   UNL     1       8.200   4.150  17.601  0.00  0.00    +0.000 OA
BRANCH   2   4
ATOM      4  O   UNL     1       6.276   3.626  16.022  0.00  0.00    +0.000 OA
ATOM      5  H   UNL     1       5.433   3.371  16.434  0.00  0.00    +0.000 HD
ENDBRANCH   2   4
BRANCH   2   6
ATOM      6  O   UNL     1       7.529   5.746  15.725  0.00  0.00    +0.000 OA
ATOM      7  H   UNL     1       6.797   6.295  15.373  0.00  0.00    +0.000 HD
ENDBRANCH   2   6
ENDBRANCH   1   2
BRANCH   1   8
ATOM      8  C   UNL     1       5.462   4.958  19.226  0.00  0.00    +0.000 C 
BRANCH   8   9
ATOM      9  C   UNL     1       4.491   3.776  19.108  0.00  0.00    +0.000 C 
BRANCH   9  10
ATOM     10  N   UNL     1       5.045   2.555  19.681  0.00  0.00    +0.000 NA
ATOM     11  H   UNL     1       5.968   2.743  20.066  0.00  0.00    +0.000 HD
ATOM     12  H   UNL     1       5.177   1.857  18.948  0.00  0.00    +0.000 HD
ENDBRANCH   9  10
ENDBRANCH   8   9
ENDBRANCH   1   8
TORSDOF 6
ENDMDL
MODEL 3
REMARK VINA RESULT:      -4.0      2.235      2.447
REMARK  Name = 
REMARK  6 active torsions:
REMARK  status: ('A' for Active; 'I' for Inactive)
REMARK    1  A    between atoms: N_1  and  C_2
REMARK    2  A    between atoms: C_2  and  C_3
REMARK    3  A    between atoms: C_3  and  C_4
REMARK    4  A    between atoms: C_4  and  P_5
REMARK    5  A    between atoms: P_5  and  O_7
REMARK    6  A    between atoms: P_5  and  O_8
REMARK                            x       y       z     vdW  Elec       q    Type
REMARK                         _______ _______ _______ _____ _____    ______ ____
ROOT
ATOM      1  C   UNL     1       7.278   4.619  16.986  0.00  0.00    +0.000 C 
ENDROOT
BRANCH   1   2
ATOM      2  P   UNL     1       6.832   4.908  15.292  0.00  0.00    +0.000 P 
ATOM      3  O   UNL     1       7.913   5.393  14.383  0.00  0.00    +0.000 OA
BRANCH   2   4
ATOM      4  O   UNL     1       6.225   3.527  14.756  0.00  0.00    +0.000 OA
ATOM      5  H   UNL     1       6.106   3.532  13.791  0.00  0.00    +0.000 HD
ENDBRANCH   2   4
BRANCH   2   6
ATOM      6  O   UNL     1       5.554   5.865  15.239  0.00  0.00    +0.000 OA
ATOM      7  H   UNL     1       4.763   5.456  15.648  0.00  0.00    +0.000 HD
ENDBRANCH   2   6
ENDBRANCH   1   2
BRANCH   1   8
ATOM      8  C   UNL     1       7.434   5.821  17.917  0.00  0.00    +0.000 C 
BRANCH   8   9
ATOM      9  C   UNL     1       6.905   5.515  19.324  0.00  0.00    +0.000 C 
BRANCH   9  10
ATOM     10  N   UNL     1       7.977   5.452  20.309  0.00  0.00    +0.000 NA
ATOM     11  H   UNL     1       8.756   4.916  19.936  0.00  0.00    +0.000 HD
ATOM     12  H   UNL     1       7.656   4.951  21.139  0.00  0.00    +0.000 HD
ENDBRANCH   9  10
ENDBRANCH   8   9
ENDBRANCH   1   8
TORSDOF 6
ENDMDL
MODEL 4
REMARK VINA RESULT:      -4.0      0.863      1.819
REMARK  Name = 
REMARK  6 active torsions:
REMARK  status: ('A' for Active; 'I' for Inactive)
REMARK    1  A    between atoms: N_1  and  C_2
REMARK    2  A    between atoms: C_2  and  C_3
REMARK    3  A    between atoms: C_3  and  C_4
REMARK    4  A    between atoms: C_4  and  P_5
REMARK    5  A    between atoms: P_5  and  O_7
REMARK    6  A    between atoms: P_5  and  O_8
REMARK                            x       y       z     vdW  Elec       q    Type
REMARK                         _______ _______ _______ _____ _____    ______ ____
ROOT
ATOM      1  C   UNL     1       5.416   5.663  15.885  0.00  0.00    +0.000 C 
ENDROOT
BRANCH   1   2
ATOM      2  P   UNL     1       6.878   4.759  15.436  0.00  0.00    +0.000 P 
ATOM      3  O   UNL     1       7.817   4.404  16.540  0.00  0.00    +0.000 OA
BRANCH   2   4
ATOM      4  O   UNL     1       6.365   3.440  14.688  0.00  0.00    +0.000 OA
ATOM      5  H   UNL     1       6.905   3.232  13.906  0.00  0.00    +0.000 HD
ENDBRANCH   2   4
BRANCH   2   6
ATOM      6  O   UNL     1       7.630   5.528  14.255  0.00  0.00    +0.000 OA
ATOM      7  H   UNL     1       7.804   4.949  13.483  0.00  0.00    +0.000 HD
ENDBRANCH   2   6
ENDBRANCH   1   2
BRANCH   1   8
ATOM      8  C   UNL     1       4.981   5.670  17.350  0.00  0.00    +0.000 C 
BRANCH   8   9
ATOM      9  C   UNL     1       4.651   4.256  17.845  0.00  0.00    +0.000 C 
BRANCH   9  10
ATOM     10  N   UNL     1       5.641   3.766  18.796  0.00  0.00    +0.000 NA
ATOM     11  H   UNL     1       5.187   3.537  19.677  0.00  0.00    +0.000 HD
ATOM     12  H   UNL     1       6.316   4.504  19.005  0.00  0.00    +0.000 HD
ENDBRANCH   9  10
ENDBRANCH   8   9
ENDBRANCH   1   8
TORSDOF 6
ENDMDL
MODEL 5
REMARK VINA RESULT:      -3.9      0.361      1.536
REMARK  Name = 
REMARK  6 active torsions:
REMARK  status: ('A' for Active; 'I' for Inactive)
REMARK    1  A    between atoms: N_1  and  C_2
REMARK    2  A    between atoms: C_2  and  C_3
REMARK    3  A    between atoms: C_3  and  C_4
REMARK    4  A    between atoms: C_4  and  P_5
REMARK    5  A    between atoms: P_5  and  O_7
REMARK    6  A    between atoms: P_5  and  O_8
REMARK                            x       y       z     vdW  Elec       q    Type
REMARK                         _______ _______ _______ _____ _____    ______ ____
ROOT
ATOM      1  C   UNL     1       5.920   5.922  17.013  0.00  0.00    +0.000 C 
ENDROOT
BRANCH   1   2
ATOM      2  P   UNL     1       6.831   4.685  16.121  0.00  0.00    +0.000 P 
ATOM      3  O   UNL     1       6.045   3.558  15.539  0.00  0.00    +0.000 OA
BRANCH   2   4
ATOM      4  O   UNL     1       7.625   5.469  14.973  0.00  0.00    +0.000 OA
ATOM      5  H   UNL     1       7.116   6.224  14.629  0.00  0.00    +0.000 HD
ENDBRANCH   2   4
BRANCH   2   6
ATOM      6  O   UNL     1       8.028   4.152  17.035  0.00  0.00    +0.000 OA
ATOM      7  H   UNL     1       8.766   4.793  17.096  0.00  0.00    +0.000 HD
ENDBRANCH   2   6
ENDBRANCH   1   2
BRANCH   1   8
ATOM      8  C   UNL     1       4.813   5.471  17.965  0.00  0.00    +0.000 C 
BRANCH   8   9
ATOM      9  C   UNL     1       5.389   4.839  19.238  0.00  0.00    +0.000 C 
BRANCH   9  10
ATOM     10  N   UNL     1       5.250   3.388  19.240  0.00  0.00    +0.000 NA
ATOM     11  H   UNL     1       4.540   3.111  18.567  0.00  0.00    +0.000 HD
ATOM     12  H   UNL     1       4.919   3.073  20.153  0.00  0.00    +0.000 HD
ENDBRANCH   9  10
ENDBRANCH   8   9
ENDBRANCH   1   8
TORSDOF 6
ENDMDL
MODEL 6
REMARK VINA RESULT:      -3.9      4.335      4.534
REMARK  Name = 
REMARK  6 active torsions:
REMARK  status: ('A' for Active; 'I' for Inactive)
REMARK    1  A    between atoms: N_1  and  C_2
REMARK    2  A    between atoms: C_2  and  C_3
REMARK    3  A    between atoms: C_3  and  C_4
REMARK    4  A    between atoms: C_4  and  P_5
REMARK    5  A    between atoms: P_5  and  O_7
REMARK    6  A    between atoms: P_5  and  O_8
REMARK                            x       y       z     vdW  Elec       q    Type
REMARK                         _______ _______ _______ _____ _____    ______ ____
ROOT
ATOM      1  C   UNL     1       2.130   2.232  19.432  0.00  0.00    +0.000 C 
ENDROOT
BRANCH   1   2
ATOM      2  P   UNL     1       3.703   2.155  18.611  0.00  0.00    +0.000 P 
ATOM      3  O   UNL     1       3.893   3.051  17.432  0.00  0.00    +0.000 OA
BRANCH   2   4
ATOM      4  O   UNL     1       4.800   2.465  19.735  0.00  0.00    +0.000 OA
ATOM      5  H   UNL     1       4.394   2.633  20.603  0.00  0.00    +0.000 HD
ENDBRANCH   2   4
BRANCH   2   6
ATOM      6  O   UNL     1       4.033   0.635  18.247  0.00  0.00    +0.000 OA
ATOM      7  H   UNL     1       3.233   0.069  18.242  0.00  0.00    +0.000 HD
ENDBRANCH   2   6
ENDBRANCH   1   2
BRANCH   1   8
ATOM      8  C   UNL     1       1.625   3.589  19.921  0.00  0.00    +0.000 C 
BRANCH   8   9
ATOM      9  C   UNL     1       2.019   3.843  21.381  0.00  0.00    +0.000 C 
BRANCH   9  10
ATOM     10  N   UNL     1       2.551   2.646  22.020  0.00  0.00    +0.000 NA
ATOM     11  H   UNL     1       2.419   2.707  23.027  0.00  0.00    +0.000 HD
ATOM     12  H   UNL     1       3.559   2.590  21.866  0.00  0.00    +0.000 HD
ENDBRANCH   9  10
ENDBRANCH   8   9
ENDBRANCH   1   8
TORSDOF 6
ENDMDL
MODEL 7
REMARK VINA RESULT:      -3.9      5.856      6.301
REMARK  Name = 
REMARK  6 active torsions:
REMARK  status: ('A' for Active; 'I' for Inactive)
REMARK    1  A    between atoms: N_1  and  C_2
REMARK    2  A    between atoms: C_2  and  C_3
REMARK    3  A    between atoms: C_3  and  C_4
REMARK    4  A    between atoms: C_4  and  P_5
REMARK    5  A    between atoms: P_5  and  O_7
REMARK    6  A    between atoms: P_5  and  O_8
REMARK                            x       y       z     vdW  Elec       q    Type
REMARK                         _______ _______ _______ _____ _____    ______ ____
ROOT
ATOM      1  C   UNL     1       3.136   2.943  19.819  0.00  0.00    +0.000 C 
ENDROOT
BRANCH   1   2
ATOM      2  P   UNL     1       1.954   3.501  21.020  0.00  0.00    +0.000 P 
ATOM      3  O   UNL     1       1.819   2.687  22.264  0.00  0.00    +0.000 OA
BRANCH   2   4
ATOM      4  O   UNL     1       2.367   5.007  21.375  0.00  0.00    +0.000 OA
ATOM      5  H   UNL     1       2.897   5.056  22.190  0.00  0.00    +0.000 HD
ENDBRANCH   2   4
BRANCH   2   6
ATOM      6  O   UNL     1       0.539   3.714  20.308  0.00  0.00    +0.000 OA
ATOM      7  H   UNL     1       0.600   4.298  19.522  0.00  0.00    +0.000 HD
ENDBRANCH   2   6
ENDBRANCH   1   2
BRANCH   1   8
ATOM      8  C   UNL     1       2.631   2.183  18.593  0.00  0.00    +0.000 C 
BRANCH   8   9
ATOM      9  C   UNL     1       2.542   3.095  17.363  0.00  0.00    +0.000 C 
BRANCH   9  10
ATOM     10  N   UNL     1       1.345   3.926  17.384  0.00  0.00    +0.000 NA
ATOM     11  H   UNL     1       1.388   4.571  18.170  0.00  0.00    +0.000 HD
ATOM     12  H   UNL     1       0.521   3.343  17.536  0.00  0.00    +0.000 HD
ENDBRANCH   9  10
ENDBRANCH   8   9
ENDBRANCH   1   8
TORSDOF 6
ENDMDL
MODEL 8
REMARK VINA RESULT:      -3.9      1.223      1.555
REMARK  Name = 
REMARK  6 active torsions:
REMARK  status: ('A' for Active; 'I' for Inactive)
REMARK    1  A    between atoms: N_1  and  C_2
REMARK    2  A    between atoms: C_2  and  C_3
REMARK    3  A    between atoms: C_3  and  C_4
REMARK    4  A    between atoms: C_4  and  P_5
REMARK    5  A    between atoms: P_5  and  O_7
REMARK    6  A    between atoms: P_5  and  O_8
REMARK                            x       y       z     vdW  Elec       q    Type
REMARK                         _______ _______ _______ _____ _____    ______ ____
ROOT
ATOM      1  C   UNL     1       5.241   5.230  16.965  0.00  0.00    +0.000 C 
ENDROOT
BRANCH   1   2
ATOM      2  P   UNL     1       7.001   5.097  16.762  0.00  0.00    +0.000 P 
ATOM      3  O   UNL     1       7.493   4.643  15.428  0.00  0.00    +0.000 OA
BRANCH   2   4
ATOM      4  O   UNL     1       7.593   6.541  17.119  0.00  0.00    +0.000 OA
ATOM      5  H   UNL     1       8.302   6.804  16.507  0.00  0.00    +0.000 HD
ENDBRANCH   2   4
BRANCH   2   6
ATOM      6  O   UNL     1       7.601   4.201  17.941  0.00  0.00    +0.000 OA
ATOM      7  H   UNL     1       7.869   4.736  18.718  0.00  0.00    +0.000 HD
ENDBRANCH   2   6
ENDBRANCH   1   2
BRANCH   1   8
ATOM      8  C   UNL     1       4.432   3.953  17.186  0.00  0.00    +0.000 C 
BRANCH   8   9
ATOM      9  C   UNL     1       4.116   3.737  18.671  0.00  0.00    +0.000 C 
BRANCH   9  10
ATOM     10  N   UNL     1       5.152   2.963  19.344  0.00  0.00    +0.000 NA
ATOM     11  H   UNL     1       4.801   2.619  20.234  0.00  0.00    +0.000 HD
ATOM     12  H   UNL     1       5.947   3.566  19.563  0.00  0.00    +0.000 HD
ENDBRANCH   9  10
ENDBRANCH   8   9
ENDBRANCH   1   8
TORSDOF 6
ENDMDL
MODEL 9
REMARK VINA RESULT:      -3.9      1.717      1.808
REMARK  Name = 
REMARK  6 active torsions:
REMARK  status: ('A' for Active; 'I' for Inactive)
REMARK    1  A    between atoms: N_1  and  C_2
REMARK    2  A    between atoms: C_2  and  C_3
REMARK    3  A    between atoms: C_3  and  C_4
REMARK    4  A    between atoms: C_4  and  P_5
REMARK    5  A    between atoms: P_5  and  O_7
REMARK    6  A    between atoms: P_5  and  O_8
REMARK                            x       y       z     vdW  Elec       q    Type
REMARK                         _______ _______ _______ _____ _____    ______ ____
ROOT
ATOM      1  C   UNL     1       5.688   5.248  17.504  0.00  0.00    +0.000 C 
ENDROOT
BRANCH   1   2
ATOM      2  P   UNL     1       6.859   4.629  16.321  0.00  0.00    +0.000 P 
ATOM      3  O   UNL     1       7.353   5.592  15.293  0.00  0.00    +0.000 OA
BRANCH   2   4
ATOM      4  O   UNL     1       8.080   4.046  17.177  0.00  0.00    +0.000 OA
ATOM      5  H   UNL     1       7.876   4.017  18.128  0.00  0.00    +0.000 HD
ENDBRANCH   2   4
BRANCH   2   6
ATOM      6  O   UNL     1       6.276   3.304  15.646  0.00  0.00    +0.000 OA
ATOM      7  H   UNL     1       6.559   3.204  14.713  0.00  0.00    +0.000 HD
ENDBRANCH   2   6
ENDBRANCH   1   2
BRANCH   1   8
ATOM      8  C   UNL     1       6.025   5.146  18.990  0.00  0.00    +0.000 C 
BRANCH   8   9
ATOM      9  C   UNL     1       7.272   5.967  19.342  0.00  0.00    +0.000 C 
BRANCH   9  10
ATOM     10  N   UNL     1       8.136   5.272  20.288  0.00  0.00    +0.000 NA
ATOM     11  H   UNL     1       8.290   4.317  19.975  0.00  0.00    +0.000 HD
ATOM     12  H   UNL     1       7.671   5.204  21.195  0.00  0.00    +0.000 HD
ENDBRANCH   9  10
ENDBRANCH   8   9
ENDBRANCH   1   8
TORSDOF 6
ENDMDL
