MODEL 1
REMARK VINA RESULT:      -7.0      0.000      0.000
REMARK  Name = 
REMARK  6 active torsions:
REMARK  status: ('A' for Active; 'I' for Inactive)
REMARK    1  A    between atoms: C_1  and  C_2
REMARK    2  A    between atoms: C_5  and  O_6
REMARK    3  A    between atoms: O_6  and  C_7
REMARK    4  A    between atoms: C_7  and  C_8
REMARK    5  A    between atoms: C_18  and  C_19
REMARK    6  A    between atoms: C_19  and  C_20
REMARK                            x       y       z     vdW  Elec       q    Type
REMARK                         _______ _______ _______ _____ _____    ______ ____
ROOT
ATOM      1  C   UNL     1       2.225   7.609  19.337  0.00  0.00    +0.000 C 
ATOM      2  C   UNL     1       2.549   6.234  18.888  0.00  0.00    +0.000 A 
ATOM      3  N   UNL     1       3.317   6.047  17.776  0.00  0.00    +0.000 NA
ATOM      4  C   UNL     1       3.469   4.744  17.644  0.00  0.00    +0.000 A 
ATOM      5  C   UNL     1       4.228   3.959  16.710  0.00  0.00    +0.000 A 
ATOM      6  C   UNL     1       4.164   2.616  16.773  0.00  0.00    +0.000 A 
ATOM      7  C   UNL     1       3.383   1.932  17.789  0.00  0.00    +0.000 A 
ATOM      8  C   UNL     1       2.714   2.661  18.697  0.00  0.00    +0.000 A 
ATOM      9  N   UNL     1       2.761   4.056  18.630  0.00  0.00    +0.000 N 
ATOM     10  C   UNL     1       2.186   5.021  19.446  0.00  0.00    +0.000 A 
ENDROOT
BRANCH   5  11
ATOM     11  O   UNL     1       5.037   4.566  15.763  0.00  0.00    +0.000 OA
BRANCH  11  12
ATOM     12  C   UNL     1       6.443   4.339  15.910  0.00  0.00    +0.000 C 
BRANCH  12  13
ATOM     13  C   UNL     1       6.990   5.199  17.013  0.00  0.00    +0.000 A 
ATOM     14  C   UNL     1       7.088   6.585  16.871  0.00  0.00    +0.000 A 
ATOM     15  C   UNL     1       7.693   7.337  17.873  0.00  0.00    +0.000 A 
ATOM     16  C   UNL     1       8.183   6.671  18.984  0.00  0.00    +0.000 A 
ATOM     17  N   UNL     1       8.101   5.335  19.160  0.00  0.00    +0.000 NA
ATOM     18  C   UNL     1       7.508   4.630  18.170  0.00  0.00    +0.000 A 
ENDBRANCH  12  13
ENDBRANCH  11  12
ENDBRANCH   5  11
BRANCH  10  19
ATOM     19  C   UNL     1       1.354   4.741  20.651  0.00  0.00    +0.000 C 
BRANCH  19  20
ATOM     20  C   UNL     1       1.951   3.710  21.512  0.00  0.00    +0.000 C 
ATOM     21  N   UNL     1       2.445   2.888  22.166  0.00  0.00    +0.000 NA
ENDBRANCH  19  20
ENDBRANCH  10  19
TORSDOF 5
ENDMDL
MODEL 2
REMARK VINA RESULT:      -7.0      3.698      6.193
REMARK  Name = 
REMARK  6 active torsions:
REMARK  status: ('A' for Active; 'I' for Inactive)
REMARK    1  A    between atoms: C_1  and  C_2
REMARK    2  A    between atoms: C_5  and  O_6
REMARK    3  A    between atoms: O_6  and  C_7
REMARK    4  A    between atoms: C_7  and  C_8
REMARK    5  A    between atoms: C_18  and  C_19
REMARK    6  A    between atoms: C_19  and  C_20
REMARK                            x       y       z     vdW  Elec       q    Type
REMARK                         _______ _______ _______ _____ _____    ______ ____
ROOT
ATOM      1  C   UNL     1      -0.138   9.468  23.304  0.00  0.00    +0.000 C 
ATOM      2  C   UNL     1       0.410   9.333  21.934  0.00  0.00    +0.000 A 
ATOM      3  N   UNL     1       1.187   8.257  21.617  0.00  0.00    +0.000 NA
ATOM      4  C   UNL     1       1.493   8.383  20.340  0.00  0.00    +0.000 A 
ATOM      5  C   UNL     1       2.220   7.529  19.442  0.00  0.00    +0.000 A 
ATOM      6  C   UNL     1       2.432   7.933  18.176  0.00  0.00    +0.000 A 
ATOM      7  C   UNL     1       1.909   9.192  17.674  0.00  0.00    +0.000 A 
ATOM      8  C   UNL     1       1.185   9.970  18.495  0.00  0.00    +0.000 A 
ATOM      9  N   UNL     1       0.971   9.566  19.816  0.00  0.00    +0.000 N 
ATOM     10  C   UNL     1       0.254  10.167  20.841  0.00  0.00    +0.000 A 
ENDROOT
BRANCH   5  11
ATOM     11  O   UNL     1       2.684   6.292  19.857  0.00  0.00    +0.000 OA
BRANCH  11  12
ATOM     12  C   UNL     1       3.828   5.791  19.157  0.00  0.00    +0.000 C 
BRANCH  12  13
ATOM     13  C   UNL     1       3.631   4.340  18.822  0.00  0.00    +0.000 A 
ATOM     14  C   UNL     1       2.737   3.941  17.825  0.00  0.00    +0.000 A 
ATOM     15  C   UNL     1       2.506   2.586  17.613  0.00  0.00    +0.000 A 
ATOM     16  C   UNL     1       3.179   1.676  18.410  0.00  0.00    +0.000 A 
ATOM     17  N   UNL     1       4.054   2.022  19.378  0.00  0.00    +0.000 NA
ATOM     18  C   UNL     1       4.259   3.346  19.562  0.00  0.00    +0.000 A 
ENDBRANCH  12  13
ENDBRANCH  11  12
ENDBRANCH   5  11
BRANCH  10  19
ATOM     19  C   UNL     1      -0.498  11.449  20.725  0.00  0.00    +0.000 C 
BRANCH  19  20
ATOM     20  C   UNL     1       0.268  12.593  21.240  0.00  0.00    +0.000 C 
ATOM     21  N   UNL     1       0.901  13.474  21.650  0.00  0.00    +0.000 NA
ENDBRANCH  19  20
ENDBRANCH  10  19
TORSDOF 5
ENDMDL
MODEL 3
REMARK VINA RESULT:      -7.0      0.694      1.073
REMARK  Name = 
REMARK  6 active torsions:
REMARK  status: ('A' for Active; 'I' for Inactive)
REMARK    1  A    between atoms: C_1  and  C_2
REMARK    2  A    between atoms: C_5  and  O_6
REMARK    3  A    between atoms: O_6  and  C_7
REMARK    4  A    between atoms: C_7  and  C_8
REMARK    5  A    between atoms: C_18  and  C_19
REMARK    6  A    between atoms: C_19  and  C_20
REMARK                            x       y       z     vdW  Elec       q    Type
REMARK                         _______ _______ _______ _____ _____    ______ ____
ROOT
ATOM      1  C   UNL     1       2.238   7.630  19.188  0.00  0.00    +0.000 C 
ATOM      2  C   UNL     1       2.555   6.235  18.805  0.00  0.00    +0.000 A 
ATOM      3  N   UNL     1       3.327   5.991  17.706  0.00  0.00    +0.000 NA
ATOM      4  C   UNL     1       3.472   4.682  17.636  0.00  0.00    +0.000 A 
ATOM      5  C   UNL     1       4.229   3.850  16.743  0.00  0.00    +0.000 A 
ATOM      6  C   UNL     1       4.157   2.512  16.869  0.00  0.00    +0.000 A 
ATOM      7  C   UNL     1       3.368   1.881  17.912  0.00  0.00    +0.000 A 
ATOM      8  C   UNL     1       2.700   2.655  18.782  0.00  0.00    +0.000 A 
ATOM      9  N   UNL     1       2.756   4.046  18.650  0.00  0.00    +0.000 N 
ATOM     10  C   UNL     1       2.183   5.051  19.417  0.00  0.00    +0.000 A 
ENDROOT
BRANCH   5  11
ATOM     11  O   UNL     1       5.045   4.407  15.772  0.00  0.00    +0.000 OA
BRANCH  11  12
ATOM     12  C   UNL     1       6.447   4.150  15.916  0.00  0.00    +0.000 C 
BRANCH  12  13
ATOM     13  C   UNL     1       7.064   5.167  16.831  0.00  0.00    +0.000 A 
ATOM     14  C   UNL     1       7.538   4.811  18.097  0.00  0.00    +0.000 A 
ATOM     15  C   UNL     1       8.011   5.798  18.956  0.00  0.00    +0.000 A 
ATOM     16  C   UNL     1       7.989   7.111  18.517  0.00  0.00    +0.000 A 
ATOM     17  N   UNL     1       7.546   7.493  17.301  0.00  0.00    +0.000 NA
ATOM     18  C   UNL     1       7.093   6.513  16.487  0.00  0.00    +0.000 A 
ENDBRANCH  12  13
ENDBRANCH  11  12
ENDBRANCH   5  11
BRANCH  10  19
ATOM     19  C   UNL     1       1.345   4.833  20.631  0.00  0.00    +0.000 C 
BRANCH  19  20
ATOM     20  C   UNL     1       1.906   3.803  21.517  0.00  0.00    +0.000 C 
ATOM     21  N   UNL     1       2.345   3.012  22.244  0.00  0.00    +0.000 NA
ENDBRANCH  19  20
ENDBRANCH  10  19
TORSDOF 5
ENDMDL
MODEL 4
REMARK VINA RESULT:      -6.8      2.388      3.903
REMARK  Name = 
REMARK  6 active torsions:
REMARK  status: ('A' for Active; 'I' for Inactive)
REMARK    1  A    between atoms: C_1  and  C_2
REMARK    2  A    between atoms: C_5  and  O_6
REMARK    3  A    between atoms: O_6  and  C_7
REMARK    4  A    between atoms: C_7  and  C_8
REMARK    5  A    between atoms: C_18  and  C_19
REMARK    6  A    between atoms: C_19  and  C_20
REMARK                            x       y       z     vdW  Elec       q    Type
REMARK                         _______ _______ _______ _____ _____    ______ ____
ROOT
ATOM      1  C   UNL     1       4.428   2.018  20.551  0.00  0.00    +0.000 C 
ATOM      2  C   UNL     1       4.242   3.297  19.826  0.00  0.00    +0.000 A 
ATOM      3  N   UNL     1       5.307   3.891  19.212  0.00  0.00    +0.000 NA
ATOM      4  C   UNL     1       4.840   4.975  18.625  0.00  0.00    +0.000 A 
ATOM      5  C   UNL     1       5.470   5.951  17.780  0.00  0.00    +0.000 A 
ATOM      6  C   UNL     1       4.757   7.009  17.350  0.00  0.00    +0.000 A 
ATOM      7  C   UNL     1       3.352   7.171  17.678  0.00  0.00    +0.000 A 
ATOM      8  C   UNL     1       2.744   6.234  18.424  0.00  0.00    +0.000 A 
ATOM      9  N   UNL     1       3.480   5.140  18.889  0.00  0.00    +0.000 N 
ATOM     10  C   UNL     1       3.091   4.044  19.646  0.00  0.00    +0.000 A 
ENDROOT
BRANCH   5  11
ATOM     11  O   UNL     1       6.791   5.807  17.389  0.00  0.00    +0.000 OA
BRANCH  11  12
ATOM     12  C   UNL     1       7.139   4.533  16.834  0.00  0.00    +0.000 C 
BRANCH  12  13
ATOM     13  C   UNL     1       6.940   4.550  15.346  0.00  0.00    +0.000 A 
ATOM     14  C   UNL     1       5.987   3.732  14.732  0.00  0.00    +0.000 A 
ATOM     15  C   UNL     1       5.902   3.700  13.344  0.00  0.00    +0.000 A 
ATOM     16  C   UNL     1       6.777   4.489  12.617  0.00  0.00    +0.000 A 
ATOM     17  N   UNL     1       7.705   5.296  13.173  0.00  0.00    +0.000 NA
ATOM     18  C   UNL     1       7.766   5.307  14.525  0.00  0.00    +0.000 A 
ENDBRANCH  12  13
ENDBRANCH  11  12
ENDBRANCH   5  11
BRANCH  10  19
ATOM     19  C   UNL     1       1.707   3.789  20.138  0.00  0.00    +0.000 C 
BRANCH  19  20
ATOM     20  C   UNL     1       0.958   2.888  19.250  0.00  0.00    +0.000 C 
ATOM     21  N   UNL     1       0.359   2.204  18.529  0.00  0.00    +0.000 NA
ENDBRANCH  19  20
ENDBRANCH  10  19
TORSDOF 5
ENDMDL
MODEL 5
REMARK VINA RESULT:      -6.8      3.678      6.815
REMARK  Name = 
REMARK  6 active torsions:
REMARK  status: ('A' for Active; 'I' for Inactive)
REMARK    1  A    between atoms: C_1  and  C_2
REMARK    2  A    between atoms: C_5  and  O_6
REMARK    3  A    between atoms: O_6  and  C_7
REMARK    4  A    between atoms: C_7  and  C_8
REMARK    5  A    between atoms: C_18  and  C_19
REMARK    6  A    between atoms: C_19  and  C_20
REMARK                            x       y       z     vdW  Elec       q    Type
REMARK                         _______ _______ _______ _____ _____    ______ ____
ROOT
ATOM      1  C   UNL     1       1.643   2.673  21.650  0.00  0.00    +0.000 C 
ATOM      2  C   UNL     1       2.058   3.764  20.736  0.00  0.00    +0.000 A 
ATOM      3  N   UNL     1       1.537   5.016  20.893  0.00  0.00    +0.000 NA
ATOM      4  C   UNL     1       2.109   5.774  19.978  0.00  0.00    +0.000 A 
ATOM      5  C   UNL     1       2.013   7.181  19.706  0.00  0.00    +0.000 A 
ATOM      6  C   UNL     1       2.680   7.696  18.656  0.00  0.00    +0.000 A 
ATOM      7  C   UNL     1       3.534   6.877  17.813  0.00  0.00    +0.000 A 
ATOM      8  C   UNL     1       3.668   5.571  18.095  0.00  0.00    +0.000 A 
ATOM      9  N   UNL     1       2.967   5.024  19.174  0.00  0.00    +0.000 N 
ATOM     10  C   UNL     1       2.950   3.731  19.678  0.00  0.00    +0.000 A 
ENDROOT
BRANCH   5  11
ATOM     11  O   UNL     1       1.262   8.013  20.520  0.00  0.00    +0.000 OA
BRANCH  11  12
ATOM     12  C   UNL     1       1.080   9.351  20.042  0.00  0.00    +0.000 C 
BRANCH  12  13
ATOM     13  C   UNL     1       0.252  10.137  21.017  0.00  0.00    +0.000 A 
ATOM     14  C   UNL     1       0.021   9.670  22.314  0.00  0.00    +0.000 A 
ATOM     15  C   UNL     1      -0.833  10.375  23.155  0.00  0.00    +0.000 A 
ATOM     16  C   UNL     1      -1.429  11.525  22.667  0.00  0.00    +0.000 A 
ATOM     17  N   UNL     1      -1.226  12.011  21.424  0.00  0.00    +0.000 NA
ATOM     18  C   UNL     1      -0.391  11.305  20.628  0.00  0.00    +0.000 A 
ENDBRANCH  12  13
ENDBRANCH  11  12
ENDBRANCH   5  11
BRANCH  10  19
ATOM     19  C   UNL     1       3.743   2.589  19.141  0.00  0.00    +0.000 C 
BRANCH  19  20
ATOM     20  C   UNL     1       4.617   1.991  20.161  0.00  0.00    +0.000 C 
ATOM     21  N   UNL     1       5.279   1.502  20.978  0.00  0.00    +0.000 NA
ENDBRANCH  19  20
ENDBRANCH  10  19
TORSDOF 5
ENDMDL
MODEL 6
REMARK VINA RESULT:      -6.8      2.076      3.024
REMARK  Name = 
REMARK  6 active torsions:
REMARK  status: ('A' for Active; 'I' for Inactive)
REMARK    1  A    between atoms: C_1  and  C_2
REMARK    2  A    between atoms: C_5  and  O_6
REMARK    3  A    between atoms: O_6  and  C_7
REMARK    4  A    between atoms: C_7  and  C_8
REMARK    5  A    between atoms: C_18  and  C_19
REMARK    6  A    between atoms: C_19  and  C_20
REMARK                            x       y       z     vdW  Elec       q    Type
REMARK                         _______ _______ _______ _____ _____    ______ ____
ROOT
ATOM      1  C   UNL     1       2.011   7.293  20.205  0.00  0.00    +0.000 C 
ATOM      2  C   UNL     1       2.417   6.070  19.474  0.00  0.00    +0.000 A 
ATOM      3  N   UNL     1       3.359   6.150  18.488  0.00  0.00    +0.000 NA
ATOM      4  C   UNL     1       3.544   4.920  18.050  0.00  0.00    +0.000 A 
ATOM      5  C   UNL     1       4.453   4.377  17.079  0.00  0.00    +0.000 A 
ATOM      6  C   UNL     1       4.393   3.066  16.782  0.00  0.00    +0.000 A 
ATOM      7  C   UNL     1       3.464   2.169  17.447  0.00  0.00    +0.000 A 
ATOM      8  C   UNL     1       2.648   2.662  18.394  0.00  0.00    +0.000 A 
ATOM      9  N   UNL     1       2.692   4.026  18.699  0.00  0.00    +0.000 N 
ATOM     10  C   UNL     1       1.981   4.767  19.633  0.00  0.00    +0.000 A 
ENDROOT
BRANCH   5  11
ATOM     11  O   UNL     1       5.399   5.180  16.464  0.00  0.00    +0.000 OA
BRANCH  11  12
ATOM     12  C   UNL     1       6.618   4.530  16.090  0.00  0.00    +0.000 C 
BRANCH  12  13
ATOM     13  C   UNL     1       6.776   4.552  14.597  0.00  0.00    +0.000 A 
ATOM     14  C   UNL     1       6.083   3.654  13.781  0.00  0.00    +0.000 A 
ATOM     15  C   UNL     1       6.331   3.639  12.412  0.00  0.00    +0.000 A 
ATOM     16  C   UNL     1       7.270   4.523  11.908  0.00  0.00    +0.000 A 
ATOM     17  N   UNL     1       7.954   5.409  12.662  0.00  0.00    +0.000 NA
ATOM     18  C   UNL     1       7.692   5.402  13.990  0.00  0.00    +0.000 A 
ENDBRANCH  12  13
ENDBRANCH  11  12
ENDBRANCH   5  11
BRANCH  10  19
ATOM     19  C   UNL     1       0.967   4.214  20.575  0.00  0.00    +0.000 C 
BRANCH  19  20
ATOM     20  C   UNL     1       1.547   3.236  21.507  0.00  0.00    +0.000 C 
ATOM     21  N   UNL     1       1.976   2.446  22.240  0.00  0.00    +0.000 NA
ENDBRANCH  19  20
ENDBRANCH  10  19
TORSDOF 5
ENDMDL
MODEL 7
REMARK VINA RESULT:      -6.7      2.296      3.996
REMARK  Name = 
REMARK  6 active torsions:
REMARK  status: ('A' for Active; 'I' for Inactive)
REMARK    1  A    between atoms: C_1  and  C_2
REMARK    2  A    between atoms: C_5  and  O_6
REMARK    3  A    between atoms: O_6  and  C_7
REMARK    4  A    between atoms: C_7  and  C_8
REMARK    5  A    between atoms: C_18  and  C_19
REMARK    6  A    between atoms: C_19  and  C_20
REMARK                            x       y       z     vdW  Elec       q    Type
REMARK                         _______ _______ _______ _____ _____    ______ ____
ROOT
ATOM      1  C   UNL     1       3.575   1.482  18.222  0.00  0.00    +0.000 C 
ATOM      2  C   UNL     1       3.444   2.958  18.196  0.00  0.00    +0.000 A 
ATOM      3  N   UNL     1       4.357   3.709  17.513  0.00  0.00    +0.000 NA
ATOM      4  C   UNL     1       3.970   4.964  17.632  0.00  0.00    +0.000 A 
ATOM      5  C   UNL     1       4.490   6.181  17.074  0.00  0.00    +0.000 A 
ATOM      6  C   UNL     1       3.920   7.355  17.408  0.00  0.00    +0.000 A 
ATOM      7  C   UNL     1       2.763   7.424  18.284  0.00  0.00    +0.000 A 
ATOM      8  C   UNL     1       2.241   6.284  18.766  0.00  0.00    +0.000 A 
ATOM      9  N   UNL     1       2.836   5.062  18.438  0.00  0.00    +0.000 N 
ATOM     10  C   UNL     1       2.484   3.764  18.782  0.00  0.00    +0.000 A 
ENDROOT
BRANCH   5  11
ATOM     11  O   UNL     1       5.552   6.160  16.186  0.00  0.00    +0.000 OA
BRANCH  11  12
ATOM     12  C   UNL     1       6.186   4.889  16.006  0.00  0.00    +0.000 C 
BRANCH  12  13
ATOM     13  C   UNL     1       6.418   4.633  14.545  0.00  0.00    +0.000 A 
ATOM     14  C   UNL     1       5.649   3.705  13.839  0.00  0.00    +0.000 A 
ATOM     15  C   UNL     1       5.960   3.421  12.513  0.00  0.00    +0.000 A 
ATOM     16  C   UNL     1       7.036   4.077  11.940  0.00  0.00    +0.000 A 
ATOM     17  N   UNL     1       7.798   4.985  12.586  0.00  0.00    +0.000 NA
ATOM     18  C   UNL     1       7.473   5.241  13.873  0.00  0.00    +0.000 A 
ENDBRANCH  12  13
ENDBRANCH  11  12
ENDBRANCH   5  11
BRANCH  10  19
ATOM     19  C   UNL     1       1.311   3.386  19.620  0.00  0.00    +0.000 C 
BRANCH  19  20
ATOM     20  C   UNL     1       1.680   3.156  21.024  0.00  0.00    +0.000 C 
ATOM     21  N   UNL     1       2.005   2.985  22.125  0.00  0.00    +0.000 NA
ENDBRANCH  19  20
ENDBRANCH  10  19
TORSDOF 5
ENDMDL
MODEL 8
REMARK VINA RESULT:      -6.7      3.663      5.667
REMARK  Name = 
REMARK  6 active torsions:
REMARK  status: ('A' for Active; 'I' for Inactive)
REMARK    1  A    between atoms: C_1  and  C_2
REMARK    2  A    between atoms: C_5  and  O_6
REMARK    3  A    between atoms: O_6  and  C_7
REMARK    4  A    between atoms: C_7  and  C_8
REMARK    5  A    between atoms: C_18  and  C_19
REMARK    6  A    between atoms: C_19  and  C_20
REMARK                            x       y       z     vdW  Elec       q    Type
REMARK                         _______ _______ _______ _____ _____    ______ ____
ROOT
ATOM      1  C   UNL     1      -0.228   9.396  23.207  0.00  0.00    +0.000 C 
ATOM      2  C   UNL     1       0.366   9.291  21.854  0.00  0.00    +0.000 A 
ATOM      3  N   UNL     1       1.174   8.234  21.547  0.00  0.00    +0.000 NA
ATOM      4  C   UNL     1       1.519   8.384  20.283  0.00  0.00    +0.000 A 
ATOM      5  C   UNL     1       2.291   7.557  19.398  0.00  0.00    +0.000 A 
ATOM      6  C   UNL     1       2.536   7.983  18.145  0.00  0.00    +0.000 A 
ATOM      7  C   UNL     1       2.004   9.237  17.643  0.00  0.00    +0.000 A 
ATOM      8  C   UNL     1       1.237   9.989  18.450  0.00  0.00    +0.000 A 
ATOM      9  N   UNL     1       0.990   9.563  19.758  0.00  0.00    +0.000 N 
ATOM     10  C   UNL     1       0.228  10.136  20.767  0.00  0.00    +0.000 A 
ENDROOT
BRANCH   5  11
ATOM     11  O   UNL     1       2.767   6.324  19.812  0.00  0.00    +0.000 OA
BRANCH  11  12
ATOM     12  C   UNL     1       2.771   5.294  18.817  0.00  0.00    +0.000 C 
BRANCH  12  13
ATOM     13  C   UNL     1       4.172   5.051  18.335  0.00  0.00    +0.000 A 
ATOM     14  C   UNL     1       4.428   4.662  17.018  0.00  0.00    +0.000 A 
ATOM     15  C   UNL     1       5.728   4.347  16.635  0.00  0.00    +0.000 A 
ATOM     16  C   UNL     1       6.728   4.431  17.589  0.00  0.00    +0.000 A 
ATOM     17  N   UNL     1       6.521   4.809  18.869  0.00  0.00    +0.000 NA
ATOM     18  C   UNL     1       5.248   5.109  19.212  0.00  0.00    +0.000 A 
ENDBRANCH  12  13
ENDBRANCH  11  12
ENDBRANCH   5  11
BRANCH  10  19
ATOM     19  C   UNL     1      -0.547  11.403  20.643  0.00  0.00    +0.000 C 
BRANCH  19  20
ATOM     20  C   UNL     1       0.168  12.551  21.222  0.00  0.00    +0.000 C 
ATOM     21  N   UNL     1       0.731  13.440  21.710  0.00  0.00    +0.000 NA
ENDBRANCH  19  20
ENDBRANCH  10  19
TORSDOF 5
ENDMDL
MODEL 9
REMARK VINA RESULT:      -6.7      3.205      6.106
REMARK  Name = 
REMARK  6 active torsions:
REMARK  status: ('A' for Active; 'I' for Inactive)
REMARK    1  A    between atoms: C_1  and  C_2
REMARK    2  A    between atoms: C_5  and  O_6
REMARK    3  A    between atoms: O_6  and  C_7
REMARK    4  A    between atoms: C_7  and  C_8
REMARK    5  A    between atoms: C_18  and  C_19
REMARK    6  A    between atoms: C_19  and  C_20
REMARK                            x       y       z     vdW  Elec       q    Type
REMARK                         _______ _______ _______ _____ _____    ______ ____
ROOT
ATOM      1  C   UNL     1       1.035   3.222  20.561  0.00  0.00    +0.000 C 
ATOM      2  C   UNL     1       1.893   4.041  19.674  0.00  0.00    +0.000 A 
ATOM      3  N   UNL     1       1.660   5.380  19.551  0.00  0.00    +0.000 NA
ATOM      4  C   UNL     1       2.588   5.846  18.739  0.00  0.00    +0.000 A 
ATOM      5  C   UNL     1       2.892   7.180  18.299  0.00  0.00    +0.000 A 
ATOM      6  C   UNL     1       3.884   7.370  17.409  0.00  0.00    +0.000 A 
ATOM      7  C   UNL     1       4.691   6.269  16.913  0.00  0.00    +0.000 A 
ATOM      8  C   UNL     1       4.445   5.027  17.361  0.00  0.00    +0.000 A 
ATOM      9  N   UNL     1       3.407   4.817  18.273  0.00  0.00    +0.000 N 
ATOM     10  C   UNL     1       2.970   3.656  18.895  0.00  0.00    +0.000 A 
ENDROOT
BRANCH   5  11
ATOM     11  O   UNL     1       2.191   8.268  18.792  0.00  0.00    +0.000 OA
BRANCH  11  12
ATOM     12  C   UNL     1       1.569   9.104  17.810  0.00  0.00    +0.000 C 
BRANCH  12  13
ATOM     13  C   UNL     1       0.452   9.887  18.435  0.00  0.00    +0.000 A 
ATOM     14  C   UNL     1      -0.790  10.008  17.806  0.00  0.00    +0.000 A 
ATOM     15  C   UNL     1      -1.767  10.825  18.366  0.00  0.00    +0.000 A 
ATOM     16  C   UNL     1      -1.464  11.496  19.539  0.00  0.00    +0.000 A 
ATOM     17  N   UNL     1      -0.280  11.400  20.179  0.00  0.00    +0.000 NA
ATOM     18  C   UNL     1       0.651  10.599  19.612  0.00  0.00    +0.000 A 
ENDBRANCH  12  13
ENDBRANCH  11  12
ENDBRANCH   5  11
BRANCH  10  19
ATOM     19  C   UNL     1       3.574   2.305  18.712  0.00  0.00    +0.000 C 
BRANCH  19  20
ATOM     20  C   UNL     1       4.471   1.942  19.818  0.00  0.00    +0.000 C 
ATOM     21  N   UNL     1       5.201   1.641  20.668  0.00  0.00    +0.000 NA
ENDBRANCH  19  20
ENDBRANCH  10  19
TORSDOF 5
ENDMDL
