MODEL 1
REMARK VINA RESULT:      -7.6      0.000      0.000
REMARK  Name = 
REMARK  9 active torsions:
REMARK  status: ('A' for Active; 'I' for Inactive)
REMARK    1  A    between atoms: C_1  and  C_2
REMARK    2  A    between atoms: C_4  and  C_5
REMARK    3  A    between atoms: C_5  and  S_6
REMARK    4  A    between atoms: S_6  and  C_7
REMARK    5  A    between atoms: N_13  and  C_14
REMARK    6  A    between atoms: C_14  and  C_15
REMARK    7  A    between atoms: N_23  and  C_24
REMARK    8  A    between atoms: N_25  and  C_26
REMARK    9  A    between atoms: C_26  and  C_27
REMARK                            x       y       z     vdW  Elec       q    Type
REMARK                         _______ _______ _______ _____ _____    ______ ____
ROOT
ATOM      1  C   UNL     1       2.003   6.358  20.593  0.00  0.00    +0.000 A 
ATOM      2  N   UNL     1       1.414   7.178  21.431  0.00  0.00    +0.000 NA
ATOM      3  C   UNL     1       1.204   8.302  20.718  0.00  0.00    +0.000 A 
ATOM      4  C   UNL     1       1.716   8.248  19.461  0.00  0.00    +0.000 A 
ATOM      5  C   UNL     1       1.566   9.352  18.554  0.00  0.00    +0.000 A 
ATOM      6  O   UNL     1       1.950   9.321  17.388  0.00  0.00    +0.000 OA
ATOM      7  N   UNL     1       0.880  10.456  19.111  0.00  0.00    +0.000 N 
ATOM      8  C   UNL     1       0.141  10.392  20.306  0.00  0.00    +0.000 A 
ATOM      9  O   UNL     1      -0.760  11.193  20.570  0.00  0.00    +0.000 OA
ATOM     10  N   UNL     1       0.448   9.350  21.179  0.00  0.00    +0.000 N 
ATOM     11  C   UNL     1      -0.142   9.287  22.505  0.00  0.00    +0.000 C 
ATOM     12  N   UNL     1       2.268   6.966  19.368  0.00  0.00    +0.000 N 
ENDROOT
BRANCH   1  13
ATOM     13  S   UNL     1       2.267   4.690  21.036  0.00  0.00    +0.000 S 
BRANCH  13  14
ATOM     14  C   UNL     1       0.871   3.905  20.114  0.00  0.00    +0.000 C 
BRANCH  14  18
ATOM     15  C   UNL     1       3.292   2.106  19.505  0.00  0.00    +0.000 C 
ATOM     16  C   UNL     1       2.364   2.677  18.478  0.00  0.00    +0.000 C 
ATOM     17 CL   UNL     1       2.746   2.275  16.835  0.00  0.00    +0.000 Cl
ATOM     18  C   UNL     1       1.296   3.453  18.742  0.00  0.00    +0.000 C 
ENDBRANCH  14  18
ENDBRANCH  13  14
ENDBRANCH   1  13
BRANCH   7  19
ATOM     19  C   UNL     1       0.664  11.640  18.276  0.00  0.00    +0.000 C 
BRANCH  19  20
ATOM     20  C   UNL     1       1.497  12.873  18.626  0.00  0.00    +0.000 A 
ATOM     21  C   UNL     1       2.816  12.992  18.167  0.00  0.00    +0.000 A 
ATOM     22  C   UNL     1       3.535  14.190  18.309  0.00  0.00    +0.000 A 
ATOM     23  C   UNL     1       2.932  15.291  18.917  0.00  0.00    +0.000 A 
ATOM     24  C   UNL     1       1.638  15.182  19.420  0.00  0.00    +0.000 A 
ATOM     25  C   UNL     1       0.931  13.974  19.288  0.00  0.00    +0.000 A 
ENDBRANCH  19  20
ENDBRANCH   7  19
BRANCH  12  26
ATOM     26  C   UNL     1       2.786   6.342  18.156  0.00  0.00    +0.000 C 
BRANCH  26  27
ATOM     27  C   UNL     1       4.295   6.203  18.086  0.00  0.00    +0.000 A 
ATOM     28  C   UNL     1       5.058   6.989  17.209  0.00  0.00    +0.000 A 
ATOM     29  C   UNL     1       6.460   6.992  17.279  0.00  0.00    +0.000 A 
ATOM     30  C   UNL     1       7.117   6.212  18.227  0.00  0.00    +0.000 A 
ATOM     31  C   UNL     1       6.378   5.396  19.075  0.00  0.00    +0.000 A 
ATOM     32  C   UNL     1       4.980   5.382  18.996  0.00  0.00    +0.000 A 
ENDBRANCH  26  27
ENDBRANCH  12  26
TORSDOF 7
ENDMDL
MODEL 2
REMARK VINA RESULT:      -7.3      4.451      7.121
REMARK  Name = 
REMARK  9 active torsions:
REMARK  status: ('A' for Active; 'I' for Inactive)
REMARK    1  A    between atoms: C_1  and  C_2
REMARK    2  A    between atoms: C_4  and  C_5
REMARK    3  A    between atoms: C_5  and  S_6
REMARK    4  A    between atoms: S_6  and  C_7
REMARK    5  A    between atoms: N_13  and  C_14
REMARK    6  A    between atoms: C_14  and  C_15
REMARK    7  A    between atoms: N_23  and  C_24
REMARK    8  A    between atoms: N_25  and  C_26
REMARK    9  A    between atoms: C_26  and  C_27
REMARK                            x       y       z     vdW  Elec       q    Type
REMARK                         _______ _______ _______ _____ _____    ______ ____
ROOT
ATOM      1  C   UNL     1       0.057  10.090  17.982  0.00  0.00    +0.000 A 
ATOM      2  N   UNL     1      -0.787   9.690  17.062  0.00  0.00    +0.000 NA
ATOM      3  C   UNL     1      -1.935  10.338  17.345  0.00  0.00    +0.000 A 
ATOM      4  C   UNL     1      -1.866  11.087  18.477  0.00  0.00    +0.000 A 
ATOM      5  C   UNL     1      -2.992  11.862  18.920  0.00  0.00    +0.000 A 
ATOM      6  O   UNL     1      -2.955  12.606  19.895  0.00  0.00    +0.000 OA
ATOM      7  N   UNL     1      -4.131  11.734  18.090  0.00  0.00    +0.000 N 
ATOM      8  C   UNL     1      -4.098  11.170  16.802  0.00  0.00    +0.000 A 
ATOM      9  O   UNL     1      -4.954  11.421  15.949  0.00  0.00    +0.000 OA
ATOM     10  N   UNL     1      -3.024  10.332  16.511  0.00  0.00    +0.000 N 
ATOM     11  C   UNL     1      -2.980   9.577  15.271  0.00  0.00    +0.000 C 
ATOM     12  N   UNL     1      -0.552  10.917  18.924  0.00  0.00    +0.000 N 
ENDROOT
BRANCH   1  13
ATOM     13  S   UNL     1       1.746   9.662  17.871  0.00  0.00    +0.000 S 
BRANCH  13  14
ATOM     14  C   UNL     1       1.610   7.831  18.085  0.00  0.00    +0.000 C 
BRANCH  14  18
ATOM     15  C   UNL     1       2.266   5.486  19.967  0.00  0.00    +0.000 C 
ATOM     16  C   UNL     1       3.250   6.171  19.070  0.00  0.00    +0.000 C 
ATOM     17 CL   UNL     1       4.873   5.565  19.158  0.00  0.00    +0.000 Cl
ATOM     18  C   UNL     1       2.963   7.188  18.236  0.00  0.00    +0.000 C 
ENDBRANCH  14  18
ENDBRANCH  13  14
ENDBRANCH   1  13
BRANCH   7  19
ATOM     19  C   UNL     1      -5.341  12.482  18.442  0.00  0.00    +0.000 C 
BRANCH  19  20
ATOM     20  C   UNL     1      -6.354  11.751  19.321  0.00  0.00    +0.000 A 
ATOM     21  C   UNL     1      -6.649  10.401  19.092  0.00  0.00    +0.000 A 
ATOM     22  C   UNL     1      -7.425   9.657  19.997  0.00  0.00    +0.000 A 
ATOM     23  C   UNL     1      -7.917  10.267  21.151  0.00  0.00    +0.000 A 
ATOM     24  C   UNL     1      -7.673  11.620  21.377  0.00  0.00    +0.000 A 
ATOM     25  C   UNL     1      -6.909  12.361  20.458  0.00  0.00    +0.000 A 
ENDBRANCH  19  20
ENDBRANCH   7  19
BRANCH  12  26
ATOM     26  C   UNL     1       0.086  11.656  20.008  0.00  0.00    +0.000 C 
BRANCH  26  27
ATOM     27  C   UNL     1       0.137  10.939  21.344  0.00  0.00    +0.000 A 
ATOM     28  C   UNL     1      -0.864  11.130  22.310  0.00  0.00    +0.000 A 
ATOM     29  C   UNL     1      -0.915  10.330  23.462  0.00  0.00    +0.000 A 
ATOM     30  C   UNL     1       0.030   9.328  23.663  0.00  0.00    +0.000 A 
ATOM     31  C   UNL     1       1.053   9.153  22.738  0.00  0.00    +0.000 A 
ATOM     32  C   UNL     1       1.112   9.961  21.595  0.00  0.00    +0.000 A 
ENDBRANCH  26  27
ENDBRANCH  12  26
TORSDOF 7
ENDMDL
MODEL 3
REMARK VINA RESULT:      -7.3      4.240      7.282
REMARK  Name = 
REMARK  9 active torsions:
REMARK  status: ('A' for Active; 'I' for Inactive)
REMARK    1  A    between atoms: C_1  and  C_2
REMARK    2  A    between atoms: C_4  and  C_5
REMARK    3  A    between atoms: C_5  and  S_6
REMARK    4  A    between atoms: S_6  and  C_7
REMARK    5  A    between atoms: N_13  and  C_14
REMARK    6  A    between atoms: C_14  and  C_15
REMARK    7  A    between atoms: N_23  and  C_24
REMARK    8  A    between atoms: N_25  and  C_26
REMARK    9  A    between atoms: C_26  and  C_27
REMARK                            x       y       z     vdW  Elec       q    Type
REMARK                         _______ _______ _______ _____ _____    ______ ____
ROOT
ATOM      1  C   UNL     1       0.196  10.044  18.324  0.00  0.00    +0.000 A 
ATOM      2  N   UNL     1      -0.646   9.747  17.363  0.00  0.00    +0.000 NA
ATOM      3  C   UNL     1      -1.778  10.403  17.686  0.00  0.00    +0.000 A 
ATOM      4  C   UNL     1      -1.705  11.053  18.876  0.00  0.00    +0.000 A 
ATOM      5  C   UNL     1      -2.814  11.823  19.368  0.00  0.00    +0.000 A 
ATOM      6  O   UNL     1      -2.769  12.483  20.402  0.00  0.00    +0.000 OA
ATOM      7  N   UNL     1      -3.944  11.798  18.518  0.00  0.00    +0.000 N 
ATOM      8  C   UNL     1      -3.909  11.341  17.187  0.00  0.00    +0.000 A 
ATOM      9  O   UNL     1      -4.745  11.687  16.347  0.00  0.00    +0.000 OA
ATOM     10  N   UNL     1      -2.855  10.498  16.841  0.00  0.00    +0.000 N 
ATOM     11  C   UNL     1      -2.815   9.847  15.544  0.00  0.00    +0.000 C 
ATOM     12  N   UNL     1      -0.402  10.808  19.323  0.00  0.00    +0.000 N 
ENDROOT
BRANCH   1  13
ATOM     13  S   UNL     1       1.873   9.576  18.198  0.00  0.00    +0.000 S 
BRANCH  13  14
ATOM     14  C   UNL     1       1.857   8.090  19.297  0.00  0.00    +0.000 C 
BRANCH  14  18
ATOM     15  C   UNL     1       2.009   5.262  20.501  0.00  0.00    +0.000 C 
ATOM     16  C   UNL     1       2.453   5.635  19.121  0.00  0.00    +0.000 C 
ATOM     17 CL   UNL     1       3.113   4.334  18.183  0.00  0.00    +0.000 Cl
ATOM     18  C   UNL     1       2.375   6.868  18.586  0.00  0.00    +0.000 C 
ENDBRANCH  14  18
ENDBRANCH  13  14
ENDBRANCH   1  13
BRANCH   7  19
ATOM     19  C   UNL     1      -5.137  12.551  18.915  0.00  0.00    +0.000 C 
BRANCH  19  20
ATOM     20  C   UNL     1      -6.217  11.762  19.654  0.00  0.00    +0.000 A 
ATOM     21  C   UNL     1      -6.555  10.466  19.244  0.00  0.00    +0.000 A 
ATOM     22  C   UNL     1      -7.400   9.651  20.016  0.00  0.00    +0.000 A 
ATOM     23  C   UNL     1      -7.917  10.132  21.218  0.00  0.00    +0.000 A 
ATOM     24  C   UNL     1      -7.628  11.433  21.624  0.00  0.00    +0.000 A 
ATOM     25  C   UNL     1      -6.795  12.248  20.838  0.00  0.00    +0.000 A 
ENDBRANCH  19  20
ENDBRANCH   7  19
BRANCH  12  26
ATOM     26  C   UNL     1       0.241  11.435  20.472  0.00  0.00    +0.000 C 
BRANCH  26  27
ATOM     27  C   UNL     1       0.706  12.864  20.261  0.00  0.00    +0.000 A 
ATOM     28  C   UNL     1       1.252  13.277  19.035  0.00  0.00    +0.000 A 
ATOM     29  C   UNL     1       1.508  14.633  18.781  0.00  0.00    +0.000 A 
ATOM     30  C   UNL     1       1.219  15.594  19.745  0.00  0.00    +0.000 A 
ATOM     31  C   UNL     1       0.718  15.199  20.980  0.00  0.00    +0.000 A 
ATOM     32  C   UNL     1       0.476  13.844  21.239  0.00  0.00    +0.000 A 
ENDBRANCH  26  27
ENDBRANCH  12  26
TORSDOF 7
ENDMDL
MODEL 4
REMARK VINA RESULT:      -7.2      3.942      6.890
REMARK  Name = 
REMARK  9 active torsions:
REMARK  status: ('A' for Active; 'I' for Inactive)
REMARK    1  A    between atoms: C_1  and  C_2
REMARK    2  A    between atoms: C_4  and  C_5
REMARK    3  A    between atoms: C_5  and  S_6
REMARK    4  A    between atoms: S_6  and  C_7
REMARK    5  A    between atoms: N_13  and  C_14
REMARK    6  A    between atoms: C_14  and  C_15
REMARK    7  A    between atoms: N_23  and  C_24
REMARK    8  A    between atoms: N_25  and  C_26
REMARK    9  A    between atoms: C_26  and  C_27
REMARK                            x       y       z     vdW  Elec       q    Type
REMARK                         _______ _______ _______ _____ _____    ______ ____
ROOT
ATOM      1  C   UNL     1       0.295  10.268  18.647  0.00  0.00    +0.000 A 
ATOM      2  N   UNL     1      -0.850   9.930  18.104  0.00  0.00    +0.000 NA
ATOM      3  C   UNL     1      -1.749  10.773  18.649  0.00  0.00    +0.000 A 
ATOM      4  C   UNL     1      -1.217  11.594  19.591  0.00  0.00    +0.000 A 
ATOM      5  C   UNL     1      -2.028  12.572  20.262  0.00  0.00    +0.000 A 
ATOM      6  O   UNL     1      -1.577  13.381  21.068  0.00  0.00    +0.000 OA
ATOM      7  N   UNL     1      -3.384  12.556  19.862  0.00  0.00    +0.000 N 
ATOM      8  C   UNL     1      -3.852  11.887  18.716  0.00  0.00    +0.000 A 
ATOM      9  O   UNL     1      -4.906  12.196  18.154  0.00  0.00    +0.000 OA
ATOM     10  N   UNL     1      -3.046  10.868  18.213  0.00  0.00    +0.000 N 
ATOM     11  C   UNL     1      -3.510  10.013  17.134  0.00  0.00    +0.000 C 
ATOM     12  N   UNL     1       0.140  11.258  19.615  0.00  0.00    +0.000 N 
ENDROOT
BRANCH   1  13
ATOM     13  S   UNL     1       1.785   9.570  18.063  0.00  0.00    +0.000 S 
BRANCH  13  14
ATOM     14  C   UNL     1       1.970   8.188  19.276  0.00  0.00    +0.000 C 
BRANCH  14  18
ATOM     15  C   UNL     1       1.920   5.358  20.482  0.00  0.00    +0.000 C 
ATOM     16  C   UNL     1       2.536   5.722  19.167  0.00  0.00    +0.000 C 
ATOM     17 CL   UNL     1       3.282   4.409  18.314  0.00  0.00    +0.000 Cl
ATOM     18  C   UNL     1       2.548   6.957  18.630  0.00  0.00    +0.000 C 
ENDBRANCH  14  18
ENDBRANCH  13  14
ENDBRANCH   1  13
BRANCH   7  19
ATOM     19  C   UNL     1      -4.308  13.513  20.478  0.00  0.00    +0.000 C 
BRANCH  19  20
ATOM     20  C   UNL     1      -5.128  12.996  21.659  0.00  0.00    +0.000 A 
ATOM     21  C   UNL     1      -4.610  13.049  22.959  0.00  0.00    +0.000 A 
ATOM     22  C   UNL     1      -5.410  12.761  24.078  0.00  0.00    +0.000 A 
ATOM     23  C   UNL     1      -6.749  12.415  23.900  0.00  0.00    +0.000 A 
ATOM     24  C   UNL     1      -7.273  12.314  22.614  0.00  0.00    +0.000 A 
ATOM     25  C   UNL     1      -6.462  12.587  21.499  0.00  0.00    +0.000 A 
ENDBRANCH  19  20
ENDBRANCH   7  19
BRANCH  12  26
ATOM     26  C   UNL     1       1.188  11.975  20.333  0.00  0.00    +0.000 C 
BRANCH  26  27
ATOM     27  C   UNL     1       1.652  13.268  19.690  0.00  0.00    +0.000 A 
ATOM     28  C   UNL     1       1.503  14.501  20.345  0.00  0.00    +0.000 A 
ATOM     29  C   UNL     1       2.098  15.665  19.833  0.00  0.00    +0.000 A 
ATOM     30  C   UNL     1       2.850  15.612  18.664  0.00  0.00    +0.000 A 
ATOM     31  C   UNL     1       2.972  14.409  17.979  0.00  0.00    +0.000 A 
ATOM     32  C   UNL     1       2.367  13.249  18.482  0.00  0.00    +0.000 A 
ENDBRANCH  26  27
ENDBRANCH  12  26
TORSDOF 7
ENDMDL
MODEL 5
REMARK VINA RESULT:      -7.1      0.565      1.119
REMARK  Name = 
REMARK  9 active torsions:
REMARK  status: ('A' for Active; 'I' for Inactive)
REMARK    1  A    between atoms: C_1  and  C_2
REMARK    2  A    between atoms: C_4  and  C_5
REMARK    3  A    between atoms: C_5  and  S_6
REMARK    4  A    between atoms: S_6  and  C_7
REMARK    5  A    between atoms: N_13  and  C_14
REMARK    6  A    between atoms: C_14  and  C_15
REMARK    7  A    between atoms: N_23  and  C_24
REMARK    8  A    between atoms: N_25  and  C_26
REMARK    9  A    between atoms: C_26  and  C_27
REMARK                            x       y       z     vdW  Elec       q    Type
REMARK                         _______ _______ _______ _____ _____    ______ ____
ROOT
ATOM      1  C   UNL     1       1.948   6.498  20.650  0.00  0.00    +0.000 A 
ATOM      2  N   UNL     1       1.365   7.345  21.464  0.00  0.00    +0.000 NA
ATOM      3  C   UNL     1       1.156   8.448  20.717  0.00  0.00    +0.000 A 
ATOM      4  C   UNL     1       1.664   8.354  19.461  0.00  0.00    +0.000 A 
ATOM      5  C   UNL     1       1.516   9.429  18.520  0.00  0.00    +0.000 A 
ATOM      6  O   UNL     1       1.897   9.362  17.356  0.00  0.00    +0.000 OA
ATOM      7  N   UNL     1       0.834  10.552  19.046  0.00  0.00    +0.000 N 
ATOM      8  C   UNL     1       0.098  10.527  20.244  0.00  0.00    +0.000 A 
ATOM      9  O   UNL     1      -0.800  11.339  20.485  0.00  0.00    +0.000 OA
ATOM     10  N   UNL     1       0.404   9.512  21.147  0.00  0.00    +0.000 N 
ATOM     11  C   UNL     1      -0.183   9.492  22.476  0.00  0.00    +0.000 C 
ATOM     12  N   UNL     1       2.213   7.068  19.406  0.00  0.00    +0.000 N 
ENDROOT
BRANCH   1  13
ATOM     13  S   UNL     1       2.209   4.844  21.143  0.00  0.00    +0.000 S 
BRANCH  13  14
ATOM     14  C   UNL     1       1.604   3.976  19.628  0.00  0.00    +0.000 C 
BRANCH  14  18
ATOM     15  C   UNL     1       2.816   3.246  16.896  0.00  0.00    +0.000 C 
ATOM     16  C   UNL     1       2.929   2.416  18.137  0.00  0.00    +0.000 C 
ATOM     17 CL   UNL     1       3.804   0.930  17.953  0.00  0.00    +0.000 Cl
ATOM     18  C   UNL     1       2.411   2.739  19.337  0.00  0.00    +0.000 C 
ENDBRANCH  14  18
ENDBRANCH  13  14
ENDBRANCH   1  13
BRANCH   7  19
ATOM     19  C   UNL     1       0.619  11.711  18.175  0.00  0.00    +0.000 C 
BRANCH  19  20
ATOM     20  C   UNL     1       1.481  12.940  18.464  0.00  0.00    +0.000 A 
ATOM     21  C   UNL     1       0.989  13.979  19.265  0.00  0.00    +0.000 A 
ATOM     22  C   UNL     1       1.822  15.022  19.703  0.00  0.00    +0.000 A 
ATOM     23  C   UNL     1       3.168  15.033  19.338  0.00  0.00    +0.000 A 
ATOM     24  C   UNL     1       3.668  14.034  18.506  0.00  0.00    +0.000 A 
ATOM     25  C   UNL     1       2.824  13.002  18.059  0.00  0.00    +0.000 A 
ENDBRANCH  19  20
ENDBRANCH   7  19
BRANCH  12  26
ATOM     26  C   UNL     1       2.725   6.406  18.212  0.00  0.00    +0.000 C 
BRANCH  26  27
ATOM     27  C   UNL     1       4.235   6.268  18.140  0.00  0.00    +0.000 A 
ATOM     28  C   UNL     1       4.990   7.020  17.227  0.00  0.00    +0.000 A 
ATOM     29  C   UNL     1       6.392   7.030  17.288  0.00  0.00    +0.000 A 
ATOM     30  C   UNL     1       7.057   6.291  18.262  0.00  0.00    +0.000 A 
ATOM     31  C   UNL     1       6.326   5.506  19.147  0.00  0.00    +0.000 A 
ATOM     32  C   UNL     1       4.927   5.485  19.077  0.00  0.00    +0.000 A 
ENDBRANCH  26  27
ENDBRANCH  12  26
TORSDOF 7
ENDMDL
MODEL 6
REMARK VINA RESULT:      -6.9      2.387      4.735
REMARK  Name = 
REMARK  9 active torsions:
REMARK  status: ('A' for Active; 'I' for Inactive)
REMARK    1  A    between atoms: C_1  and  C_2
REMARK    2  A    between atoms: C_4  and  C_5
REMARK    3  A    between atoms: C_5  and  S_6
REMARK    4  A    between atoms: S_6  and  C_7
REMARK    5  A    between atoms: N_13  and  C_14
REMARK    6  A    between atoms: C_14  and  C_15
REMARK    7  A    between atoms: N_23  and  C_24
REMARK    8  A    between atoms: N_25  and  C_26
REMARK    9  A    between atoms: C_26  and  C_27
REMARK                            x       y       z     vdW  Elec       q    Type
REMARK                         _______ _______ _______ _____ _____    ______ ____
ROOT
ATOM      1  C   UNL     1       2.553   7.065  18.774  0.00  0.00    +0.000 A 
ATOM      2  N   UNL     1       2.419   8.214  18.156  0.00  0.00    +0.000 NA
ATOM      3  C   UNL     1       1.820   9.019  19.056  0.00  0.00    +0.000 A 
ATOM      4  C   UNL     1       1.496   8.387  20.214  0.00  0.00    +0.000 A 
ATOM      5  C   UNL     1       0.868   9.097  21.294  0.00  0.00    +0.000 A 
ATOM      6  O   UNL     1       0.620   8.585  22.381  0.00  0.00    +0.000 OA
ATOM      7  N   UNL     1       0.618  10.459  21.007  0.00  0.00    +0.000 N 
ATOM      8  C   UNL     1       1.190  11.145  19.920  0.00  0.00    +0.000 A 
ATOM      9  O   UNL     1       1.305  12.374  19.901  0.00  0.00    +0.000 OA
ATOM     10  N   UNL     1       1.660  10.368  18.864  0.00  0.00    +0.000 N 
ATOM     11  C   UNL     1       2.120  10.981  17.631  0.00  0.00    +0.000 C 
ATOM     12  N   UNL     1       1.960   7.079  20.035  0.00  0.00    +0.000 N 
ENDROOT
BRANCH   1  13
ATOM     13  S   UNL     1       3.484   5.779  18.047  0.00  0.00    +0.000 S 
BRANCH  13  14
ATOM     14  C   UNL     1       4.746   6.788  17.149  0.00  0.00    +0.000 C 
BRANCH  14  18
ATOM     15  C   UNL     1       7.126   4.842  16.998  0.00  0.00    +0.000 C 
ATOM     16  C   UNL     1       6.276   5.254  15.836  0.00  0.00    +0.000 C 
ATOM     17 CL   UNL     1       6.729   4.565  14.311  0.00  0.00    +0.000 Cl
ATOM     18  C   UNL     1       5.225   6.094  15.902  0.00  0.00    +0.000 C 
ENDBRANCH  14  18
ENDBRANCH  13  14
ENDBRANCH   1  13
BRANCH   7  19
ATOM     19  C   UNL     1      -0.017  11.286  22.037  0.00  0.00    +0.000 C 
BRANCH  19  20
ATOM     20  C   UNL     1      -1.460  11.709  21.767  0.00  0.00    +0.000 A 
ATOM     21  C   UNL     1      -2.326  11.995  22.830  0.00  0.00    +0.000 A 
ATOM     22  C   UNL     1      -3.591  12.568  22.611  0.00  0.00    +0.000 A 
ATOM     23  C   UNL     1      -4.001  12.863  21.311  0.00  0.00    +0.000 A 
ATOM     24  C   UNL     1      -3.174  12.547  20.236  0.00  0.00    +0.000 A 
ATOM     25  C   UNL     1      -1.917  11.959  20.463  0.00  0.00    +0.000 A 
ENDBRANCH  19  20
ENDBRANCH   7  19
BRANCH  12  26
ATOM     26  C   UNL     1       2.017   6.043  21.060  0.00  0.00    +0.000 C 
BRANCH  26  27
ATOM     27  C   UNL     1       1.872   4.619  20.557  0.00  0.00    +0.000 A 
ATOM     28  C   UNL     1       0.686   4.181  19.946  0.00  0.00    +0.000 A 
ATOM     29  C   UNL     1       0.620   2.927  19.318  0.00  0.00    +0.000 A 
ATOM     30  C   UNL     1       1.737   2.097  19.289  0.00  0.00    +0.000 A 
ATOM     31  C   UNL     1       2.907   2.498  19.925  0.00  0.00    +0.000 A 
ATOM     32  C   UNL     1       2.969   3.742  20.565  0.00  0.00    +0.000 A 
ENDBRANCH  26  27
ENDBRANCH  12  26
TORSDOF 7
ENDMDL
MODEL 7
REMARK VINA RESULT:      -6.8      3.708      6.476
REMARK  Name = 
REMARK  9 active torsions:
REMARK  status: ('A' for Active; 'I' for Inactive)
REMARK    1  A    between atoms: C_1  and  C_2
REMARK    2  A    between atoms: C_4  and  C_5
REMARK    3  A    between atoms: C_5  and  S_6
REMARK    4  A    between atoms: S_6  and  C_7
REMARK    5  A    between atoms: N_13  and  C_14
REMARK    6  A    between atoms: C_14  and  C_15
REMARK    7  A    between atoms: N_23  and  C_24
REMARK    8  A    between atoms: N_25  and  C_26
REMARK    9  A    between atoms: C_26  and  C_27
REMARK                            x       y       z     vdW  Elec       q    Type
REMARK                         _______ _______ _______ _____ _____    ______ ____
ROOT
ATOM      1  C   UNL     1       1.056  10.819  18.760  0.00  0.00    +0.000 A 
ATOM      2  N   UNL     1       1.862  11.785  19.132  0.00  0.00    +0.000 NA
ATOM      3  C   UNL     1       1.120  12.551  19.956  0.00  0.00    +0.000 A 
ATOM      4  C   UNL     1      -0.170  12.139  20.060  0.00  0.00    +0.000 A 
ATOM      5  C   UNL     1      -1.100  12.826  20.913  0.00  0.00    +0.000 A 
ATOM      6  O   UNL     1      -2.254  12.450  21.092  0.00  0.00    +0.000 OA
ATOM      7  N   UNL     1      -0.542  13.944  21.576  0.00  0.00    +0.000 N 
ATOM      8  C   UNL     1       0.841  14.193  21.657  0.00  0.00    +0.000 A 
ATOM      9  O   UNL     1       1.335  14.898  22.541  0.00  0.00    +0.000 OA
ATOM     10  N   UNL     1       1.646  13.573  20.704  0.00  0.00    +0.000 N 
ATOM     11  C   UNL     1       3.060  13.889  20.602  0.00  0.00    +0.000 C 
ATOM     12  N   UNL     1      -0.234  10.997  19.254  0.00  0.00    +0.000 N 
ENDROOT
BRANCH   1  13
ATOM     13  S   UNL     1       1.672   9.464  17.847  0.00  0.00    +0.000 S 
BRANCH  13  14
ATOM     14  C   UNL     1       1.951   8.269  19.229  0.00  0.00    +0.000 C 
BRANCH  14  18
ATOM     15  C   UNL     1       1.784   5.514  20.592  0.00  0.00    +0.000 C 
ATOM     16  C   UNL     1       2.574   5.817  19.356  0.00  0.00    +0.000 C 
ATOM     17 CL   UNL     1       3.459   4.477  18.701  0.00  0.00    +0.000 Cl
ATOM     18  C   UNL     1       2.638   7.017  18.750  0.00  0.00    +0.000 C 
ENDBRANCH  14  18
ENDBRANCH  13  14
ENDBRANCH   1  13
BRANCH   7  19
ATOM     19  C   UNL     1      -1.396  14.723  22.477  0.00  0.00    +0.000 C 
BRANCH  19  20
ATOM     20  C   UNL     1      -2.367  15.697  21.811  0.00  0.00    +0.000 A 
ATOM     21  C   UNL     1      -1.917  16.583  20.823  0.00  0.00    +0.000 A 
ATOM     22  C   UNL     1      -2.817  17.349  20.063  0.00  0.00    +0.000 A 
ATOM     23  C   UNL     1      -4.188  17.233  20.290  0.00  0.00    +0.000 A 
ATOM     24  C   UNL     1      -4.655  16.391  21.296  0.00  0.00    +0.000 A 
ATOM     25  C   UNL     1      -3.747  15.640  22.063  0.00  0.00    +0.000 A 
ENDBRANCH  19  20
ENDBRANCH   7  19
BRANCH  12  26
ATOM     26  C   UNL     1      -1.359  10.074  19.165  0.00  0.00    +0.000 C 
BRANCH  26  27
ATOM     27  C   UNL     1      -2.295  10.295  17.992  0.00  0.00    +0.000 A 
ATOM     28  C   UNL     1      -3.413  11.138  18.102  0.00  0.00    +0.000 A 
ATOM     29  C   UNL     1      -4.166  11.487  16.971  0.00  0.00    +0.000 A 
ATOM     30  C   UNL     1      -3.812  11.002  15.715  0.00  0.00    +0.000 A 
ATOM     31  C   UNL     1      -2.734  10.133  15.594  0.00  0.00    +0.000 A 
ATOM     32  C   UNL     1      -1.990   9.773  16.725  0.00  0.00    +0.000 A 
ENDBRANCH  26  27
ENDBRANCH  12  26
TORSDOF 7
ENDMDL
MODEL 8
REMARK VINA RESULT:      -6.8      3.753      7.006
REMARK  Name = 
REMARK  9 active torsions:
REMARK  status: ('A' for Active; 'I' for Inactive)
REMARK    1  A    between atoms: C_1  and  C_2
REMARK    2  A    between atoms: C_4  and  C_5
REMARK    3  A    between atoms: C_5  and  S_6
REMARK    4  A    between atoms: S_6  and  C_7
REMARK    5  A    between atoms: N_13  and  C_14
REMARK    6  A    between atoms: C_14  and  C_15
REMARK    7  A    between atoms: N_23  and  C_24
REMARK    8  A    between atoms: N_25  and  C_26
REMARK    9  A    between atoms: C_26  and  C_27
REMARK                            x       y       z     vdW  Elec       q    Type
REMARK                         _______ _______ _______ _____ _____    ______ ____
ROOT
ATOM      1  C   UNL     1       0.813  10.921  18.774  0.00  0.00    +0.000 A 
ATOM      2  N   UNL     1      -0.342  10.406  18.425  0.00  0.00    +0.000 NA
ATOM      3  C   UNL     1      -1.262  11.212  18.990  0.00  0.00    +0.000 A 
ATOM      4  C   UNL     1      -0.721  12.190  19.762  0.00  0.00    +0.000 A 
ATOM      5  C   UNL     1      -1.554  13.154  20.426  0.00  0.00    +0.000 A 
ATOM      6  O   UNL     1      -1.108  14.095  21.076  0.00  0.00    +0.000 OA
ATOM      7  N   UNL     1      -2.937  12.952  20.211  0.00  0.00    +0.000 N 
ATOM      8  C   UNL     1      -3.456  12.107  19.214  0.00  0.00    +0.000 A 
ATOM      9  O   UNL     1      -4.599  12.238  18.765  0.00  0.00    +0.000 OA
ATOM     10  N   UNL     1      -2.604  11.122  18.720  0.00  0.00    +0.000 N 
ATOM     11  C   UNL     1      -3.089  10.101  17.808  0.00  0.00    +0.000 C 
ATOM     12  N   UNL     1       0.660  11.999  19.644  0.00  0.00    +0.000 N 
ENDROOT
BRANCH   1  13
ATOM     13  S   UNL     1       2.294  10.314  18.077  0.00  0.00    +0.000 S 
BRANCH  13  14
ATOM     14  C   UNL     1       1.753   8.596  17.663  0.00  0.00    +0.000 C 
BRANCH  14  18
ATOM     15  C   UNL     1       4.228   6.853  17.112  0.00  0.00    +0.000 C 
ATOM     16  C   UNL     1       3.411   6.815  18.366  0.00  0.00    +0.000 C 
ATOM     17 CL   UNL     1       3.936   5.666  19.554  0.00  0.00    +0.000 Cl
ATOM     18  C   UNL     1       2.336   7.586  18.616  0.00  0.00    +0.000 C 
ENDBRANCH  14  18
ENDBRANCH  13  14
ENDBRANCH   1  13
BRANCH   7  19
ATOM     19  C   UNL     1      -3.886  13.877  20.837  0.00  0.00    +0.000 C 
BRANCH  19  20
ATOM     20  C   UNL     1      -4.433  13.461  22.202  0.00  0.00    +0.000 A 
ATOM     21  C   UNL     1      -5.812  13.318  22.400  0.00  0.00    +0.000 A 
ATOM     22  C   UNL     1      -6.328  12.754  23.580  0.00  0.00    +0.000 A 
ATOM     23  C   UNL     1      -5.456  12.324  24.580  0.00  0.00    +0.000 A 
ATOM     24  C   UNL     1      -4.083  12.497  24.422  0.00  0.00    +0.000 A 
ATOM     25  C   UNL     1      -3.576  13.077  23.246  0.00  0.00    +0.000 A 
ENDBRANCH  19  20
ENDBRANCH   7  19
BRANCH  12  26
ATOM     26  C   UNL     1       1.695  12.900  20.139  0.00  0.00    +0.000 C 
BRANCH  26  27
ATOM     27  C   UNL     1       2.087  14.023  19.196  0.00  0.00    +0.000 A 
ATOM     28  C   UNL     1       1.386  15.239  19.182  0.00  0.00    +0.000 A 
ATOM     29  C   UNL     1       1.862  16.336  18.448  0.00  0.00    +0.000 A 
ATOM     30  C   UNL     1       3.045  16.235  17.723  0.00  0.00    +0.000 A 
ATOM     31  C   UNL     1       3.730  15.026  17.692  0.00  0.00    +0.000 A 
ATOM     32  C   UNL     1       3.248  13.926  18.412  0.00  0.00    +0.000 A 
ENDBRANCH  26  27
ENDBRANCH  12  26
TORSDOF 7
ENDMDL
MODEL 9
REMARK VINA RESULT:      -6.7      4.383      7.458
REMARK  Name = 
REMARK  9 active torsions:
REMARK  status: ('A' for Active; 'I' for Inactive)
REMARK    1  A    between atoms: C_1  and  C_2
REMARK    2  A    between atoms: C_4  and  C_5
REMARK    3  A    between atoms: C_5  and  S_6
REMARK    4  A    between atoms: S_6  and  C_7
REMARK    5  A    between atoms: N_13  and  C_14
REMARK    6  A    between atoms: C_14  and  C_15
REMARK    7  A    between atoms: N_23  and  C_24
REMARK    8  A    between atoms: N_25  and  C_26
REMARK    9  A    between atoms: C_26  and  C_27
REMARK                            x       y       z     vdW  Elec       q    Type
REMARK                         _______ _______ _______ _____ _____    ______ ____
ROOT
ATOM      1  C   UNL     1       0.045  10.500  18.692  0.00  0.00    +0.000 A 
ATOM      2  N   UNL     1      -0.824   9.954  17.875  0.00  0.00    +0.000 NA
ATOM      3  C   UNL     1      -1.973  10.623  18.100  0.00  0.00    +0.000 A 
ATOM      4  C   UNL     1      -1.878  11.535  19.102  0.00  0.00    +0.000 A 
ATOM      5  C   UNL     1      -3.001  12.354  19.466  0.00  0.00    +0.000 A 
ATOM      6  O   UNL     1      -2.943  13.238  20.315  0.00  0.00    +0.000 OA
ATOM      7  N   UNL     1      -4.166  12.087  18.709  0.00  0.00    +0.000 N 
ATOM      8  C   UNL     1      -4.168  11.335  17.520  0.00  0.00    +0.000 A 
ATOM      9  O   UNL     1      -5.059  11.443  16.672  0.00  0.00    +0.000 OA
ATOM     10  N   UNL     1      -3.090  10.477  17.319  0.00  0.00    +0.000 N 
ATOM     11  C   UNL     1      -3.076   9.543  16.206  0.00  0.00    +0.000 C 
ATOM     12  N   UNL     1      -0.545  11.452  19.520  0.00  0.00    +0.000 N 
ENDROOT
BRANCH   1  13
ATOM     13  S   UNL     1       1.736  10.081  18.583  0.00  0.00    +0.000 S 
BRANCH  13  14
ATOM     14  C   UNL     1       1.586   8.401  17.829  0.00  0.00    +0.000 C 
BRANCH  14  18
ATOM     15  C   UNL     1       4.241   6.989  17.174  0.00  0.00    +0.000 C 
ATOM     16  C   UNL     1       3.400   6.723  18.384  0.00  0.00    +0.000 C 
ATOM     17 CL   UNL     1       4.011   5.500  19.451  0.00  0.00    +0.000 Cl
ATOM     18  C   UNL     1       2.246   7.349  18.681  0.00  0.00    +0.000 C 
ENDBRANCH  14  18
ENDBRANCH  13  14
ENDBRANCH   1  13
BRANCH   7  19
ATOM     19  C   UNL     1      -5.376  12.865  18.989  0.00  0.00    +0.000 C 
BRANCH  19  20
ATOM     20  C   UNL     1      -6.352  12.256  19.995  0.00  0.00    +0.000 A 
ATOM     21  C   UNL     1      -7.157  11.168  19.633  0.00  0.00    +0.000 A 
ATOM     22  C   UNL     1      -7.917  10.470  20.587  0.00  0.00    +0.000 A 
ATOM     23  C   UNL     1      -7.874  10.860  21.925  0.00  0.00    +0.000 A 
ATOM     24  C   UNL     1      -7.114  11.966  22.300  0.00  0.00    +0.000 A 
ATOM     25  C   UNL     1      -6.370  12.669  21.337  0.00  0.00    +0.000 A 
ENDBRANCH  19  20
ENDBRANCH   7  19
BRANCH  12  26
ATOM     26  C   UNL     1       0.117  12.354  20.455  0.00  0.00    +0.000 C 
BRANCH  26  27
ATOM     27  C   UNL     1       0.836  13.533  19.827  0.00  0.00    +0.000 A 
ATOM     28  C   UNL     1       0.145  14.703  19.475  0.00  0.00    +0.000 A 
ATOM     29  C   UNL     1       0.837  15.855  19.070  0.00  0.00    +0.000 A 
ATOM     30  C   UNL     1       2.228  15.853  19.013  0.00  0.00    +0.000 A 
ATOM     31  C   UNL     1       2.926  14.690  19.317  0.00  0.00    +0.000 A 
ATOM     32  C   UNL     1       2.235  13.537  19.708  0.00  0.00    +0.000 A 
ENDBRANCH  26  27
ENDBRANCH  12  26
TORSDOF 7
ENDMDL
