MODEL 1
REMARK VINA RESULT:      -6.8      0.000      0.000
REMARK  Name = 
REMARK  1 active torsions:
REMARK  status: ('A' for Active; 'I' for Inactive)
REMARK    1  A    between atoms: N_1  and  C_2
REMARK                            x       y       z     vdW  Elec       q    Type
REMARK                         _______ _______ _______ _____ _____    ______ ____
ROOT
ATOM      1  C   UNL     1       6.161   5.455  16.224  0.00  0.00    +0.000 A 
ATOM      2  C   UNL     1       5.487   6.695  16.346  0.00  0.00    +0.000 A 
ATOM      3  C   UNL     1       4.329   6.799  17.133  0.00  0.00    +0.000 A 
ATOM      4  C   UNL     1       3.864   5.659  17.741  0.00  0.00    +0.000 A 
ATOM      5  C   UNL     1       4.488   4.467  17.650  0.00  0.00    +0.000 A 
ATOM      6  C   UNL     1       5.652   4.311  16.897  0.00  0.00    +0.000 A 
ATOM      7  O   UNL     1       3.773   3.542  18.318  0.00  0.00    +0.000 OA
ATOM      8  C   UNL     1       2.641   4.178  18.844  0.00  0.00    +0.000 C 
ATOM      9  C   UNL     1       2.559   4.008  20.359  0.00  0.00    +0.000 C 
ATOM     10  C   UNL     1       1.251   3.280  20.658  0.00  0.00    +0.000 C 
ATOM     11  C   UNL     1       0.729   2.747  19.327  0.00  0.00    +0.000 C 
ATOM     12  C   UNL     1       1.361   3.603  18.246  0.00  0.00    +0.000 C 
ATOM     13  O   UNL     1       2.758   5.518  18.488  0.00  0.00    +0.000 OA
ENDROOT
BRANCH   1  14
ATOM     14  N   UNL     1       7.318   5.355  15.423  0.00  0.00    +0.000 N 
ATOM     15  H   UNL     1       8.230   5.127  15.847  0.00  0.00    +0.000 HD
ATOM     16  H   UNL     1       7.272   5.517  14.408  0.00  0.00    +0.000 HD
ENDBRANCH   1  14
TORSDOF 1
ENDMDL
MODEL 2
REMARK VINA RESULT:      -6.8      1.606      1.857
REMARK  Name = 
REMARK  1 active torsions:
REMARK  status: ('A' for Active; 'I' for Inactive)
REMARK    1  A    between atoms: N_1  and  C_2
REMARK                            x       y       z     vdW  Elec       q    Type
REMARK                         _______ _______ _______ _____ _____    ______ ____
ROOT
ATOM      1  C   UNL     1       6.822   4.955  15.720  0.00  0.00    +0.000 A 
ATOM      2  C   UNL     1       7.357   5.164  17.015  0.00  0.00    +0.000 A 
ATOM      3  C   UNL     1       6.632   4.777  18.153  0.00  0.00    +0.000 A 
ATOM      4  C   UNL     1       5.388   4.227  17.963  0.00  0.00    +0.000 A 
ATOM      5  C   UNL     1       4.856   4.009  16.744  0.00  0.00    +0.000 A 
ATOM      6  C   UNL     1       5.540   4.358  15.579  0.00  0.00    +0.000 A 
ATOM      7  O   UNL     1       3.618   3.500  16.886  0.00  0.00    +0.000 OA
ATOM      8  C   UNL     1       3.353   3.404  18.258  0.00  0.00    +0.000 C 
ATOM      9  C   UNL     1       2.996   1.975  18.659  0.00  0.00    +0.000 C 
ATOM     10  C   UNL     1       1.587   2.013  19.246  0.00  0.00    +0.000 C 
ATOM     11  C   UNL     1       1.003   3.381  18.902  0.00  0.00    +0.000 C 
ATOM     12  C   UNL     1       2.184   4.300  18.655  0.00  0.00    +0.000 C 
ATOM     13  O   UNL     1       4.509   3.838  18.900  0.00  0.00    +0.000 OA
ENDROOT
BRANCH   1  14
ATOM     14  N   UNL     1       7.551   5.357  14.581  0.00  0.00    +0.000 N 
ATOM     15  H   UNL     1       7.746   4.687  13.821  0.00  0.00    +0.000 HD
ATOM     16  H   UNL     1       7.907   6.318  14.494  0.00  0.00    +0.000 HD
ENDBRANCH   1  14
TORSDOF 1
ENDMDL
MODEL 3
REMARK VINA RESULT:      -6.8      1.298      1.895
REMARK  Name = 
REMARK  1 active torsions:
REMARK  status: ('A' for Active; 'I' for Inactive)
REMARK    1  A    between atoms: N_1  and  C_2
REMARK                            x       y       z     vdW  Elec       q    Type
REMARK                         _______ _______ _______ _____ _____    ______ ____
ROOT
ATOM      1  C   UNL     1       6.414   5.764  16.851  0.00  0.00    +0.000 A 
ATOM      2  C   UNL     1       5.901   4.819  15.929  0.00  0.00    +0.000 A 
ATOM      3  C   UNL     1       4.807   4.010  16.275  0.00  0.00    +0.000 A 
ATOM      4  C   UNL     1       4.285   4.147  17.538  0.00  0.00    +0.000 A 
ATOM      5  C   UNL     1       4.745   5.043  18.434  0.00  0.00    +0.000 A 
ATOM      6  C   UNL     1       5.818   5.884  18.135  0.00  0.00    +0.000 A 
ATOM      7  O   UNL     1       4.060   4.911  19.584  0.00  0.00    +0.000 OA
ATOM      8  C   UNL     1       3.132   3.875  19.410  0.00  0.00    +0.000 C 
ATOM      9  C   UNL     1       1.707   4.351  19.681  0.00  0.00    +0.000 C 
ATOM     10  C   UNL     1       1.165   3.507  20.833  0.00  0.00    +0.000 C 
ATOM     11  C   UNL     1       2.357   2.770  21.438  0.00  0.00    +0.000 C 
ATOM     12  C   UNL     1       3.420   2.715  20.357  0.00  0.00    +0.000 C 
ATOM     13  O   UNL     1       3.283   3.448  18.094  0.00  0.00    +0.000 OA
ENDROOT
BRANCH   1  14
ATOM     14  N   UNL     1       7.521   6.566  16.500  0.00  0.00    +0.000 N 
ATOM     15  H   UNL     1       7.390   7.559  16.252  0.00  0.00    +0.000 HD
ATOM     16  H   UNL     1       8.471   6.172  16.476  0.00  0.00    +0.000 HD
ENDBRANCH   1  14
TORSDOF 1
ENDMDL
MODEL 4
REMARK VINA RESULT:      -6.7      3.011      5.237
REMARK  Name = 
REMARK  1 active torsions:
REMARK  status: ('A' for Active; 'I' for Inactive)
REMARK    1  A    between atoms: N_1  and  C_2
REMARK                            x       y       z     vdW  Elec       q    Type
REMARK                         _______ _______ _______ _____ _____    ______ ____
ROOT
ATOM      1  C   UNL     1       2.075   3.295  21.178  0.00  0.00    +0.000 A 
ATOM      2  C   UNL     1       1.646   4.608  20.863  0.00  0.00    +0.000 A 
ATOM      3  C   UNL     1       2.304   5.352  19.871  0.00  0.00    +0.000 A 
ATOM      4  C   UNL     1       3.386   4.775  19.251  0.00  0.00    +0.000 A 
ATOM      5  C   UNL     1       3.812   3.526  19.523  0.00  0.00    +0.000 A 
ATOM      6  C   UNL     1       3.184   2.736  20.487  0.00  0.00    +0.000 A 
ATOM      7  O   UNL     1       4.908   3.262  18.787  0.00  0.00    +0.000 OA
ATOM      8  C   UNL     1       5.192   4.403  18.025  0.00  0.00    +0.000 C 
ATOM      9  C   UNL     1       5.233   4.083  16.533  0.00  0.00    +0.000 C 
ATOM     10  C   UNL     1       6.634   4.433  16.037  0.00  0.00    +0.000 C 
ATOM     11  C   UNL     1       7.498   4.652  17.276  0.00  0.00    +0.000 C 
ATOM     12  C   UNL     1       6.546   4.994  18.406  0.00  0.00    +0.000 C 
ATOM     13  O   UNL     1       4.187   5.319  18.321  0.00  0.00    +0.000 OA
ENDROOT
BRANCH   1  14
ATOM     14  N   UNL     1       1.416   2.558  22.184  0.00  0.00    +0.000 N 
ATOM     15  H   UNL     1       1.216   2.986  23.101  0.00  0.00    +0.000 HD
ATOM     16  H   UNL     1       1.133   1.582  22.022  0.00  0.00    +0.000 HD
ENDBRANCH   1  14
TORSDOF 1
ENDMDL
MODEL 5
REMARK VINA RESULT:      -6.7      1.386      1.609
REMARK  Name = 
REMARK  1 active torsions:
REMARK  status: ('A' for Active; 'I' for Inactive)
REMARK    1  A    between atoms: N_1  and  C_2
REMARK                            x       y       z     vdW  Elec       q    Type
REMARK                         _______ _______ _______ _____ _____    ______ ____
ROOT
ATOM      1  C   UNL     1       6.724   5.111  16.497  0.00  0.00    +0.000 A 
ATOM      2  C   UNL     1       7.247   5.630  17.707  0.00  0.00    +0.000 A 
ATOM      3  C   UNL     1       6.545   5.467  18.912  0.00  0.00    +0.000 A 
ATOM      4  C   UNL     1       5.332   4.824  18.863  0.00  0.00    +0.000 A 
ATOM      5  C   UNL     1       4.813   4.313  17.729  0.00  0.00    +0.000 A 
ATOM      6  C   UNL     1       5.477   4.431  16.507  0.00  0.00    +0.000 A 
ATOM      7  O   UNL     1       3.605   3.782  17.995  0.00  0.00    +0.000 OA
ATOM      8  C   UNL     1       3.345   3.979  19.357  0.00  0.00    +0.000 C 
ATOM      9  C   UNL     1       3.066   2.658  20.069  0.00  0.00    +0.000 C 
ATOM     10  C   UNL     1       1.657   2.750  20.650  0.00  0.00    +0.000 C 
ATOM     11  C   UNL     1       1.000   3.974  20.019  0.00  0.00    +0.000 C 
ATOM     12  C   UNL     1       2.129   4.877  19.560  0.00  0.00    +0.000 C 
ATOM     13  O   UNL     1       4.476   4.605  19.873  0.00  0.00    +0.000 OA
ENDROOT
BRANCH   1  14
ATOM     14  N   UNL     1       7.430   5.289  15.288  0.00  0.00    +0.000 N 
ATOM     15  H   UNL     1       7.554   4.501  14.634  0.00  0.00    +0.000 HD
ATOM     16  H   UNL     1       7.840   6.201  15.046  0.00  0.00    +0.000 HD
ENDBRANCH   1  14
TORSDOF 1
ENDMDL
MODEL 6
REMARK VINA RESULT:      -6.7      1.202      2.040
REMARK  Name = 
REMARK  1 active torsions:
REMARK  status: ('A' for Active; 'I' for Inactive)
REMARK    1  A    between atoms: N_1  and  C_2
REMARK                            x       y       z     vdW  Elec       q    Type
REMARK                         _______ _______ _______ _____ _____    ______ ____
ROOT
ATOM      1  C   UNL     1       6.628   5.990  16.746  0.00  0.00    +0.000 A 
ATOM      2  C   UNL     1       6.652   4.905  15.835  0.00  0.00    +0.000 A 
ATOM      3  C   UNL     1       5.675   3.899  15.903  0.00  0.00    +0.000 A 
ATOM      4  C   UNL     1       4.731   3.990  16.897  0.00  0.00    +0.000 A 
ATOM      5  C   UNL     1       4.678   5.014  17.772  0.00  0.00    +0.000 A 
ATOM      6  C   UNL     1       5.612   6.050  17.738  0.00  0.00    +0.000 A 
ATOM      7  O   UNL     1       3.672   4.801  18.641  0.00  0.00    +0.000 OA
ATOM      8  C   UNL     1       3.072   3.581  18.305  0.00  0.00    +0.000 C 
ATOM      9  C   UNL     1       1.579   3.750  18.031  0.00  0.00    +0.000 C 
ATOM     10  C   UNL     1       0.837   2.874  19.038  0.00  0.00    +0.000 C 
ATOM     11  C   UNL     1       1.858   2.449  20.090  0.00  0.00    +0.000 C 
ATOM     12  C   UNL     1       3.221   2.566  19.434  0.00  0.00    +0.000 C 
ATOM     13  O   UNL     1       3.746   3.123  17.177  0.00  0.00    +0.000 OA
ENDROOT
BRANCH   1  14
ATOM     14  N   UNL     1       7.619   6.992  16.679  0.00  0.00    +0.000 N 
ATOM     15  H   UNL     1       8.619   6.740  16.695  0.00  0.00    +0.000 HD
ATOM     16  H   UNL     1       7.361   7.986  16.622  0.00  0.00    +0.000 HD
ENDBRANCH   1  14
TORSDOF 1
ENDMDL
MODEL 7
REMARK VINA RESULT:      -6.6      4.522      5.574
REMARK  Name = 
REMARK  1 active torsions:
REMARK  status: ('A' for Active; 'I' for Inactive)
REMARK    1  A    between atoms: N_1  and  C_2
REMARK                            x       y       z     vdW  Elec       q    Type
REMARK                         _______ _______ _______ _____ _____    ______ ____
ROOT
ATOM      1  C   UNL     1       7.691   5.596  18.685  0.00  0.00    +0.000 A 
ATOM      2  C   UNL     1       7.086   6.824  18.320  0.00  0.00    +0.000 A 
ATOM      3  C   UNL     1       6.504   6.980  17.052  0.00  0.00    +0.000 A 
ATOM      4  C   UNL     1       6.576   5.920  16.181  0.00  0.00    +0.000 A 
ATOM      5  C   UNL     1       7.137   4.738  16.502  0.00  0.00    +0.000 A 
ATOM      6  C   UNL     1       7.714   4.522  17.754  0.00  0.00    +0.000 A 
ATOM      7  O   UNL     1       7.088   3.920  15.434  0.00  0.00    +0.000 OA
ATOM      8  C   UNL     1       6.478   4.624  14.387  0.00  0.00    +0.000 C 
ATOM      9  C   UNL     1       5.250   3.887  13.860  0.00  0.00    +0.000 C 
ATOM     10  C   UNL     1       5.507   3.587  12.385  0.00  0.00    +0.000 C 
ATOM     11  C   UNL     1       6.987   3.857  12.132  0.00  0.00    +0.000 C 
ATOM     12  C   UNL     1       7.440   4.813  13.219  0.00  0.00    +0.000 C 
ATOM     13  O   UNL     1       6.138   5.867  14.913  0.00  0.00    +0.000 OA
ENDROOT
BRANCH   1  14
ATOM     14  N   UNL     1       8.284   5.450  19.957  0.00  0.00    +0.000 N 
ATOM     15  H   UNL     1       9.011   6.109  20.274  0.00  0.00    +0.000 HD
ATOM     16  H   UNL     1       8.007   4.682  20.583  0.00  0.00    +0.000 HD
ENDBRANCH   1  14
TORSDOF 1
ENDMDL
MODEL 8
REMARK VINA RESULT:      -6.6      2.908      5.286
REMARK  Name = 
REMARK  1 active torsions:
REMARK  status: ('A' for Active; 'I' for Inactive)
REMARK    1  A    between atoms: N_1  and  C_2
REMARK                            x       y       z     vdW  Elec       q    Type
REMARK                         _______ _______ _______ _____ _____    ______ ____
ROOT
ATOM      1  C   UNL     1       1.762   3.334  19.682  0.00  0.00    +0.000 A 
ATOM      2  C   UNL     1       2.332   2.307  18.891  0.00  0.00    +0.000 A 
ATOM      3  C   UNL     1       3.602   2.475  18.317  0.00  0.00    +0.000 A 
ATOM      4  C   UNL     1       4.244   3.672  18.523  0.00  0.00    +0.000 A 
ATOM      5  C   UNL     1       3.730   4.664  19.278  0.00  0.00    +0.000 A 
ATOM      6  C   UNL     1       2.480   4.543  19.886  0.00  0.00    +0.000 A 
ATOM      7  O   UNL     1       4.571   5.716  19.258  0.00  0.00    +0.000 OA
ATOM      8  C   UNL     1       5.658   5.375  18.442  0.00  0.00    +0.000 C 
ATOM      9  C   UNL     1       6.980   5.500  19.195  0.00  0.00    +0.000 C 
ATOM     10  C   UNL     1       7.825   6.530  18.449  0.00  0.00    +0.000 C 
ATOM     11  C   UNL     1       6.895   7.233  17.464  0.00  0.00    +0.000 C 
ATOM     12  C   UNL     1       5.735   6.286  17.221  0.00  0.00    +0.000 C 
ATOM     13  O   UNL     1       5.429   4.065  18.031  0.00  0.00    +0.000 OA
ENDROOT
BRANCH   1  14
ATOM     14  N   UNL     1       0.480   3.162  20.247  0.00  0.00    +0.000 N 
ATOM     15  H   UNL     1      -0.348   3.050  19.642  0.00  0.00    +0.000 HD
ATOM     16  H   UNL     1       0.350   3.156  21.268  0.00  0.00    +0.000 HD
ENDBRANCH   1  14
TORSDOF 1
ENDMDL
MODEL 9
REMARK VINA RESULT:      -6.5      2.652      5.190
REMARK  Name = 
REMARK  1 active torsions:
REMARK  status: ('A' for Active; 'I' for Inactive)
REMARK    1  A    between atoms: N_1  and  C_2
REMARK                            x       y       z     vdW  Elec       q    Type
REMARK                         _______ _______ _______ _____ _____    ______ ____
ROOT
ATOM      1  C   UNL     1       2.044   3.020  20.718  0.00  0.00    +0.000 A 
ATOM      2  C   UNL     1       1.072   3.537  19.826  0.00  0.00    +0.000 A 
ATOM      3  C   UNL     1       1.459   4.095  18.598  0.00  0.00    +0.000 A 
ATOM      4  C   UNL     1       2.803   4.149  18.316  0.00  0.00    +0.000 A 
ATOM      5  C   UNL     1       3.750   3.658  19.139  0.00  0.00    +0.000 A 
ATOM      6  C   UNL     1       3.419   3.077  20.364  0.00  0.00    +0.000 A 
ATOM      7  O   UNL     1       4.964   3.894  18.607  0.00  0.00    +0.000 OA
ATOM      8  C   UNL     1       4.773   4.575  17.398  0.00  0.00    +0.000 C 
ATOM      9  C   UNL     1       5.416   3.831  16.231  0.00  0.00    +0.000 C 
ATOM     10  C   UNL     1       6.457   4.767  15.622  0.00  0.00    +0.000 C 
ATOM     11  C   UNL     1       6.649   5.915  16.609  0.00  0.00    +0.000 C 
ATOM     12  C   UNL     1       5.388   5.970  17.451  0.00  0.00    +0.000 C 
ATOM     13  O   UNL     1       3.395   4.682  17.235  0.00  0.00    +0.000 OA
ENDROOT
BRANCH   1  14
ATOM     14  N   UNL     1       1.647   2.471  21.955  0.00  0.00    +0.000 N 
ATOM     15  H   UNL     1       2.328   1.972  22.549  0.00  0.00    +0.000 HD
ATOM     16  H   UNL     1       0.674   2.550  22.280  0.00  0.00    +0.000 HD
ENDBRANCH   1  14
TORSDOF 1
ENDMDL
