MODEL 1
REMARK VINA RESULT:      -6.6      0.000      0.000
REMARK  Name = 
REMARK  1 active torsions:
REMARK  status: ('A' for Active; 'I' for Inactive)
REMARK    1  A    between atoms: C_5  and  C_6
REMARK                            x       y       z     vdW  Elec       q    Type
REMARK                         _______ _______ _______ _____ _____    ______ ____
ROOT
ATOM      1  C   UNL     1       5.019   4.433  19.030  0.00  0.00    +0.000 A 
ATOM      2  N   UNL     1       6.105   4.866  19.668  0.00  0.00    +0.000 NA
ATOM      3  N   UNL     1       7.151   5.004  18.761  0.00  0.00    +0.000 NA
ATOM      4  C   UNL     1       6.669   4.664  17.600  0.00  0.00    +0.000 A 
ATOM      5  N   UNL     1       5.363   4.312  17.728  0.00  0.00    +0.000 N 
ATOM      6  C   UNL     1       4.731   4.048  16.458  0.00  0.00    +0.000 C 
ATOM      7  C   UNL     1       5.946   3.865  15.527  0.00  0.00    +0.000 C 
ATOM      8  C   UNL     1       7.119   4.620  16.200  0.00  0.00    +0.000 C 
ENDROOT
BRANCH   1  13
ATOM      9  C   UNL     1       1.601   4.908  20.561  0.00  0.00    +0.000 A 
ATOM     10  C   UNL     1       1.264   3.575  20.722  0.00  0.00    +0.000 A 
ATOM     11  N   UNL     1       2.066   2.554  20.361  0.00  0.00    +0.000 NA
ATOM     12  C   UNL     1       3.263   2.883  19.811  0.00  0.00    +0.000 A 
ATOM     13  C   UNL     1       3.713   4.188  19.624  0.00  0.00    +0.000 A 
ATOM     14  C   UNL     1       2.840   5.213  20.000  0.00  0.00    +0.000 A 
ENDBRANCH   1  13
TORSDOF 1
ENDMDL
MODEL 2
REMARK VINA RESULT:      -6.5      1.800      5.138
REMARK  Name = 
REMARK  1 active torsions:
REMARK  status: ('A' for Active; 'I' for Inactive)
REMARK    1  A    between atoms: C_5  and  C_6
REMARK                            x       y       z     vdW  Elec       q    Type
REMARK                         _______ _______ _______ _____ _____    ______ ____
ROOT
ATOM      1  C   UNL     1       4.822   4.446  19.276  0.00  0.00    +0.000 A 
ATOM      2  N   UNL     1       5.000   3.140  19.461  0.00  0.00    +0.000 NA
ATOM      3  N   UNL     1       3.856   2.593  20.034  0.00  0.00    +0.000 NA
ATOM      4  C   UNL     1       3.014   3.578  20.170  0.00  0.00    +0.000 A 
ATOM      5  N   UNL     1       3.573   4.728  19.711  0.00  0.00    +0.000 N 
ATOM      6  C   UNL     1       2.647   5.835  19.712  0.00  0.00    +0.000 C 
ATOM      7  C   UNL     1       1.534   5.321  20.646  0.00  0.00    +0.000 C 
ATOM      8  C   UNL     1       1.626   3.776  20.612  0.00  0.00    +0.000 C 
ENDROOT
BRANCH   1  13
ATOM      9  C   UNL     1       7.894   6.538  18.614  0.00  0.00    +0.000 A 
ATOM     10  C   UNL     1       7.489   7.124  17.427  0.00  0.00    +0.000 A 
ATOM     11  N   UNL     1       6.302   6.875  16.840  0.00  0.00    +0.000 NA
ATOM     12  C   UNL     1       5.480   5.997  17.471  0.00  0.00    +0.000 A 
ATOM     13  C   UNL     1       5.777   5.369  18.678  0.00  0.00    +0.000 A 
ATOM     14  C   UNL     1       7.026   5.646  19.241  0.00  0.00    +0.000 A 
ENDBRANCH   1  13
TORSDOF 1
ENDMDL
MODEL 3
REMARK VINA RESULT:      -6.5      0.753      1.280
REMARK  Name = 
REMARK  1 active torsions:
REMARK  status: ('A' for Active; 'I' for Inactive)
REMARK    1  A    between atoms: C_5  and  C_6
REMARK                            x       y       z     vdW  Elec       q    Type
REMARK                         _______ _______ _______ _____ _____    ______ ____
ROOT
ATOM      1  C   UNL     1       5.014   4.396  18.997  0.00  0.00    +0.000 A 
ATOM      2  N   UNL     1       6.089   4.827  19.653  0.00  0.00    +0.000 NA
ATOM      3  N   UNL     1       7.144   4.985  18.759  0.00  0.00    +0.000 NA
ATOM      4  C   UNL     1       6.677   4.657  17.588  0.00  0.00    +0.000 A 
ATOM      5  N   UNL     1       5.372   4.295  17.698  0.00  0.00    +0.000 N 
ATOM      6  C   UNL     1       4.755   4.044  16.417  0.00  0.00    +0.000 C 
ATOM      7  C   UNL     1       5.982   3.882  15.497  0.00  0.00    +0.000 C 
ATOM      8  C   UNL     1       7.143   4.635  16.193  0.00  0.00    +0.000 C 
ENDROOT
BRANCH   1  13
ATOM      9  C   UNL     1       1.918   2.668  20.294  0.00  0.00    +0.000 A 
ATOM     10  C   UNL     1       1.212   3.789  20.696  0.00  0.00    +0.000 A 
ATOM     11  N   UNL     1       1.682   5.047  20.577  0.00  0.00    +0.000 NA
ATOM     12  C   UNL     1       2.916   5.190  20.031  0.00  0.00    +0.000 A 
ATOM     13  C   UNL     1       3.703   4.135  19.574  0.00  0.00    +0.000 A 
ATOM     14  C   UNL     1       3.180   2.847  19.732  0.00  0.00    +0.000 A 
ENDBRANCH   1  13
TORSDOF 1
ENDMDL
MODEL 4
REMARK VINA RESULT:      -6.5      1.617      5.000
REMARK  Name = 
REMARK  1 active torsions:
REMARK  status: ('A' for Active; 'I' for Inactive)
REMARK    1  A    between atoms: C_5  and  C_6
REMARK                            x       y       z     vdW  Elec       q    Type
REMARK                         _______ _______ _______ _____ _____    ______ ____
ROOT
ATOM      1  C   UNL     1       4.050   4.559  18.518  0.00  0.00    +0.000 A 
ATOM      2  N   UNL     1       4.000   5.375  19.569  0.00  0.00    +0.000 NA
ATOM      3  N   UNL     1       2.892   5.059  20.349  0.00  0.00    +0.000 NA
ATOM      4  C   UNL     1       2.309   4.056  19.757  0.00  0.00    +0.000 A 
ATOM      5  N   UNL     1       2.995   3.721  18.633  0.00  0.00    +0.000 N 
ATOM      6  C   UNL     1       2.478   2.533  17.999  0.00  0.00    +0.000 C 
ATOM      7  C   UNL     1       1.085   2.403  18.648  0.00  0.00    +0.000 C 
ATOM      8  C   UNL     1       1.171   3.156  19.999  0.00  0.00    +0.000 C 
ENDROOT
BRANCH   1  13
ATOM      9  C   UNL     1       5.804   4.537  15.176  0.00  0.00    +0.000 A 
ATOM     10  C   UNL     1       7.111   4.559  15.632  0.00  0.00    +0.000 A 
ATOM     11  N   UNL     1       7.444   4.587  16.937  0.00  0.00    +0.000 NA
ATOM     12  C   UNL     1       6.421   4.595  17.829  0.00  0.00    +0.000 A 
ATOM     13  C   UNL     1       5.073   4.553  17.482  0.00  0.00    +0.000 A 
ATOM     14  C   UNL     1       4.776   4.539  16.116  0.00  0.00    +0.000 A 
ENDBRANCH   1  13
TORSDOF 1
ENDMDL
MODEL 5
REMARK VINA RESULT:      -6.5      1.760      4.883
REMARK  Name = 
REMARK  1 active torsions:
REMARK  status: ('A' for Active; 'I' for Inactive)
REMARK    1  A    between atoms: C_5  and  C_6
REMARK                            x       y       z     vdW  Elec       q    Type
REMARK                         _______ _______ _______ _____ _____    ______ ____
ROOT
ATOM      1  C   UNL     1       4.181   3.726  18.766  0.00  0.00    +0.000 A 
ATOM      2  N   UNL     1       4.947   2.934  19.514  0.00  0.00    +0.000 NA
ATOM      3  N   UNL     1       4.177   2.364  20.523  0.00  0.00    +0.000 NA
ATOM      4  C   UNL     1       2.967   2.816  20.353  0.00  0.00    +0.000 A 
ATOM      5  N   UNL     1       2.934   3.651  19.282  0.00  0.00    +0.000 N 
ATOM      6  C   UNL     1       1.596   4.086  18.957  0.00  0.00    +0.000 C 
ATOM      7  C   UNL     1       0.827   3.745  20.249  0.00  0.00    +0.000 C 
ATOM      8  C   UNL     1       1.635   2.624  20.947  0.00  0.00    +0.000 C 
ENDROOT
BRANCH   1  13
ATOM      9  C   UNL     1       5.042   6.541  16.402  0.00  0.00    +0.000 A 
ATOM     10  C   UNL     1       5.460   5.780  15.324  0.00  0.00    +0.000 A 
ATOM     11  N   UNL     1       5.483   4.433  15.327  0.00  0.00    +0.000 NA
ATOM     12  C   UNL     1       5.070   3.817  16.464  0.00  0.00    +0.000 A 
ATOM     13  C   UNL     1       4.609   4.482  17.598  0.00  0.00    +0.000 A 
ATOM     14  C   UNL     1       4.617   5.880  17.553  0.00  0.00    +0.000 A 
ENDBRANCH   1  13
TORSDOF 1
ENDMDL
MODEL 6
REMARK VINA RESULT:      -6.4      1.950      5.507
REMARK  Name = 
REMARK  1 active torsions:
REMARK  status: ('A' for Active; 'I' for Inactive)
REMARK    1  A    between atoms: C_5  and  C_6
REMARK                            x       y       z     vdW  Elec       q    Type
REMARK                         _______ _______ _______ _____ _____    ______ ____
ROOT
ATOM      1  C   UNL     1       3.160   4.090  17.553  0.00  0.00    +0.000 A 
ATOM      2  N   UNL     1       2.208   3.342  17.000  0.00  0.00    +0.000 NA
ATOM      3  N   UNL     1       1.191   3.127  17.924  0.00  0.00    +0.000 NA
ATOM      4  C   UNL     1       1.548   3.760  19.006  0.00  0.00    +0.000 A 
ATOM      5  N   UNL     1       2.750   4.364  18.811  0.00  0.00    +0.000 N 
ATOM      6  C   UNL     1       3.143   5.190  19.927  0.00  0.00    +0.000 C 
ATOM      7  C   UNL     1       2.214   4.681  21.047  0.00  0.00    +0.000 C 
ATOM      8  C   UNL     1       0.991   4.052  20.335  0.00  0.00    +0.000 C 
ENDROOT
BRANCH   1  13
ATOM      9  C   UNL     1       6.452   4.198  15.708  0.00  0.00    +0.000 A 
ATOM     10  C   UNL     1       6.630   5.571  15.690  0.00  0.00    +0.000 A 
ATOM     11  N   UNL     1       5.754   6.442  16.227  0.00  0.00    +0.000 NA
ATOM     12  C   UNL     1       4.646   5.916  16.808  0.00  0.00    +0.000 A 
ATOM     13  C   UNL     1       4.378   4.552  16.902  0.00  0.00    +0.000 A 
ATOM     14  C   UNL     1       5.308   3.687  16.318  0.00  0.00    +0.000 A 
ENDBRANCH   1  13
TORSDOF 1
ENDMDL
MODEL 7
REMARK VINA RESULT:      -6.4      1.658      4.982
REMARK  Name = 
REMARK  1 active torsions:
REMARK  status: ('A' for Active; 'I' for Inactive)
REMARK    1  A    between atoms: C_5  and  C_6
REMARK                            x       y       z     vdW  Elec       q    Type
REMARK                         _______ _______ _______ _____ _____    ______ ____
ROOT
ATOM      1  C   UNL     1       4.315   3.730  18.848  0.00  0.00    +0.000 A 
ATOM      2  N   UNL     1       5.115   2.919  19.537  0.00  0.00    +0.000 NA
ATOM      3  N   UNL     1       4.399   2.341  20.581  0.00  0.00    +0.000 NA
ATOM      4  C   UNL     1       3.186   2.807  20.489  0.00  0.00    +0.000 A 
ATOM      5  N   UNL     1       3.099   3.659  19.434  0.00  0.00    +0.000 N 
ATOM      6  C   UNL     1       1.750   4.112  19.195  0.00  0.00    +0.000 C 
ATOM      7  C   UNL     1       1.053   3.759  20.525  0.00  0.00    +0.000 C 
ATOM      8  C   UNL     1       1.890   2.619  21.157  0.00  0.00    +0.000 C 
ENDROOT
BRANCH   1  13
ATOM      9  C   UNL     1       5.414   4.708  15.371  0.00  0.00    +0.000 A 
ATOM     10  C   UNL     1       5.332   6.083  15.511  0.00  0.00    +0.000 A 
ATOM     11  N   UNL     1       4.940   6.694  16.646  0.00  0.00    +0.000 NA
ATOM     12  C   UNL     1       4.614   5.891  17.692  0.00  0.00    +0.000 A 
ATOM     13  C   UNL     1       4.682   4.500  17.668  0.00  0.00    +0.000 A 
ATOM     14  C   UNL     1       5.079   3.911  16.464  0.00  0.00    +0.000 A 
ENDBRANCH   1  13
TORSDOF 1
ENDMDL
MODEL 8
REMARK VINA RESULT:      -6.4      1.557      5.338
REMARK  Name = 
REMARK  1 active torsions:
REMARK  status: ('A' for Active; 'I' for Inactive)
REMARK    1  A    between atoms: C_5  and  C_6
REMARK                            x       y       z     vdW  Elec       q    Type
REMARK                         _______ _______ _______ _____ _____    ______ ____
ROOT
ATOM      1  C   UNL     1       3.283   3.733  17.955  0.00  0.00    +0.000 A 
ATOM      2  N   UNL     1       2.258   3.677  17.107  0.00  0.00    +0.000 NA
ATOM      3  N   UNL     1       1.087   3.418  17.812  0.00  0.00    +0.000 NA
ATOM      4  C   UNL     1       1.432   3.336  19.066  0.00  0.00    +0.000 A 
ATOM      5  N   UNL     1       2.771   3.528  19.189  0.00  0.00    +0.000 N 
ATOM      6  C   UNL     1       3.201   3.579  20.566  0.00  0.00    +0.000 C 
ATOM      7  C   UNL     1       1.996   2.959  21.301  0.00  0.00    +0.000 C 
ATOM      8  C   UNL     1       0.775   3.162  20.370  0.00  0.00    +0.000 C 
ENDROOT
BRANCH   1  13
ATOM      9  C   UNL     1       6.490   4.267  16.036  0.00  0.00    +0.000 A 
ATOM     10  C   UNL     1       7.319   4.565  17.104  0.00  0.00    +0.000 A 
ATOM     11  N   UNL     1       6.898   4.609  18.384  0.00  0.00    +0.000 NA
ATOM     12  C   UNL     1       5.586   4.342  18.605  0.00  0.00    +0.000 A 
ATOM     13  C   UNL     1       4.671   4.008  17.610  0.00  0.00    +0.000 A 
ATOM     14  C   UNL     1       5.150   3.990  16.296  0.00  0.00    +0.000 A 
ENDBRANCH   1  13
TORSDOF 1
ENDMDL
MODEL 9
REMARK VINA RESULT:      -6.4      1.358      5.040
REMARK  Name = 
REMARK  1 active torsions:
REMARK  status: ('A' for Active; 'I' for Inactive)
REMARK    1  A    between atoms: C_5  and  C_6
REMARK                            x       y       z     vdW  Elec       q    Type
REMARK                         _______ _______ _______ _____ _____    ______ ____
ROOT
ATOM      1  C   UNL     1       4.371   3.425  19.249  0.00  0.00    +0.000 A 
ATOM      2  N   UNL     1       4.890   2.528  20.083  0.00  0.00    +0.000 NA
ATOM      3  N   UNL     1       3.941   2.177  21.037  0.00  0.00    +0.000 NA
ATOM      4  C   UNL     1       2.870   2.861  20.749  0.00  0.00    +0.000 A 
ATOM      5  N   UNL     1       3.098   3.634  19.656  0.00  0.00    +0.000 N 
ATOM      6  C   UNL     1       1.912   4.321  19.203  0.00  0.00    +0.000 C 
ATOM      7  C   UNL     1       0.988   4.208  20.432  0.00  0.00    +0.000 C 
ATOM      8  C   UNL     1       1.485   2.977  21.230  0.00  0.00    +0.000 C 
ENDROOT
BRANCH   1  13
ATOM      9  C   UNL     1       5.283   4.450  15.732  0.00  0.00    +0.000 A 
ATOM     10  C   UNL     1       6.394   5.222  16.027  0.00  0.00    +0.000 A 
ATOM     11  N   UNL     1       6.846   5.428  17.279  0.00  0.00    +0.000 NA
ATOM     12  C   UNL     1       6.154   4.835  18.285  0.00  0.00    +0.000 A 
ATOM     13  C   UNL     1       5.039   4.021  18.101  0.00  0.00    +0.000 A 
ATOM     14  C   UNL     1       4.597   3.848  16.786  0.00  0.00    +0.000 A 
ENDBRANCH   1  13
TORSDOF 1
ENDMDL
