MODEL 1
REMARK VINA RESULT:      -7.5      0.000      0.000
REMARK  Name = 
REMARK  4 active torsions:
REMARK  status: ('A' for Active; 'I' for Inactive)
REMARK    1  A    between atoms: C_1  and  C_2
REMARK    2  A    between atoms: C_5  and  N_6
REMARK    3  A    between atoms: N_6  and  C_7
REMARK    4  A    between atoms: C_13  and  O_14
REMARK                            x       y       z     vdW  Elec       q    Type
REMARK                         _______ _______ _______ _____ _____    ______ ____
ROOT
ATOM      1  N   UNL     1       5.577   3.731  18.336  0.00  0.00    +0.000 N 
ATOM      2  H   UNL     1       6.265   2.995  18.517  0.00  0.00    +0.000 HD
ENDROOT
BRANCH   1   7
ATOM      3  C   UNL     1       8.174   8.817  17.781  0.00  0.00    +0.000 C 
ATOM      4  C   UNL     1       7.573   7.447  17.883  0.00  0.00    +0.000 A 
ATOM      5  C   UNL     1       8.013   6.542  18.850  0.00  0.00    +0.000 A 
ATOM      6  C   UNL     1       7.398   5.294  18.984  0.00  0.00    +0.000 A 
ATOM      7  C   UNL     1       6.299   4.941  18.188  0.00  0.00    +0.000 A 
ATOM      8  C   UNL     1       5.938   5.806  17.150  0.00  0.00    +0.000 A 
ATOM      9  C   UNL     1       6.555   7.053  17.009  0.00  0.00    +0.000 A 
ENDBRANCH   1   7
BRANCH   1  10
ATOM     10  C   UNL     1       4.539   3.746  19.396  0.00  0.00    +0.000 C 
ATOM     11  C   UNL     1       3.248   4.428  18.928  0.00  0.00    +0.000 C 
ATOM     12  S   UNL     1       2.201   3.131  18.302  0.00  0.00    +0.000 S 
ATOM     13  O   UNL     1       1.018   3.077  19.141  0.00  0.00    +0.000 OA
ATOM     14  O   UNL     1       2.113   3.220  16.864  0.00  0.00    +0.000 OA
ATOM     15  C   UNL     1       3.236   1.757  18.732  0.00  0.00    +0.000 C 
ATOM     16  C   UNL     1       4.141   2.310  19.816  0.00  0.00    +0.000 C 
BRANCH  16  17
ATOM     17  O   UNL     1       5.274   1.480  20.050  0.00  0.00    +0.000 OA
ATOM     18  H   UNL     1       5.318   1.286  21.003  0.00  0.00    +0.000 HD
ENDBRANCH  16  17
ENDBRANCH   1  10
TORSDOF 3
ENDMDL
MODEL 2
REMARK VINA RESULT:      -7.3      0.947      1.560
REMARK  Name = 
REMARK  4 active torsions:
REMARK  status: ('A' for Active; 'I' for Inactive)
REMARK    1  A    between atoms: C_1  and  C_2
REMARK    2  A    between atoms: C_5  and  N_6
REMARK    3  A    between atoms: N_6  and  C_7
REMARK    4  A    between atoms: C_13  and  O_14
REMARK                            x       y       z     vdW  Elec       q    Type
REMARK                         _______ _______ _______ _____ _____    ______ ____
ROOT
ATOM      1  N   UNL     1       4.907   3.469  17.720  0.00  0.00    +0.000 N 
ATOM      2  H   UNL     1       5.595   2.744  17.502  0.00  0.00    +0.000 HD
ENDROOT
BRANCH   1   7
ATOM      3  C   UNL     1       8.020   8.289  17.639  0.00  0.00    +0.000 C 
ATOM      4  C   UNL     1       7.139   7.077  17.715  0.00  0.00    +0.000 A 
ATOM      5  C   UNL     1       5.987   6.978  16.934  0.00  0.00    +0.000 A 
ATOM      6  C   UNL     1       5.213   5.815  16.958  0.00  0.00    +0.000 A 
ATOM      7  C   UNL     1       5.598   4.706  17.724  0.00  0.00    +0.000 A 
ATOM      8  C   UNL     1       6.689   4.853  18.586  0.00  0.00    +0.000 A 
ATOM      9  C   UNL     1       7.463   6.019  18.569  0.00  0.00    +0.000 A 
ENDBRANCH   1   7
BRANCH   1  10
ATOM     10  C   UNL     1       4.192   3.146  18.979  0.00  0.00    +0.000 C 
ATOM     11  C   UNL     1       3.099   4.170  19.301  0.00  0.00    +0.000 C 
ATOM     12  S   UNL     1       1.593   3.526  18.601  0.00  0.00    +0.000 S 
ATOM     13  O   UNL     1       0.673   3.272  19.695  0.00  0.00    +0.000 OA
ATOM     14  O   UNL     1       1.212   4.306  17.448  0.00  0.00    +0.000 OA
ATOM     15  C   UNL     1       2.232   1.964  18.054  0.00  0.00    +0.000 C 
ATOM     16  C   UNL     1       3.484   1.773  18.889  0.00  0.00    +0.000 C 
BRANCH  16  17
ATOM     17  O   UNL     1       4.333   0.758  18.363  0.00  0.00    +0.000 OA
ATOM     18  H   UNL     1       3.789  -0.026  18.172  0.00  0.00    +0.000 HD
ENDBRANCH  16  17
ENDBRANCH   1  10
TORSDOF 3
ENDMDL
MODEL 3
REMARK VINA RESULT:      -6.9      3.475      5.886
REMARK  Name = 
REMARK  4 active torsions:
REMARK  status: ('A' for Active; 'I' for Inactive)
REMARK    1  A    between atoms: C_1  and  C_2
REMARK    2  A    between atoms: C_5  and  N_6
REMARK    3  A    between atoms: N_6  and  C_7
REMARK    4  A    between atoms: C_13  and  O_14
REMARK                            x       y       z     vdW  Elec       q    Type
REMARK                         _______ _______ _______ _____ _____    ______ ____
ROOT
ATOM      1  N   UNL     1       4.979   3.253  16.837  0.00  0.00    +0.000 N 
ATOM      2  H   UNL     1       4.832   2.505  16.154  0.00  0.00    +0.000 HD
ENDROOT
BRANCH   1   7
ATOM      3  C   UNL     1       1.025   3.013  20.988  0.00  0.00    +0.000 C 
ATOM      4  C   UNL     1       2.033   2.984  19.878  0.00  0.00    +0.000 A 
ATOM      5  C   UNL     1       1.638   3.141  18.548  0.00  0.00    +0.000 A 
ATOM      6  C   UNL     1       2.592   3.184  17.527  0.00  0.00    +0.000 A 
ATOM      7  C   UNL     1       3.963   3.122  17.816  0.00  0.00    +0.000 A 
ATOM      8  C   UNL     1       4.343   2.855  19.134  0.00  0.00    +0.000 A 
ATOM      9  C   UNL     1       3.391   2.804  20.158  0.00  0.00    +0.000 A 
ENDBRANCH   1   7
BRANCH   1  10
ATOM     10  C   UNL     1       5.034   4.573  16.161  0.00  0.00    +0.000 C 
ATOM     11  C   UNL     1       5.254   5.719  17.153  0.00  0.00    +0.000 C 
ATOM     12  S   UNL     1       7.013   5.987  17.220  0.00  0.00    +0.000 S 
ATOM     13  O   UNL     1       7.274   7.325  16.721  0.00  0.00    +0.000 OA
ATOM     14  O   UNL     1       7.534   5.529  18.485  0.00  0.00    +0.000 OA
ATOM     15  C   UNL     1       7.479   4.834  15.954  0.00  0.00    +0.000 C 
ATOM     16  C   UNL     1       6.206   4.642  15.153  0.00  0.00    +0.000 C 
BRANCH  16  17
ATOM     17  O   UNL     1       6.266   3.495  14.311  0.00  0.00    +0.000 OA
ATOM     18  H   UNL     1       5.523   3.540  13.682  0.00  0.00    +0.000 HD
ENDBRANCH  16  17
ENDBRANCH   1  10
TORSDOF 3
ENDMDL
MODEL 4
REMARK VINA RESULT:      -6.9      3.029      5.625
REMARK  Name = 
REMARK  4 active torsions:
REMARK  status: ('A' for Active; 'I' for Inactive)
REMARK    1  A    between atoms: C_1  and  C_2
REMARK    2  A    between atoms: C_5  and  N_6
REMARK    3  A    between atoms: N_6  and  C_7
REMARK    4  A    between atoms: C_13  and  O_14
REMARK                            x       y       z     vdW  Elec       q    Type
REMARK                         _______ _______ _______ _____ _____    ______ ____
ROOT
ATOM      1  N   UNL     1       5.394   5.235  19.211  0.00  0.00    +0.000 N 
ATOM      2  H   UNL     1       5.681   5.329  20.189  0.00  0.00    +0.000 HD
ENDROOT
BRANCH   1   7
ATOM      3  C   UNL     1       0.496   2.273  18.814  0.00  0.00    +0.000 C 
ATOM      4  C   UNL     1       1.758   3.057  19.014  0.00  0.00    +0.000 A 
ATOM      5  C   UNL     1       2.885   2.467  19.588  0.00  0.00    +0.000 A 
ATOM      6  C   UNL     1       4.079   3.184  19.704  0.00  0.00    +0.000 A 
ATOM      7  C   UNL     1       4.189   4.490  19.206  0.00  0.00    +0.000 A 
ATOM      8  C   UNL     1       3.028   5.110  18.735  0.00  0.00    +0.000 A 
ATOM      9  C   UNL     1       1.830   4.398  18.623  0.00  0.00    +0.000 A 
ENDBRANCH   1   7
BRANCH   1  10
ATOM     10  C   UNL     1       6.493   4.656  18.400  0.00  0.00    +0.000 C 
ATOM     11  C   UNL     1       6.078   4.436  16.941  0.00  0.00    +0.000 C 
ATOM     12  S   UNL     1       6.566   5.903  16.059  0.00  0.00    +0.000 S 
ATOM     13  O   UNL     1       7.566   5.515  15.080  0.00  0.00    +0.000 OA
ATOM     14  O   UNL     1       5.400   6.671  15.695  0.00  0.00    +0.000 OA
ATOM     15  C   UNL     1       7.400   6.720  17.394  0.00  0.00    +0.000 C 
ATOM     16  C   UNL     1       7.721   5.597  18.361  0.00  0.00    +0.000 C 
BRANCH  16  17
ATOM     17  O   UNL     1       8.074   6.081  19.653  0.00  0.00    +0.000 OA
ATOM     18  H   UNL     1       8.272   7.032  19.579  0.00  0.00    +0.000 HD
ENDBRANCH  16  17
ENDBRANCH   1  10
TORSDOF 3
ENDMDL
MODEL 5
REMARK VINA RESULT:      -6.9      3.259      5.780
REMARK  Name = 
REMARK  4 active torsions:
REMARK  status: ('A' for Active; 'I' for Inactive)
REMARK    1  A    between atoms: C_1  and  C_2
REMARK    2  A    between atoms: C_5  and  N_6
REMARK    3  A    between atoms: N_6  and  C_7
REMARK    4  A    between atoms: C_13  and  O_14
REMARK                            x       y       z     vdW  Elec       q    Type
REMARK                         _______ _______ _______ _____ _____    ______ ____
ROOT
ATOM      1  N   UNL     1       4.427   3.605  16.754  0.00  0.00    +0.000 N 
ATOM      2  H   UNL     1       3.871   3.155  16.022  0.00  0.00    +0.000 HD
ENDROOT
BRANCH   1   7
ATOM      3  C   UNL     1       1.267   2.786  21.473  0.00  0.00    +0.000 C 
ATOM      4  C   UNL     1       2.136   3.076  20.285  0.00  0.00    +0.000 A 
ATOM      5  C   UNL     1       3.482   2.708  20.276  0.00  0.00    +0.000 A 
ATOM      6  C   UNL     1       4.265   2.918  19.137  0.00  0.00    +0.000 A 
ATOM      7  C   UNL     1       3.710   3.454  17.966  0.00  0.00    +0.000 A 
ATOM      8  C   UNL     1       2.393   3.920  18.021  0.00  0.00    +0.000 A 
ATOM      9  C   UNL     1       1.608   3.718  19.161  0.00  0.00    +0.000 A 
ENDBRANCH   1   7
BRANCH   1  10
ATOM     10  C   UNL     1       4.742   5.006  16.382  0.00  0.00    +0.000 C 
ATOM     11  C   UNL     1       5.456   5.756  17.512  0.00  0.00    +0.000 C 
ATOM     12  S   UNL     1       7.200   5.570  17.207  0.00  0.00    +0.000 S 
ATOM     13  O   UNL     1       7.746   6.893  16.956  0.00  0.00    +0.000 OA
ATOM     14  O   UNL     1       7.780   4.678  18.181  0.00  0.00    +0.000 OA
ATOM     15  C   UNL     1       7.083   4.727  15.650  0.00  0.00    +0.000 C 
ATOM     16  C   UNL     1       5.688   5.066  15.159  0.00  0.00    +0.000 C 
BRANCH  16  17
ATOM     17  O   UNL     1       5.265   4.210  14.103  0.00  0.00    +0.000 OA
ATOM     18  H   UNL     1       5.211   4.737  13.287  0.00  0.00    +0.000 HD
ENDBRANCH  16  17
ENDBRANCH   1  10
TORSDOF 3
ENDMDL
MODEL 6
REMARK VINA RESULT:      -6.8      3.054      5.722
REMARK  Name = 
REMARK  4 active torsions:
REMARK  status: ('A' for Active; 'I' for Inactive)
REMARK    1  A    between atoms: C_1  and  C_2
REMARK    2  A    between atoms: C_5  and  N_6
REMARK    3  A    between atoms: N_6  and  C_7
REMARK    4  A    between atoms: C_13  and  O_14
REMARK                            x       y       z     vdW  Elec       q    Type
REMARK                         _______ _______ _______ _____ _____    ______ ____
ROOT
ATOM      1  N   UNL     1       5.419   5.194  19.189  0.00  0.00    +0.000 N 
ATOM      2  H   UNL     1       5.641   5.170  20.188  0.00  0.00    +0.000 HD
ENDROOT
BRANCH   1   7
ATOM      3  C   UNL     1       0.434   2.368  18.895  0.00  0.00    +0.000 C 
ATOM      4  C   UNL     1       1.752   3.083  18.877  0.00  0.00    +0.000 A 
ATOM      5  C   UNL     1       1.877   4.339  18.282  0.00  0.00    +0.000 A 
ATOM      6  C   UNL     1       3.091   5.029  18.334  0.00  0.00    +0.000 A 
ATOM      7  C   UNL     1       4.193   4.504  19.023  0.00  0.00    +0.000 A 
ATOM      8  C   UNL     1       4.093   3.201  19.520  0.00  0.00    +0.000 A 
ATOM      9  C   UNL     1       2.881   2.504  19.465  0.00  0.00    +0.000 A 
ENDBRANCH   1   7
BRANCH   1  10
ATOM     10  C   UNL     1       6.551   4.663  18.390  0.00  0.00    +0.000 C 
ATOM     11  C   UNL     1       6.164   4.433  16.925  0.00  0.00    +0.000 C 
ATOM     12  S   UNL     1       6.605   5.922  16.055  0.00  0.00    +0.000 S 
ATOM     13  O   UNL     1       7.633   5.580  15.088  0.00  0.00    +0.000 OA
ATOM     14  O   UNL     1       5.414   6.645  15.678  0.00  0.00    +0.000 OA
ATOM     15  C   UNL     1       7.388   6.766  17.405  0.00  0.00    +0.000 C 
ATOM     16  C   UNL     1       7.741   5.653  18.372  0.00  0.00    +0.000 C 
BRANCH  16  17
ATOM     17  O   UNL     1       8.057   6.144  19.670  0.00  0.00    +0.000 OA
ATOM     18  H   UNL     1       8.385   7.057  19.579  0.00  0.00    +0.000 HD
ENDBRANCH  16  17
ENDBRANCH   1  10
TORSDOF 3
ENDMDL
MODEL 7
REMARK VINA RESULT:      -6.7      2.113      3.135
REMARK  Name = 
REMARK  4 active torsions:
REMARK  status: ('A' for Active; 'I' for Inactive)
REMARK    1  A    between atoms: C_1  and  C_2
REMARK    2  A    between atoms: C_5  and  N_6
REMARK    3  A    between atoms: N_6  and  C_7
REMARK    4  A    between atoms: C_13  and  O_14
REMARK                            x       y       z     vdW  Elec       q    Type
REMARK                         _______ _______ _______ _____ _____    ______ ____
ROOT
ATOM      1  N   UNL     1       2.547   3.497  17.592  0.00  0.00    +0.000 N 
ATOM      2  H   UNL     1       2.380   2.999  16.714  0.00  0.00    +0.000 HD
ENDROOT
BRANCH   1   7
ATOM      3  C   UNL     1       7.158   6.884  17.152  0.00  0.00    +0.000 C 
ATOM      4  C   UNL     1       5.943   6.005  17.169  0.00  0.00    +0.000 A 
ATOM      5  C   UNL     1       6.023   4.665  16.785  0.00  0.00    +0.000 A 
ATOM      6  C   UNL     1       4.902   3.836  16.873  0.00  0.00    +0.000 A 
ATOM      7  C   UNL     1       3.690   4.311  17.393  0.00  0.00    +0.000 A 
ATOM      8  C   UNL     1       3.588   5.677  17.671  0.00  0.00    +0.000 A 
ATOM      9  C   UNL     1       4.706   6.513  17.578  0.00  0.00    +0.000 A 
ENDBRANCH   1   7
BRANCH   1  10
ATOM     10  C   UNL     1       2.646   2.542  18.723  0.00  0.00    +0.000 C 
ATOM     11  C   UNL     1       3.418   3.131  19.909  0.00  0.00    +0.000 C 
ATOM     12  S   UNL     1       2.198   3.855  20.985  0.00  0.00    +0.000 S 
ATOM     13  O   UNL     1       2.237   3.132  22.244  0.00  0.00    +0.000 OA
ATOM     14  O   UNL     1       2.282   5.294  20.928  0.00  0.00    +0.000 OA
ATOM     15  C   UNL     1       0.754   3.327  20.099  0.00  0.00    +0.000 C 
ATOM     16  C   UNL     1       1.247   2.162  19.264  0.00  0.00    +0.000 C 
BRANCH  16  17
ATOM     17  O   UNL     1       0.338   1.820  18.223  0.00  0.00    +0.000 OA
ATOM     18  H   UNL     1      -0.325   1.207  18.587  0.00  0.00    +0.000 HD
ENDBRANCH  16  17
ENDBRANCH   1  10
TORSDOF 3
ENDMDL
MODEL 8
REMARK VINA RESULT:      -6.7      3.348      6.005
REMARK  Name = 
REMARK  4 active torsions:
REMARK  status: ('A' for Active; 'I' for Inactive)
REMARK    1  A    between atoms: C_1  and  C_2
REMARK    2  A    between atoms: C_5  and  N_6
REMARK    3  A    between atoms: N_6  and  C_7
REMARK    4  A    between atoms: C_13  and  O_14
REMARK                            x       y       z     vdW  Elec       q    Type
REMARK                         _______ _______ _______ _____ _____    ______ ____
ROOT
ATOM      1  N   UNL     1       3.911   3.959  16.845  0.00  0.00    +0.000 N 
ATOM      2  H   UNL     1       3.302   4.615  16.349  0.00  0.00    +0.000 HD
ENDROOT
BRANCH   1   7
ATOM      3  C   UNL     1       1.321   2.607  21.784  0.00  0.00    +0.000 C 
ATOM      4  C   UNL     1       1.966   2.874  20.457  0.00  0.00    +0.000 A 
ATOM      5  C   UNL     1       1.205   3.276  19.358  0.00  0.00    +0.000 A 
ATOM      6  C   UNL     1       1.824   3.592  18.146  0.00  0.00    +0.000 A 
ATOM      7  C   UNL     1       3.220   3.562  18.017  0.00  0.00    +0.000 A 
ATOM      8  C   UNL     1       3.965   3.054  19.086  0.00  0.00    +0.000 A 
ATOM      9  C   UNL     1       3.348   2.730  20.299  0.00  0.00    +0.000 A 
ENDBRANCH   1   7
BRANCH   1  10
ATOM     10  C   UNL     1       5.246   4.562  17.077  0.00  0.00    +0.000 C 
ATOM     11  C   UNL     1       6.337   3.886  16.239  0.00  0.00    +0.000 C 
ATOM     12  S   UNL     1       6.471   4.836  14.739  0.00  0.00    +0.000 S 
ATOM     13  O   UNL     1       7.803   5.412  14.700  0.00  0.00    +0.000 OA
ATOM     14  O   UNL     1       5.930   4.088  13.630  0.00  0.00    +0.000 OA
ATOM     15  C   UNL     1       5.334   6.128  15.172  0.00  0.00    +0.000 C 
ATOM     16  C   UNL     1       5.265   6.058  16.685  0.00  0.00    +0.000 C 
BRANCH  16  17
ATOM     17  O   UNL     1       4.149   6.770  17.209  0.00  0.00    +0.000 OA
ATOM     18  H   UNL     1       3.573   7.023  16.465  0.00  0.00    +0.000 HD
ENDBRANCH  16  17
ENDBRANCH   1  10
TORSDOF 3
ENDMDL
MODEL 9
REMARK VINA RESULT:      -6.7      1.554      1.850
REMARK  Name = 
REMARK  4 active torsions:
REMARK  status: ('A' for Active; 'I' for Inactive)
REMARK    1  A    between atoms: C_1  and  C_2
REMARK    2  A    between atoms: C_5  and  N_6
REMARK    3  A    between atoms: N_6  and  C_7
REMARK    4  A    between atoms: C_13  and  O_14
REMARK                            x       y       z     vdW  Elec       q    Type
REMARK                         _______ _______ _______ _____ _____    ______ ____
ROOT
ATOM      1  N   UNL     1       3.891   3.941  18.145  0.00  0.00    +0.000 N 
ATOM      2  H   UNL     1       3.893   3.322  17.330  0.00  0.00    +0.000 HD
ENDROOT
BRANCH   1   7
ATOM      3  C   UNL     1       7.863   8.034  17.520  0.00  0.00    +0.000 C 
ATOM      4  C   UNL     1       6.870   6.914  17.611  0.00  0.00    +0.000 A 
ATOM      5  C   UNL     1       7.199   5.714  18.244  0.00  0.00    +0.000 A 
ATOM      6  C   UNL     1       6.243   4.704  18.387  0.00  0.00    +0.000 A 
ATOM      7  C   UNL     1       4.925   4.888  17.947  0.00  0.00    +0.000 A 
ATOM      8  C   UNL     1       4.634   6.045  17.218  0.00  0.00    +0.000 A 
ATOM      9  C   UNL     1       5.590   7.056  17.067  0.00  0.00    +0.000 A 
ENDBRANCH   1   7
BRANCH   1  10
ATOM     10  C   UNL     1       3.993   3.152  19.398  0.00  0.00    +0.000 C 
ATOM     11  C   UNL     1       3.296   3.845  20.573  0.00  0.00    +0.000 C 
ATOM     12  S   UNL     1       1.640   3.193  20.622  0.00  0.00    +0.000 S 
ATOM     13  O   UNL     1       1.482   2.484  21.879  0.00  0.00    +0.000 OA
ATOM     14  O   UNL     1       0.700   4.200  20.191  0.00  0.00    +0.000 OA
ATOM     15  C   UNL     1       1.819   1.985  19.335  0.00  0.00    +0.000 C 
ATOM     16  C   UNL     1       3.318   1.768  19.249  0.00  0.00    +0.000 C 
BRANCH  16  17
ATOM     17  O   UNL     1       3.700   1.104  18.049  0.00  0.00    +0.000 OA
ATOM     18  H   UNL     1       3.742   0.148  18.230  0.00  0.00    +0.000 HD
ENDBRANCH  16  17
ENDBRANCH   1  10
TORSDOF 3
ENDMDL
