MODEL 1
REMARK VINA RESULT:      -8.1      0.000      0.000
REMARK  Name = 
REMARK  5 active torsions:
REMARK  status: ('A' for Active; 'I' for Inactive)
REMARK    1  A    between atoms: C_1  and  C_2
REMARK    2  A    between atoms: C_4  and  N_5
REMARK    3  A    between atoms: N_5  and  C_6
REMARK    4  A    between atoms: C_6  and  C_7
REMARK    5  A    between atoms: C_15  and  N_16
REMARK                            x       y       z     vdW  Elec       q    Type
REMARK                         _______ _______ _______ _____ _____    ______ ____
ROOT
ATOM      1  C   UNL     1       7.751   6.867  18.165  0.00  0.00    +0.000 C 
ATOM      2  C   UNL     1       7.122   5.937  17.172  0.00  0.00    +0.000 A 
ATOM      3  C   UNL     1       6.137   5.040  17.551  0.00  0.00    +0.000 A 
ATOM      4  C   UNL     1       5.553   4.196  16.595  0.00  0.00    +0.000 A 
ATOM      5  C   UNL     1       6.062   4.230  15.264  0.00  0.00    +0.000 A 
ATOM      6  C   UNL     1       5.676   3.374  14.199  0.00  0.00    +0.000 A 
ATOM      7  C   UNL     1       6.151   3.499  12.898  0.00  0.00    +0.000 A 
ATOM      8  C   UNL     1       7.159   4.418  12.664  0.00  0.00    +0.000 A 
ATOM      9  C   UNL     1       7.588   5.258  13.696  0.00  0.00    +0.000 A 
ATOM     10  C   UNL     1       7.062   5.185  14.982  0.00  0.00    +0.000 A 
ATOM     11  N   UNL     1       7.570   6.020  15.902  0.00  0.00    +0.000 NA
ENDROOT
BRANCH   7  12
ATOM     12  N   UNL     1       5.785   2.553  11.932  0.00  0.00    +0.000 N 
ATOM     13  H   UNL     1       5.193   2.930  11.198  0.00  0.00    +0.000 HD
ATOM     14  H   UNL     1       6.564   2.029  11.553  0.00  0.00    +0.000 HD
ENDBRANCH   7  12
BRANCH   4  15
ATOM     15  N   UNL     1       4.574   3.316  17.104  0.00  0.00    +0.000 N 
ATOM     16  H   UNL     1       4.633   2.419  16.622  0.00  0.00    +0.000 HD
BRANCH  15  17
ATOM     17  C   UNL     1       3.187   3.739  17.233  0.00  0.00    +0.000 C 
BRANCH  17  18
ATOM     18  C   UNL     1       2.647   3.446  18.607  0.00  0.00    +0.000 A 
ATOM     19  C   UNL     1       3.486   2.956  19.612  0.00  0.00    +0.000 A 
ATOM     20  C   UNL     1       2.992   2.743  20.897  0.00  0.00    +0.000 A 
ATOM     21  C   UNL     1       1.657   3.026  21.190  0.00  0.00    +0.000 A 
ATOM     22  C   UNL     1       0.815   3.526  20.198  0.00  0.00    +0.000 A 
ATOM     23  C   UNL     1       1.307   3.739  18.912  0.00  0.00    +0.000 A 
ENDBRANCH  17  18
ENDBRANCH  15  17
ENDBRANCH   4  15
TORSDOF 4
ENDMDL
MODEL 2
REMARK VINA RESULT:      -8.0      2.482      4.654
REMARK  Name = 
REMARK  5 active torsions:
REMARK  status: ('A' for Active; 'I' for Inactive)
REMARK    1  A    between atoms: C_1  and  C_2
REMARK    2  A    between atoms: C_4  and  N_5
REMARK    3  A    between atoms: N_5  and  C_6
REMARK    4  A    between atoms: C_6  and  C_7
REMARK    5  A    between atoms: C_15  and  N_16
REMARK                            x       y       z     vdW  Elec       q    Type
REMARK                         _______ _______ _______ _____ _____    ______ ____
ROOT
ATOM      1  C   UNL     1       6.414   5.058  14.835  0.00  0.00    +0.000 C 
ATOM      2  C   UNL     1       5.682   5.224  16.132  0.00  0.00    +0.000 A 
ATOM      3  C   UNL     1       5.827   4.308  17.161  0.00  0.00    +0.000 A 
ATOM      4  C   UNL     1       5.142   4.500  18.371  0.00  0.00    +0.000 A 
ATOM      5  C   UNL     1       4.243   5.601  18.469  0.00  0.00    +0.000 A 
ATOM      6  C   UNL     1       3.386   5.884  19.565  0.00  0.00    +0.000 A 
ATOM      7  C   UNL     1       2.580   7.015  19.642  0.00  0.00    +0.000 A 
ATOM      8  C   UNL     1       2.506   7.832  18.527  0.00  0.00    +0.000 A 
ATOM      9  C   UNL     1       3.311   7.567  17.416  0.00  0.00    +0.000 A 
ATOM     10  C   UNL     1       4.174   6.477  17.365  0.00  0.00    +0.000 A 
ATOM     11  N   UNL     1       4.878   6.303  16.236  0.00  0.00    +0.000 NA
ENDROOT
BRANCH   7  12
ATOM     12  N   UNL     1       1.698   7.167  20.720  0.00  0.00    +0.000 N 
ATOM     13  H   UNL     1       1.965   6.632  21.542  0.00  0.00    +0.000 HD
ATOM     14  H   UNL     1       1.494   8.131  20.952  0.00  0.00    +0.000 HD
ENDBRANCH   7  12
BRANCH   4  15
ATOM     15  N   UNL     1       5.357   3.493  19.336  0.00  0.00    +0.000 N 
ATOM     16  H   UNL     1       6.355   3.301  19.416  0.00  0.00    +0.000 HD
BRANCH  15  17
ATOM     17  C   UNL     1       4.596   2.252  19.299  0.00  0.00    +0.000 C 
BRANCH  17  18
ATOM     18  C   UNL     1       3.135   2.495  19.569  0.00  0.00    +0.000 A 
ATOM     19  C   UNL     1       2.188   2.341  18.553  0.00  0.00    +0.000 A 
ATOM     20  C   UNL     1       0.832   2.511  18.826  0.00  0.00    +0.000 A 
ATOM     21  C   UNL     1       0.412   2.827  20.119  0.00  0.00    +0.000 A 
ATOM     22  C   UNL     1       1.348   2.971  21.141  0.00  0.00    +0.000 A 
ATOM     23  C   UNL     1       2.703   2.803  20.870  0.00  0.00    +0.000 A 
ENDBRANCH  17  18
ENDBRANCH  15  17
ENDBRANCH   4  15
TORSDOF 4
ENDMDL
MODEL 3
REMARK VINA RESULT:      -8.0      2.426      4.532
REMARK  Name = 
REMARK  5 active torsions:
REMARK  status: ('A' for Active; 'I' for Inactive)
REMARK    1  A    between atoms: C_1  and  C_2
REMARK    2  A    between atoms: C_4  and  N_5
REMARK    3  A    between atoms: N_5  and  C_6
REMARK    4  A    between atoms: C_6  and  C_7
REMARK    5  A    between atoms: C_15  and  N_16
REMARK                            x       y       z     vdW  Elec       q    Type
REMARK                         _______ _______ _______ _____ _____    ______ ____
ROOT
ATOM      1  C   UNL     1       6.330   4.363  14.782  0.00  0.00    +0.000 C 
ATOM      2  C   UNL     1       5.652   4.705  16.074  0.00  0.00    +0.000 A 
ATOM      3  C   UNL     1       5.783   3.896  17.191  0.00  0.00    +0.000 A 
ATOM      4  C   UNL     1       5.152   4.252  18.392  0.00  0.00    +0.000 A 
ATOM      5  C   UNL     1       4.317   5.407  18.398  0.00  0.00    +0.000 A 
ATOM      6  C   UNL     1       3.515   5.853  19.482  0.00  0.00    +0.000 A 
ATOM      7  C   UNL     1       2.774   7.030  19.461  0.00  0.00    +0.000 A 
ATOM      8  C   UNL     1       2.706   7.728  18.267  0.00  0.00    +0.000 A 
ATOM      9  C   UNL     1       3.458   7.302  17.168  0.00  0.00    +0.000 A 
ATOM     10  C   UNL     1       4.258   6.165  17.210  0.00  0.00    +0.000 A 
ATOM     11  N   UNL     1       4.912   5.834  16.086  0.00  0.00    +0.000 NA
ENDROOT
BRANCH   7  12
ATOM     12  N   UNL     1       1.940   7.344  20.542  0.00  0.00    +0.000 N 
ATOM     13  H   UNL     1       0.950   7.302  20.316  0.00  0.00    +0.000 HD
ATOM     14  H   UNL     1       2.153   6.831  21.388  0.00  0.00    +0.000 HD
ENDBRANCH   7  12
BRANCH   4  15
ATOM     15  N   UNL     1       5.345   3.341  19.453  0.00  0.00    +0.000 N 
ATOM     16  H   UNL     1       6.342   3.165  19.577  0.00  0.00    +0.000 HD
BRANCH  15  17
ATOM     17  C   UNL     1       4.592   2.096  19.512  0.00  0.00    +0.000 C 
BRANCH  17  18
ATOM     18  C   UNL     1       3.125   2.351  19.732  0.00  0.00    +0.000 A 
ATOM     19  C   UNL     1       2.653   2.764  20.982  0.00  0.00    +0.000 A 
ATOM     20  C   UNL     1       1.302   3.054  21.161  0.00  0.00    +0.000 A 
ATOM     21  C   UNL     1       0.414   2.941  20.090  0.00  0.00    +0.000 A 
ATOM     22  C   UNL     1       0.876   2.541  18.838  0.00  0.00    +0.000 A 
ATOM     23  C   UNL     1       2.226   2.250  18.657  0.00  0.00    +0.000 A 
ENDBRANCH  17  18
ENDBRANCH  15  17
ENDBRANCH   4  15
TORSDOF 4
ENDMDL
MODEL 4
REMARK VINA RESULT:      -8.0      0.819      1.033
REMARK  Name = 
REMARK  5 active torsions:
REMARK  status: ('A' for Active; 'I' for Inactive)
REMARK    1  A    between atoms: C_1  and  C_2
REMARK    2  A    between atoms: C_4  and  N_5
REMARK    3  A    between atoms: N_5  and  C_6
REMARK    4  A    between atoms: C_6  and  C_7
REMARK    5  A    between atoms: C_15  and  N_16
REMARK                            x       y       z     vdW  Elec       q    Type
REMARK                         _______ _______ _______ _____ _____    ______ ____
ROOT
ATOM      1  C   UNL     1       7.771   6.726  18.393  0.00  0.00    +0.000 C 
ATOM      2  C   UNL     1       7.139   5.826  17.374  0.00  0.00    +0.000 A 
ATOM      3  C   UNL     1       6.164   4.909  17.730  0.00  0.00    +0.000 A 
ATOM      4  C   UNL     1       5.578   4.094  16.751  0.00  0.00    +0.000 A 
ATOM      5  C   UNL     1       6.073   4.179  15.418  0.00  0.00    +0.000 A 
ATOM      6  C   UNL     1       5.683   3.357  14.328  0.00  0.00    +0.000 A 
ATOM      7  C   UNL     1       6.145   3.531  13.027  0.00  0.00    +0.000 A 
ATOM      8  C   UNL     1       7.144   4.466  12.816  0.00  0.00    +0.000 A 
ATOM      9  C   UNL     1       7.576   5.272  13.873  0.00  0.00    +0.000 A 
ATOM     10  C   UNL     1       7.064   5.150  15.159  0.00  0.00    +0.000 A 
ATOM     11  N   UNL     1       7.574   5.957  16.103  0.00  0.00    +0.000 NA
ENDROOT
BRANCH   7  12
ATOM     12  N   UNL     1       5.776   2.616  12.032  0.00  0.00    +0.000 N 
ATOM     13  H   UNL     1       5.122   1.908  12.353  0.00  0.00    +0.000 HD
ATOM     14  H   UNL     1       5.467   3.048  11.170  0.00  0.00    +0.000 HD
ENDBRANCH   7  12
BRANCH   4  15
ATOM     15  N   UNL     1       4.610   3.189  17.239  0.00  0.00    +0.000 N 
ATOM     16  H   UNL     1       4.894   2.234  17.024  0.00  0.00    +0.000 HD
BRANCH  15  17
ATOM     17  C   UNL     1       3.196   3.382  16.949  0.00  0.00    +0.000 C 
BRANCH  17  18
ATOM     18  C   UNL     1       2.425   3.747  18.189  0.00  0.00    +0.000 A 
ATOM     19  C   UNL     1       1.558   2.826  18.785  0.00  0.00    +0.000 A 
ATOM     20  C   UNL     1       0.893   3.151  19.966  0.00  0.00    +0.000 A 
ATOM     21  C   UNL     1       1.095   4.396  20.563  0.00  0.00    +0.000 A 
ATOM     22  C   UNL     1       1.966   5.316  19.984  0.00  0.00    +0.000 A 
ATOM     23  C   UNL     1       2.631   4.994  18.803  0.00  0.00    +0.000 A 
ENDBRANCH  17  18
ENDBRANCH  15  17
ENDBRANCH   4  15
TORSDOF 4
ENDMDL
MODEL 5
REMARK VINA RESULT:      -8.0      0.576      1.199
REMARK  Name = 
REMARK  5 active torsions:
REMARK  status: ('A' for Active; 'I' for Inactive)
REMARK    1  A    between atoms: C_1  and  C_2
REMARK    2  A    between atoms: C_4  and  N_5
REMARK    3  A    between atoms: N_5  and  C_6
REMARK    4  A    between atoms: C_6  and  C_7
REMARK    5  A    between atoms: C_15  and  N_16
REMARK                            x       y       z     vdW  Elec       q    Type
REMARK                         _______ _______ _______ _____ _____    ______ ____
ROOT
ATOM      1  C   UNL     1       7.634   6.460  18.315  0.00  0.00    +0.000 C 
ATOM      2  C   UNL     1       6.900   5.727  17.234  0.00  0.00    +0.000 A 
ATOM      3  C   UNL     1       5.691   5.099  17.484  0.00  0.00    +0.000 A 
ATOM      4  C   UNL     1       5.018   4.436  16.446  0.00  0.00    +0.000 A 
ATOM      5  C   UNL     1       5.652   4.358  15.173  0.00  0.00    +0.000 A 
ATOM      6  C   UNL     1       5.177   3.637  14.046  0.00  0.00    +0.000 A 
ATOM      7  C   UNL     1       5.799   3.654  12.801  0.00  0.00    +0.000 A 
ATOM      8  C   UNL     1       7.021   4.297  12.698  0.00  0.00    +0.000 A 
ATOM      9  C   UNL     1       7.535   4.992  13.797  0.00  0.00    +0.000 A 
ATOM     10  C   UNL     1       6.880   5.037  15.022  0.00  0.00    +0.000 A 
ATOM     11  N   UNL     1       7.481   5.711  16.016  0.00  0.00    +0.000 NA
ENDROOT
BRANCH   7  12
ATOM     12  N   UNL     1       5.311   2.839  11.771  0.00  0.00    +0.000 N 
ATOM     13  H   UNL     1       5.567   1.861  11.872  0.00  0.00    +0.000 HD
ATOM     14  H   UNL     1       4.321   2.950  11.593  0.00  0.00    +0.000 HD
ENDBRANCH   7  12
BRANCH   4  15
ATOM     15  N   UNL     1       3.805   3.821  16.828  0.00  0.00    +0.000 N 
ATOM     16  H   UNL     1       3.152   4.529  17.163  0.00  0.00    +0.000 HD
BRANCH  15  17
ATOM     17  C   UNL     1       3.803   2.661  17.708  0.00  0.00    +0.000 C 
BRANCH  17  18
ATOM     18  C   UNL     1       2.954   2.899  18.928  0.00  0.00    +0.000 A 
ATOM     19  C   UNL     1       1.638   3.352  18.804  0.00  0.00    +0.000 A 
ATOM     20  C   UNL     1       0.841   3.513  19.935  0.00  0.00    +0.000 A 
ATOM     21  C   UNL     1       1.351   3.215  21.200  0.00  0.00    +0.000 A 
ATOM     22  C   UNL     1       2.659   2.751  21.334  0.00  0.00    +0.000 A 
ATOM     23  C   UNL     1       3.457   2.591  20.204  0.00  0.00    +0.000 A 
ENDBRANCH  17  18
ENDBRANCH  15  17
ENDBRANCH   4  15
TORSDOF 4
ENDMDL
MODEL 6
REMARK VINA RESULT:      -7.6      3.014      6.758
REMARK  Name = 
REMARK  5 active torsions:
REMARK  status: ('A' for Active; 'I' for Inactive)
REMARK    1  A    between atoms: C_1  and  C_2
REMARK    2  A    between atoms: C_4  and  N_5
REMARK    3  A    between atoms: N_5  and  C_6
REMARK    4  A    between atoms: C_6  and  C_7
REMARK    5  A    between atoms: C_15  and  N_16
REMARK                            x       y       z     vdW  Elec       q    Type
REMARK                         _______ _______ _______ _____ _____    ______ ____
ROOT
ATOM      1  C   UNL     1       2.435   2.826  21.553  0.00  0.00    +0.000 C 
ATOM      2  C   UNL     1       2.461   3.962  20.576  0.00  0.00    +0.000 A 
ATOM      3  C   UNL     1       2.983   3.802  19.302  0.00  0.00    +0.000 A 
ATOM      4  C   UNL     1       2.977   4.879  18.403  0.00  0.00    +0.000 A 
ATOM      5  C   UNL     1       2.506   6.142  18.866  0.00  0.00    +0.000 A 
ATOM      6  C   UNL     1       2.531   7.360  18.138  0.00  0.00    +0.000 A 
ATOM      7  C   UNL     1       1.990   8.552  18.610  0.00  0.00    +0.000 A 
ATOM      8  C   UNL     1       1.528   8.579  19.915  0.00  0.00    +0.000 A 
ATOM      9  C   UNL     1       1.516   7.405  20.673  0.00  0.00    +0.000 A 
ATOM     10  C   UNL     1       1.990   6.195  20.178  0.00  0.00    +0.000 A 
ATOM     11  N   UNL     1       1.957   5.138  21.005  0.00  0.00    +0.000 NA
ENDROOT
BRANCH   7  12
ATOM     12  N   UNL     1       2.142   9.727  17.862  0.00  0.00    +0.000 N 
ATOM     13  H   UNL     1       1.418  10.417  18.038  0.00  0.00    +0.000 HD
ATOM     14  H   UNL     1       3.068  10.133  17.918  0.00  0.00    +0.000 HD
ENDBRANCH   7  12
BRANCH   4  15
ATOM     15  N   UNL     1       3.550   4.598  17.143  0.00  0.00    +0.000 N 
ATOM     16  H   UNL     1       2.899   4.047  16.585  0.00  0.00    +0.000 HD
BRANCH  15  17
ATOM     17  C   UNL     1       4.899   4.060  17.042  0.00  0.00    +0.000 C 
BRANCH  17  18
ATOM     18  C   UNL     1       5.931   5.089  17.417  0.00  0.00    +0.000 A 
ATOM     19  C   UNL     1       5.950   6.339  16.793  0.00  0.00    +0.000 A 
ATOM     20  C   UNL     1       6.873   7.307  17.187  0.00  0.00    +0.000 A 
ATOM     21  C   UNL     1       7.778   7.033  18.214  0.00  0.00    +0.000 A 
ATOM     22  C   UNL     1       7.759   5.794  18.851  0.00  0.00    +0.000 A 
ATOM     23  C   UNL     1       6.839   4.826  18.457  0.00  0.00    +0.000 A 
ENDBRANCH  17  18
ENDBRANCH  15  17
ENDBRANCH   4  15
TORSDOF 4
ENDMDL
MODEL 7
REMARK VINA RESULT:      -7.6      3.701      5.848
REMARK  Name = 
REMARK  5 active torsions:
REMARK  status: ('A' for Active; 'I' for Inactive)
REMARK    1  A    between atoms: C_1  and  C_2
REMARK    2  A    between atoms: C_4  and  N_5
REMARK    3  A    between atoms: N_5  and  C_6
REMARK    4  A    between atoms: C_6  and  C_7
REMARK    5  A    between atoms: C_15  and  N_16
REMARK                            x       y       z     vdW  Elec       q    Type
REMARK                         _______ _______ _______ _____ _____    ______ ____
ROOT
ATOM      1  C   UNL     1       6.287   4.509  15.152  0.00  0.00    +0.000 C 
ATOM      2  C   UNL     1       5.168   4.634  16.140  0.00  0.00    +0.000 A 
ATOM      3  C   UNL     1       4.856   5.852  16.722  0.00  0.00    +0.000 A 
ATOM      4  C   UNL     1       3.790   5.943  17.630  0.00  0.00    +0.000 A 
ATOM      5  C   UNL     1       3.109   4.744  17.992  0.00  0.00    +0.000 A 
ATOM      6  C   UNL     1       2.089   4.626  18.973  0.00  0.00    +0.000 A 
ATOM      7  C   UNL     1       1.404   3.444  19.235  0.00  0.00    +0.000 A 
ATOM      8  C   UNL     1       1.840   2.292  18.603  0.00  0.00    +0.000 A 
ATOM      9  C   UNL     1       2.863   2.364  17.654  0.00  0.00    +0.000 A 
ATOM     10  C   UNL     1       3.501   3.558  17.336  0.00  0.00    +0.000 A 
ATOM     11  N   UNL     1       4.490   3.504  16.430  0.00  0.00    +0.000 NA
ENDROOT
BRANCH   7  12
ATOM     12  N   UNL     1       0.477   3.398  20.284  0.00  0.00    +0.000 N 
ATOM     13  H   UNL     1      -0.312   4.025  20.156  0.00  0.00    +0.000 HD
ATOM     14  H   UNL     1       0.177   2.462  20.527  0.00  0.00    +0.000 HD
ENDBRANCH   7  12
BRANCH   4  15
ATOM     15  N   UNL     1       3.582   7.231  18.168  0.00  0.00    +0.000 N 
ATOM     16  H   UNL     1       3.481   7.168  19.181  0.00  0.00    +0.000 HD
BRANCH  15  17
ATOM     17  C   UNL     1       2.574   8.119  17.606  0.00  0.00    +0.000 C 
BRANCH  17  18
ATOM     18  C   UNL     1       1.700   8.709  18.680  0.00  0.00    +0.000 A 
ATOM     19  C   UNL     1       0.796   9.732  18.381  0.00  0.00    +0.000 A 
ATOM     20  C   UNL     1      -0.050  10.232  19.369  0.00  0.00    +0.000 A 
ATOM     21  C   UNL     1      -0.004   9.708  20.662  0.00  0.00    +0.000 A 
ATOM     22  C   UNL     1       0.886   8.681  20.968  0.00  0.00    +0.000 A 
ATOM     23  C   UNL     1       1.733   8.180  19.982  0.00  0.00    +0.000 A 
ENDBRANCH  17  18
ENDBRANCH  15  17
ENDBRANCH   4  15
TORSDOF 4
ENDMDL
MODEL 8
REMARK VINA RESULT:      -7.6      2.919      4.619
REMARK  Name = 
REMARK  5 active torsions:
REMARK  status: ('A' for Active; 'I' for Inactive)
REMARK    1  A    between atoms: C_1  and  C_2
REMARK    2  A    between atoms: C_4  and  N_5
REMARK    3  A    between atoms: N_5  and  C_6
REMARK    4  A    between atoms: C_6  and  C_7
REMARK    5  A    between atoms: C_15  and  N_16
REMARK                            x       y       z     vdW  Elec       q    Type
REMARK                         _______ _______ _______ _____ _____    ______ ____
ROOT
ATOM      1  C   UNL     1       1.165   9.261  17.896  0.00  0.00    +0.000 C 
ATOM      2  C   UNL     1       2.133   8.166  18.231  0.00  0.00    +0.000 A 
ATOM      3  C   UNL     1       1.971   7.386  19.364  0.00  0.00    +0.000 A 
ATOM      4  C   UNL     1       2.882   6.356  19.641  0.00  0.00    +0.000 A 
ATOM      5  C   UNL     1       4.007   6.200  18.780  0.00  0.00    +0.000 A 
ATOM      6  C   UNL     1       5.083   5.294  18.967  0.00  0.00    +0.000 A 
ATOM      7  C   UNL     1       6.122   5.131  18.056  0.00  0.00    +0.000 A 
ATOM      8  C   UNL     1       6.178   5.999  16.980  0.00  0.00    +0.000 A 
ATOM      9  C   UNL     1       5.152   6.927  16.780  0.00  0.00    +0.000 A 
ATOM     10  C   UNL     1       4.074   7.043  17.650  0.00  0.00    +0.000 A 
ATOM     11  N   UNL     1       3.161   7.988  17.376  0.00  0.00    +0.000 NA
ENDROOT
BRANCH   7  12
ATOM     12  N   UNL     1       7.189   4.279  18.367  0.00  0.00    +0.000 N 
ATOM     13  H   UNL     1       6.923   3.488  18.946  0.00  0.00    +0.000 HD
ATOM     14  H   UNL     1       7.732   3.989  17.562  0.00  0.00    +0.000 HD
ENDBRANCH   7  12
BRANCH   4  15
ATOM     15  N   UNL     1       2.621   5.642  20.831  0.00  0.00    +0.000 N 
ATOM     16  H   UNL     1       3.498   5.452  21.316  0.00  0.00    +0.000 HD
BRANCH  15  17
ATOM     17  C   UNL     1       1.773   4.459  20.820  0.00  0.00    +0.000 C 
BRANCH  17  18
ATOM     18  C   UNL     1       2.321   3.398  19.905  0.00  0.00    +0.000 A 
ATOM     19  C   UNL     1       1.752   3.177  18.647  0.00  0.00    +0.000 A 
ATOM     20  C   UNL     1       2.303   2.233  17.783  0.00  0.00    +0.000 A 
ATOM     21  C   UNL     1       3.432   1.507  18.166  0.00  0.00    +0.000 A 
ATOM     22  C   UNL     1       4.014   1.728  19.413  0.00  0.00    +0.000 A 
ATOM     23  C   UNL     1       3.464   2.671  20.279  0.00  0.00    +0.000 A 
ENDBRANCH  17  18
ENDBRANCH  15  17
ENDBRANCH   4  15
TORSDOF 4
ENDMDL
MODEL 9
REMARK VINA RESULT:      -7.5      2.924      6.614
REMARK  Name = 
REMARK  5 active torsions:
REMARK  status: ('A' for Active; 'I' for Inactive)
REMARK    1  A    between atoms: C_1  and  C_2
REMARK    2  A    between atoms: C_4  and  N_5
REMARK    3  A    between atoms: N_5  and  C_6
REMARK    4  A    between atoms: C_6  and  C_7
REMARK    5  A    between atoms: C_15  and  N_16
REMARK                            x       y       z     vdW  Elec       q    Type
REMARK                         _______ _______ _______ _____ _____    ______ ____
ROOT
ATOM      1  C   UNL     1       2.348   2.716  21.662  0.00  0.00    +0.000 C 
ATOM      2  C   UNL     1       2.398   3.821  20.650  0.00  0.00    +0.000 A 
ATOM      3  C   UNL     1       2.887   3.604  19.372  0.00  0.00    +0.000 A 
ATOM      4  C   UNL     1       2.904   4.653  18.441  0.00  0.00    +0.000 A 
ATOM      5  C   UNL     1       2.491   5.946  18.875  0.00  0.00    +0.000 A 
ATOM      6  C   UNL     1       2.549   7.141  18.110  0.00  0.00    +0.000 A 
ATOM      7  C   UNL     1       2.064   8.366  18.556  0.00  0.00    +0.000 A 
ATOM      8  C   UNL     1       1.631   8.450  19.869  0.00  0.00    +0.000 A 
ATOM      9  C   UNL     1       1.589   7.300  20.662  0.00  0.00    +0.000 A 
ATOM     10  C   UNL     1       2.005   6.058  20.195  0.00  0.00    +0.000 A 
ATOM     11  N   UNL     1       1.949   5.028  21.053  0.00  0.00    +0.000 NA
ENDROOT
BRANCH   7  12
ATOM     12  N   UNL     1       2.245   9.512  17.771  0.00  0.00    +0.000 N 
ATOM     13  H   UNL     1       3.219   9.709  17.559  0.00  0.00    +0.000 HD
ATOM     14  H   UNL     1       1.668   9.536  16.939  0.00  0.00    +0.000 HD
ENDBRANCH   7  12
BRANCH   4  15
ATOM     15  N   UNL     1       3.439   4.313  17.180  0.00  0.00    +0.000 N 
ATOM     16  H   UNL     1       2.817   3.657  16.708  0.00  0.00    +0.000 HD
BRANCH  15  17
ATOM     17  C   UNL     1       4.826   3.891  17.048  0.00  0.00    +0.000 C 
BRANCH  17  18
ATOM     18  C   UNL     1       5.775   4.975  17.485  0.00  0.00    +0.000 A 
ATOM     19  C   UNL     1       6.710   4.738  18.497  0.00  0.00    +0.000 A 
ATOM     20  C   UNL     1       7.623   5.729  18.854  0.00  0.00    +0.000 A 
ATOM     21  C   UNL     1       7.613   6.960  18.197  0.00  0.00    +0.000 A 
ATOM     22  C   UNL     1       6.692   7.202  17.180  0.00  0.00    +0.000 A 
ATOM     23  C   UNL     1       5.778   6.214  16.822  0.00  0.00    +0.000 A 
ENDBRANCH  17  18
ENDBRANCH  15  17
ENDBRANCH   4  15
TORSDOF 4
ENDMDL
