MODEL 1
REMARK VINA RESULT:      -8.2      0.000      0.000
REMARK  Name = 
REMARK  5 active torsions:
REMARK  status: ('A' for Active; 'I' for Inactive)
REMARK    1  A    between atoms: C_2  and  C_13
REMARK    2  A    between atoms: N_3  and  N_4
REMARK    3  A    between atoms: C_5  and  C_6
REMARK    4  A    between atoms: C_16  and  C_17
REMARK    5  A    between atoms: C_17  and  N_18
REMARK                            x       y       z     vdW  Elec       q    Type
REMARK                         _______ _______ _______ _____ _____    ______ ____
ROOT
ATOM      1  O   UNL     1       8.142   6.040  18.968  0.00  0.00    +0.000 OA
ATOM      2  C   UNL     1       7.559   6.409  17.948  0.00  0.00    +0.000 C 
ATOM      3  N   UNL     1       7.733   7.681  17.404  0.00  0.00    +0.000 N 
ATOM      4  H   UNL     1       7.217   7.970  16.583  0.00  0.00    +0.000 HD
ENDROOT
BRANCH   2   5
ATOM      5  C   UNL     1       6.640   5.517  17.258  0.00  0.00    +0.000 A 
ATOM      6  C   UNL     1       6.911   4.691  16.179  0.00  0.00    +0.000 A 
ATOM      7  C   UNL     1       5.708   4.055  15.825  0.00  0.00    +0.000 A 
ATOM      8  C   UNL     1       4.750   4.520  16.701  0.00  0.00    +0.000 A 
ATOM      9  O   UNL     1       5.310   5.408  17.591  0.00  0.00    +0.000 OA
BRANCH   8  10
ATOM     10  C   UNL     1       3.292   4.244  16.802  0.00  0.00    +0.000 C 
BRANCH  10  11
ATOM     11  N   UNL     1       2.991   3.443  17.981  0.00  0.00    +0.000 N 
ATOM     12  C   UNL     1       2.303   3.853  19.093  0.00  0.00    +0.000 A 
ATOM     13  C   UNL     1       2.291   2.773  19.933  0.00  0.00    +0.000 A 
ATOM     14 BR   UNL     1       1.573   2.659  21.649  0.00  0.00    +0.000 Br
ATOM     15  C   UNL     1       2.944   1.744  19.245  0.00  0.00    +0.000 A 
ATOM     16  N   UNL     1       3.364   2.141  18.038  0.00  0.00    +0.000 NA
ENDBRANCH  10  11
ENDBRANCH   8  10
ENDBRANCH   2   5
BRANCH   3  17
ATOM     17  N   UNL     1       8.602   8.527  18.038  0.00  0.00    +0.000 NA
ATOM     18  C   UNL     1       8.358   9.796  18.026  0.00  0.00    +0.000 C 
BRANCH  18  19
ATOM     19  C   UNL     1       9.282  10.740  18.709  0.00  0.00    +0.000 A 
ATOM     20  C   UNL     1       9.260  10.873  20.105  0.00  0.00    +0.000 A 
ATOM     21  C   UNL     1      10.125  11.766  20.741  0.00  0.00    +0.000 A 
ATOM     22  C   UNL     1      11.014  12.533  19.986  0.00  0.00    +0.000 A 
ATOM     23  C   UNL     1      11.032  12.396  18.595  0.00  0.00    +0.000 A 
ATOM     24 BR   UNL     1      12.238  13.438  17.577  0.00  0.00    +0.000 Br
ATOM     25  C   UNL     1      10.173  11.502  17.951  0.00  0.00    +0.000 A 
ENDBRANCH  18  19
ENDBRANCH   3  17
TORSDOF 5
ENDMDL
MODEL 2
REMARK VINA RESULT:      -8.1      0.718      1.076
REMARK  Name = 
REMARK  5 active torsions:
REMARK  status: ('A' for Active; 'I' for Inactive)
REMARK    1  A    between atoms: C_2  and  C_13
REMARK    2  A    between atoms: N_3  and  N_4
REMARK    3  A    between atoms: C_5  and  C_6
REMARK    4  A    between atoms: C_16  and  C_17
REMARK    5  A    between atoms: C_17  and  N_18
REMARK                            x       y       z     vdW  Elec       q    Type
REMARK                         _______ _______ _______ _____ _____    ______ ____
ROOT
ATOM      1  O   UNL     1       7.849   6.010  19.130  0.00  0.00    +0.000 OA
ATOM      2  C   UNL     1       7.409   6.307  18.019  0.00  0.00    +0.000 C 
ATOM      3  N   UNL     1       7.596   7.567  17.451  0.00  0.00    +0.000 N 
ATOM      4  H   UNL     1       7.196   7.795  16.550  0.00  0.00    +0.000 HD
ENDROOT
BRANCH   2   5
ATOM      5  C   UNL     1       6.654   5.338  17.239  0.00  0.00    +0.000 A 
ATOM      6  C   UNL     1       7.069   4.650  16.112  0.00  0.00    +0.000 A 
ATOM      7  C   UNL     1       5.987   3.863  15.678  0.00  0.00    +0.000 A 
ATOM      8  C   UNL     1       4.954   4.104  16.559  0.00  0.00    +0.000 A 
ATOM      9  O   UNL     1       5.352   4.997  17.526  0.00  0.00    +0.000 OA
BRANCH   8  10
ATOM     10  C   UNL     1       3.556   3.597  16.597  0.00  0.00    +0.000 C 
BRANCH  10  11
ATOM     11  N   UNL     1       2.961   3.803  17.912  0.00  0.00    +0.000 N 
ATOM     12  C   UNL     1       3.033   2.952  18.984  0.00  0.00    +0.000 A 
ATOM     13  C   UNL     1       2.311   3.555  19.977  0.00  0.00    +0.000 A 
ATOM     14 BR   UNL     1       1.949   2.912  21.688  0.00  0.00    +0.000 Br
ATOM     15  C   UNL     1       1.878   4.777  19.449  0.00  0.00    +0.000 A 
ATOM     16  N   UNL     1       2.286   4.946  18.186  0.00  0.00    +0.000 NA
ENDBRANCH  10  11
ENDBRANCH   8  10
ENDBRANCH   2   5
BRANCH   3  17
ATOM     17  N   UNL     1       8.313   8.485  18.170  0.00  0.00    +0.000 NA
ATOM     18  C   UNL     1       8.360   9.706  17.750  0.00  0.00    +0.000 C 
BRANCH  18  19
ATOM     19  C   UNL     1       9.128  10.728  18.510  0.00  0.00    +0.000 A 
ATOM     20  C   UNL     1       9.399  10.545  19.874  0.00  0.00    +0.000 A 
ATOM     21  C   UNL     1      10.116  11.510  20.585  0.00  0.00    +0.000 A 
ATOM     22  C   UNL     1      10.563  12.663  19.938  0.00  0.00    +0.000 A 
ATOM     23  C   UNL     1      10.291  12.840  18.579  0.00  0.00    +0.000 A 
ATOM     24 BR   UNL     1      10.898  14.405  17.708  0.00  0.00    +0.000 Br
ATOM     25  C   UNL     1       9.578  11.878  17.859  0.00  0.00    +0.000 A 
ENDBRANCH  18  19
ENDBRANCH   3  17
TORSDOF 5
ENDMDL
MODEL 3
REMARK VINA RESULT:      -7.8      5.960      8.079
REMARK  Name = 
REMARK  5 active torsions:
REMARK  status: ('A' for Active; 'I' for Inactive)
REMARK    1  A    between atoms: C_2  and  C_13
REMARK    2  A    between atoms: N_3  and  N_4
REMARK    3  A    between atoms: C_5  and  C_6
REMARK    4  A    between atoms: C_16  and  C_17
REMARK    5  A    between atoms: C_17  and  N_18
REMARK                            x       y       z     vdW  Elec       q    Type
REMARK                         _______ _______ _______ _____ _____    ______ ____
ROOT
ATOM      1  O   UNL     1       2.522   8.067  17.962  0.00  0.00    +0.000 OA
ATOM      2  C   UNL     1       2.760   7.207  18.810  0.00  0.00    +0.000 C 
ATOM      3  N   UNL     1       2.365   7.337  20.141  0.00  0.00    +0.000 N 
ATOM      4  H   UNL     1       2.601   6.629  20.825  0.00  0.00    +0.000 HD
ENDROOT
BRANCH   2   5
ATOM      5  C   UNL     1       3.484   5.997  18.452  0.00  0.00    +0.000 A 
ATOM      6  C   UNL     1       3.038   4.688  18.533  0.00  0.00    +0.000 A 
ATOM      7  C   UNL     1       4.098   3.857  18.125  0.00  0.00    +0.000 A 
ATOM      8  C   UNL     1       5.149   4.695  17.813  0.00  0.00    +0.000 A 
ATOM      9  O   UNL     1       4.783   6.008  17.998  0.00  0.00    +0.000 OA
BRANCH   8  10
ATOM     10  C   UNL     1       6.537   4.404  17.363  0.00  0.00    +0.000 C 
BRANCH  10  11
ATOM     11  N   UNL     1       6.628   4.416  15.909  0.00  0.00    +0.000 N 
ATOM     12  C   UNL     1       5.933   3.617  15.040  0.00  0.00    +0.000 A 
ATOM     13  C   UNL     1       6.365   3.973  13.792  0.00  0.00    +0.000 A 
ATOM     14 BR   UNL     1       5.871   3.240  12.151  0.00  0.00    +0.000 Br
ATOM     15  C   UNL     1       7.277   5.017  13.984  0.00  0.00    +0.000 A 
ATOM     16  N   UNL     1       7.434   5.307  15.281  0.00  0.00    +0.000 NA
ENDBRANCH  10  11
ENDBRANCH   8  10
ENDBRANCH   2   5
BRANCH   3  17
ATOM     17  N   UNL     1       1.674   8.466  20.489  0.00  0.00    +0.000 NA
ATOM     18  C   UNL     1       0.606   8.348  21.206  0.00  0.00    +0.000 C 
BRANCH  18  19
ATOM     19  C   UNL     1      -0.165   9.556  21.603  0.00  0.00    +0.000 A 
ATOM     20  C   UNL     1      -0.576   9.732  22.932  0.00  0.00    +0.000 A 
ATOM     21  C   UNL     1      -1.305  10.866  23.299  0.00  0.00    +0.000 A 
ATOM     22  C   UNL     1      -1.628  11.827  22.340  0.00  0.00    +0.000 A 
ATOM     23  C   UNL     1      -1.215  11.647  21.018  0.00  0.00    +0.000 A 
ATOM     24 BR   UNL     1      -1.658  12.952  19.722  0.00  0.00    +0.000 Br
ATOM     25  C   UNL     1      -0.483  10.517  20.642  0.00  0.00    +0.000 A 
ENDBRANCH  18  19
ENDBRANCH   3  17
TORSDOF 5
ENDMDL
MODEL 4
REMARK VINA RESULT:      -7.6      1.409      1.882
REMARK  Name = 
REMARK  5 active torsions:
REMARK  status: ('A' for Active; 'I' for Inactive)
REMARK    1  A    between atoms: C_2  and  C_13
REMARK    2  A    between atoms: N_3  and  N_4
REMARK    3  A    between atoms: C_5  and  C_6
REMARK    4  A    between atoms: C_16  and  C_17
REMARK    5  A    between atoms: C_17  and  N_18
REMARK                            x       y       z     vdW  Elec       q    Type
REMARK                         _______ _______ _______ _____ _____    ______ ____
ROOT
ATOM      1  O   UNL     1       8.204   6.353  18.993  0.00  0.00    +0.000 OA
ATOM      2  C   UNL     1       7.658   6.741  17.960  0.00  0.00    +0.000 C 
ATOM      3  N   UNL     1       7.697   8.073  17.547  0.00  0.00    +0.000 N 
ATOM      4  H   UNL     1       7.212   8.372  16.711  0.00  0.00    +0.000 HD
ENDROOT
BRANCH   2   5
ATOM      5  C   UNL     1       6.927   5.810  17.114  0.00  0.00    +0.000 A 
ATOM      6  C   UNL     1       7.121   5.561  15.765  0.00  0.00    +0.000 A 
ATOM      7  C   UNL     1       6.153   4.621  15.369  0.00  0.00    +0.000 A 
ATOM      8  C   UNL     1       5.406   4.336  16.493  0.00  0.00    +0.000 A 
ATOM      9  O   UNL     1       5.876   5.049  17.571  0.00  0.00    +0.000 OA
BRANCH   8  10
ATOM     10  C   UNL     1       4.226   3.451  16.691  0.00  0.00    +0.000 C 
BRANCH  10  11
ATOM     11  N   UNL     1       3.495   3.816  17.898  0.00  0.00    +0.000 N 
ATOM     12  C   UNL     1       3.412   3.086  19.054  0.00  0.00    +0.000 A 
ATOM     13  C   UNL     1       2.607   3.814  19.887  0.00  0.00    +0.000 A 
ATOM     14 BR   UNL     1       2.029   3.372  21.603  0.00  0.00    +0.000 Br
ATOM     15  C   UNL     1       2.287   4.983  19.188  0.00  0.00    +0.000 A 
ATOM     16  N   UNL     1       2.841   5.001  17.969  0.00  0.00    +0.000 NA
ENDBRANCH  10  11
ENDBRANCH   8  10
ENDBRANCH   2   5
BRANCH   3  17
ATOM     17  N   UNL     1       8.388   8.958  18.329  0.00  0.00    +0.000 NA
ATOM     18  C   UNL     1       8.851  10.037  17.790  0.00  0.00    +0.000 C 
BRANCH  18  19
ATOM     19  C   UNL     1       9.604  11.020  18.613  0.00  0.00    +0.000 A 
ATOM     20  C   UNL     1      10.780  11.606  18.123  0.00  0.00    +0.000 A 
ATOM     21  C   UNL     1      11.487  12.525  18.903  0.00  0.00    +0.000 A 
ATOM     22  C   UNL     1      11.024  12.860  20.176  0.00  0.00    +0.000 A 
ATOM     23  C   UNL     1       9.851  12.274  20.659  0.00  0.00    +0.000 A 
ATOM     24 BR   UNL     1       9.229  12.731  22.386  0.00  0.00    +0.000 Br
ATOM     25  C   UNL     1       9.136  11.356  19.885  0.00  0.00    +0.000 A 
ENDBRANCH  18  19
ENDBRANCH   3  17
TORSDOF 5
ENDMDL
MODEL 5
REMARK VINA RESULT:      -7.5      2.222      2.632
REMARK  Name = 
REMARK  5 active torsions:
REMARK  status: ('A' for Active; 'I' for Inactive)
REMARK    1  A    between atoms: C_2  and  C_13
REMARK    2  A    between atoms: N_3  and  N_4
REMARK    3  A    between atoms: C_5  and  C_6
REMARK    4  A    between atoms: C_16  and  C_17
REMARK    5  A    between atoms: C_17  and  N_18
REMARK                            x       y       z     vdW  Elec       q    Type
REMARK                         _______ _______ _______ _____ _____    ______ ____
ROOT
ATOM      1  O   UNL     1       8.304   6.748  18.736  0.00  0.00    +0.000 OA
ATOM      2  C   UNL     1       7.464   7.039  17.884  0.00  0.00    +0.000 C 
ATOM      3  N   UNL     1       7.488   8.251  17.193  0.00  0.00    +0.000 N 
ATOM      4  H   UNL     1       6.766   8.479  16.521  0.00  0.00    +0.000 HD
ENDROOT
BRANCH   2   5
ATOM      5  C   UNL     1       6.386   6.117  17.562  0.00  0.00    +0.000 A 
ATOM      6  C   UNL     1       6.436   5.016  16.723  0.00  0.00    +0.000 A 
ATOM      7  C   UNL     1       5.145   4.459  16.684  0.00  0.00    +0.000 A 
ATOM      8  C   UNL     1       4.359   5.245  17.501  0.00  0.00    +0.000 A 
ATOM      9  O   UNL     1       5.109   6.257  18.053  0.00  0.00    +0.000 OA
BRANCH   8  10
ATOM     10  C   UNL     1       2.909   5.181  17.828  0.00  0.00    +0.000 C 
BRANCH  10  11
ATOM     11  N   UNL     1       2.473   6.389  18.517  0.00  0.00    +0.000 N 
ATOM     12  C   UNL     1       2.184   6.509  19.850  0.00  0.00    +0.000 A 
ATOM     13  C   UNL     1       1.802   7.811  20.024  0.00  0.00    +0.000 A 
ATOM     14 BR   UNL     1       1.215   8.639  21.588  0.00  0.00    +0.000 Br
ATOM     15  C   UNL     1       1.932   8.421  18.771  0.00  0.00    +0.000 A 
ATOM     16  N   UNL     1       2.360   7.559  17.841  0.00  0.00    +0.000 NA
ENDBRANCH  10  11
ENDBRANCH   8  10
ENDBRANCH   2   5
BRANCH   3  17
ATOM     17  N   UNL     1       8.502   9.123  17.479  0.00  0.00    +0.000 NA
ATOM     18  C   UNL     1       8.430   9.831  18.558  0.00  0.00    +0.000 C 
BRANCH  18  19
ATOM     19  C   UNL     1       9.517  10.787  18.898  0.00  0.00    +0.000 A 
ATOM     20  C   UNL     1       9.875  11.010  20.236  0.00  0.00    +0.000 A 
ATOM     21  C   UNL     1      10.893  11.913  20.551  0.00  0.00    +0.000 A 
ATOM     22  C   UNL     1      11.557  12.598  19.532  0.00  0.00    +0.000 A 
ATOM     23  C   UNL     1      11.198  12.371  18.201  0.00  0.00    +0.000 A 
ATOM     24 BR   UNL     1      12.100  13.303  16.825  0.00  0.00    +0.000 Br
ATOM     25  C   UNL     1      10.183  11.467  17.876  0.00  0.00    +0.000 A 
ENDBRANCH  18  19
ENDBRANCH   3  17
TORSDOF 5
ENDMDL
MODEL 6
REMARK VINA RESULT:      -7.3      5.714      7.478
REMARK  Name = 
REMARK  5 active torsions:
REMARK  status: ('A' for Active; 'I' for Inactive)
REMARK    1  A    between atoms: C_2  and  C_13
REMARK    2  A    between atoms: N_3  and  N_4
REMARK    3  A    between atoms: C_5  and  C_6
REMARK    4  A    between atoms: C_16  and  C_17
REMARK    5  A    between atoms: C_17  and  N_18
REMARK                            x       y       z     vdW  Elec       q    Type
REMARK                         _______ _______ _______ _____ _____    ______ ____
ROOT
ATOM      1  O   UNL     1       1.791   6.182  20.346  0.00  0.00    +0.000 OA
ATOM      2  C   UNL     1       2.619   6.382  19.457  0.00  0.00    +0.000 C 
ATOM      3  N   UNL     1       2.646   7.559  18.710  0.00  0.00    +0.000 N 
ATOM      4  H   UNL     1       3.318   7.685  17.963  0.00  0.00    +0.000 HD
ENDROOT
BRANCH   2   5
ATOM      5  C   UNL     1       3.620   5.376  19.138  0.00  0.00    +0.000 A 
ATOM      6  C   UNL     1       3.593   4.026  19.448  0.00  0.00    +0.000 A 
ATOM      7  C   UNL     1       4.794   3.464  18.980  0.00  0.00    +0.000 A 
ATOM      8  C   UNL     1       5.507   4.495  18.404  0.00  0.00    +0.000 A 
ATOM      9  O   UNL     1       4.795   5.669  18.484  0.00  0.00    +0.000 OA
BRANCH   8  10
ATOM     10  C   UNL     1       6.855   4.528  17.776  0.00  0.00    +0.000 C 
BRANCH  10  11
ATOM     11  N   UNL     1       6.755   4.565  16.323  0.00  0.00    +0.000 N 
ATOM     12  C   UNL     1       5.982   3.753  15.536  0.00  0.00    +0.000 A 
ATOM     13  C   UNL     1       6.233   4.145  14.250  0.00  0.00    +0.000 A 
ATOM     14 BR   UNL     1       5.556   3.418  12.673  0.00  0.00    +0.000 Br
ATOM     15  C   UNL     1       7.123   5.221  14.343  0.00  0.00    +0.000 A 
ATOM     16  N   UNL     1       7.438   5.497  15.614  0.00  0.00    +0.000 NA
ENDBRANCH  10  11
ENDBRANCH   8  10
ENDBRANCH   2   5
BRANCH   3  17
ATOM     17  N   UNL     1       1.716   8.519  19.005  0.00  0.00    +0.000 NA
ATOM     18  C   UNL     1       1.654   9.576  18.266  0.00  0.00    +0.000 C 
BRANCH  18  19
ATOM     19  C   UNL     1       0.652  10.635  18.559  0.00  0.00    +0.000 A 
ATOM     20  C   UNL     1      -0.696  10.303  18.761  0.00  0.00    +0.000 A 
ATOM     21  C   UNL     1      -1.634  11.302  19.031  0.00  0.00    +0.000 A 
ATOM     22  C   UNL     1      -1.231  12.637  19.097  0.00  0.00    +0.000 A 
ATOM     23  C   UNL     1       0.113  12.962  18.896  0.00  0.00    +0.000 A 
ATOM     24 BR   UNL     1       0.652  14.772  18.985  0.00  0.00    +0.000 Br
ATOM     25  C   UNL     1       1.059  11.969  18.629  0.00  0.00    +0.000 A 
ENDBRANCH  18  19
ENDBRANCH   3  17
TORSDOF 5
ENDMDL
MODEL 7
REMARK VINA RESULT:      -7.3      1.845      2.169
REMARK  Name = 
REMARK  5 active torsions:
REMARK  status: ('A' for Active; 'I' for Inactive)
REMARK    1  A    between atoms: C_2  and  C_13
REMARK    2  A    between atoms: N_3  and  N_4
REMARK    3  A    between atoms: C_5  and  C_6
REMARK    4  A    between atoms: C_16  and  C_17
REMARK    5  A    between atoms: C_17  and  N_18
REMARK                            x       y       z     vdW  Elec       q    Type
REMARK                         _______ _______ _______ _____ _____    ______ ____
ROOT
ATOM      1  O   UNL     1       8.257   6.205  19.209  0.00  0.00    +0.000 OA
ATOM      2  C   UNL     1       7.592   6.573  18.241  0.00  0.00    +0.000 C 
ATOM      3  N   UNL     1       7.661   7.871  17.734  0.00  0.00    +0.000 N 
ATOM      4  H   UNL     1       7.079   8.157  16.957  0.00  0.00    +0.000 HD
ENDROOT
BRANCH   2   5
ATOM      5  C   UNL     1       6.682   5.654  17.575  0.00  0.00    +0.000 A 
ATOM      6  C   UNL     1       6.865   5.010  16.362  0.00  0.00    +0.000 A 
ATOM      7  C   UNL     1       5.702   4.262  16.104  0.00  0.00    +0.000 A 
ATOM      8  C   UNL     1       4.855   4.481  17.170  0.00  0.00    +0.000 A 
ATOM      9  O   UNL     1       5.447   5.323  18.084  0.00  0.00    +0.000 OA
BRANCH   8  10
ATOM     10  C   UNL     1       3.476   3.996  17.446  0.00  0.00    +0.000 C 
BRANCH  10  11
ATOM     11  N   UNL     1       2.919   4.646  18.626  0.00  0.00    +0.000 N 
ATOM     12  C   UNL     1       2.478   5.940  18.714  0.00  0.00    +0.000 A 
ATOM     13  C   UNL     1       2.069   6.098  20.009  0.00  0.00    +0.000 A 
ATOM     14 BR   UNL     1       1.411   7.638  20.828  0.00  0.00    +0.000 Br
ATOM     15  C   UNL     1       2.246   4.853  20.623  0.00  0.00    +0.000 A 
ATOM     16  N   UNL     1       2.754   3.949  19.777  0.00  0.00    +0.000 NA
ENDBRANCH  10  11
ENDBRANCH   8  10
ENDBRANCH   2   5
BRANCH   3  17
ATOM     17  N   UNL     1       8.520   8.744  18.345  0.00  0.00    +0.000 NA
ATOM     18  C   UNL     1       8.606   9.952  17.895  0.00  0.00    +0.000 C 
BRANCH  18  19
ATOM     19  C   UNL     1       9.527  10.925  18.539  0.00  0.00    +0.000 A 
ATOM     20  C   UNL     1      10.773  11.215  17.962  0.00  0.00    +0.000 A 
ATOM     21  C   UNL     1      11.637  12.126  18.573  0.00  0.00    +0.000 A 
ATOM     22  C   UNL     1      11.264  12.748  19.766  0.00  0.00    +0.000 A 
ATOM     23  C   UNL     1      10.023  12.456  20.336  0.00  0.00    +0.000 A 
ATOM     24 BR   UNL     1       9.523  13.302  21.952  0.00  0.00    +0.000 Br
ATOM     25  C   UNL     1       9.149  11.549  19.729  0.00  0.00    +0.000 A 
ENDBRANCH  18  19
ENDBRANCH   3  17
TORSDOF 5
ENDMDL
MODEL 8
REMARK VINA RESULT:      -7.3      5.867      8.015
REMARK  Name = 
REMARK  5 active torsions:
REMARK  status: ('A' for Active; 'I' for Inactive)
REMARK    1  A    between atoms: C_2  and  C_13
REMARK    2  A    between atoms: N_3  and  N_4
REMARK    3  A    between atoms: C_5  and  C_6
REMARK    4  A    between atoms: C_16  and  C_17
REMARK    5  A    between atoms: C_17  and  N_18
REMARK                            x       y       z     vdW  Elec       q    Type
REMARK                         _______ _______ _______ _____ _____    ______ ____
ROOT
ATOM      1  O   UNL     1       3.208   8.127  17.278  0.00  0.00    +0.000 OA
ATOM      2  C   UNL     1       3.182   7.364  18.243  0.00  0.00    +0.000 C 
ATOM      3  N   UNL     1       2.300   7.535  19.311  0.00  0.00    +0.000 N 
ATOM      4  H   UNL     1       2.322   6.910  20.107  0.00  0.00    +0.000 HD
ENDROOT
BRANCH   2   5
ATOM      5  C   UNL     1       4.092   6.231  18.315  0.00  0.00    +0.000 A 
ATOM      6  C   UNL     1       4.024   5.142  19.168  0.00  0.00    +0.000 A 
ATOM      7  C   UNL     1       5.142   4.331  18.904  0.00  0.00    +0.000 A 
ATOM      8  C   UNL     1       5.849   4.960  17.901  0.00  0.00    +0.000 A 
ATOM      9  O   UNL     1       5.212   6.119  17.523  0.00  0.00    +0.000 OA
BRANCH   8  10
ATOM     10  C   UNL     1       7.130   4.607  17.231  0.00  0.00    +0.000 C 
BRANCH  10  11
ATOM     11  N   UNL     1       6.968   4.559  15.784  0.00  0.00    +0.000 N 
ATOM     12  C   UNL     1       6.117   3.745  15.083  0.00  0.00    +0.000 A 
ATOM     13  C   UNL     1       6.332   4.040  13.765  0.00  0.00    +0.000 A 
ATOM     14 BR   UNL     1       5.547   3.256  12.268  0.00  0.00    +0.000 Br
ATOM     15  C   UNL     1       7.284   5.067  13.752  0.00  0.00    +0.000 A 
ATOM     16  N   UNL     1       7.669   5.403  14.988  0.00  0.00    +0.000 NA
ENDBRANCH  10  11
ENDBRANCH   8  10
ENDBRANCH   2   5
BRANCH   3  17
ATOM     17  N   UNL     1       1.432   8.590  19.251  0.00  0.00    +0.000 NA
ATOM     18  C   UNL     1       0.944   9.059  20.352  0.00  0.00    +0.000 C 
BRANCH  18  19
ATOM     19  C   UNL     1      -0.000  10.207  20.321  0.00  0.00    +0.000 A 
ATOM     20  C   UNL     1      -0.727  10.500  19.158  0.00  0.00    +0.000 A 
ATOM     21  C   UNL     1      -1.609  11.583  19.132  0.00  0.00    +0.000 A 
ATOM     22  C   UNL     1      -1.766  12.381  20.267  0.00  0.00    +0.000 A 
ATOM     23  C   UNL     1      -1.040  12.084  21.423  0.00  0.00    +0.000 A 
ATOM     24 BR   UNL     1      -1.257  13.169  22.957  0.00  0.00    +0.000 Br
ATOM     25  C   UNL     1      -0.159  11.000  21.459  0.00  0.00    +0.000 A 
ENDBRANCH  18  19
ENDBRANCH   3  17
TORSDOF 5
ENDMDL
MODEL 9
REMARK VINA RESULT:      -7.2      1.887      2.733
REMARK  Name = 
REMARK  5 active torsions:
REMARK  status: ('A' for Active; 'I' for Inactive)
REMARK    1  A    between atoms: C_2  and  C_13
REMARK    2  A    between atoms: N_3  and  N_4
REMARK    3  A    between atoms: C_5  and  C_6
REMARK    4  A    between atoms: C_16  and  C_17
REMARK    5  A    between atoms: C_17  and  N_18
REMARK                            x       y       z     vdW  Elec       q    Type
REMARK                         _______ _______ _______ _____ _____    ______ ____
ROOT
ATOM      1  O   UNL     1       7.853   9.748  17.368  0.00  0.00    +0.000 OA
ATOM      2  C   UNL     1       8.196   8.849  18.135  0.00  0.00    +0.000 C 
ATOM      3  N   UNL     1       9.093   9.059  19.183  0.00  0.00    +0.000 N 
ATOM      4  H   UNL     1       9.383   8.295  19.779  0.00  0.00    +0.000 HD
ENDROOT
BRANCH   2   5
ATOM      5  C   UNL     1       7.677   7.500  17.973  0.00  0.00    +0.000 A 
ATOM      6  C   UNL     1       8.104   6.346  18.608  0.00  0.00    +0.000 A 
ATOM      7  C   UNL     1       7.339   5.279  18.101  0.00  0.00    +0.000 A 
ATOM      8  C   UNL     1       6.476   5.827  17.175  0.00  0.00    +0.000 A 
ATOM      9  O   UNL     1       6.664   7.187  17.095  0.00  0.00    +0.000 OA
BRANCH   8  10
ATOM     10  C   UNL     1       5.458   5.201  16.289  0.00  0.00    +0.000 C 
BRANCH  10  11
ATOM     11  N   UNL     1       4.251   4.866  17.033  0.00  0.00    +0.000 N 
ATOM     12  C   UNL     1       3.785   3.608  17.313  0.00  0.00    +0.000 A 
ATOM     13  C   UNL     1       2.622   3.796  18.006  0.00  0.00    +0.000 A 
ATOM     14 BR   UNL     1       1.441   2.502  18.643  0.00  0.00    +0.000 Br
ATOM     15  C   UNL     1       2.477   5.181  18.147  0.00  0.00    +0.000 A 
ATOM     16  N   UNL     1       3.482   5.848  17.566  0.00  0.00    +0.000 NA
ENDBRANCH  10  11
ENDBRANCH   8  10
ENDBRANCH   2   5
BRANCH   3  17
ATOM     17  N   UNL     1       9.582  10.325  19.353  0.00  0.00    +0.000 NA
ATOM     18  C   UNL     1       9.282  10.971  20.431  0.00  0.00    +0.000 C 
BRANCH  18  19
ATOM     19  C   UNL     1       9.801  12.348  20.646  0.00  0.00    +0.000 A 
ATOM     20  C   UNL     1       9.415  13.085  21.776  0.00  0.00    +0.000 A 
ATOM     21  C   UNL     1       9.901  14.380  21.971  0.00  0.00    +0.000 A 
ATOM     22  C   UNL     1      10.771  14.945  21.038  0.00  0.00    +0.000 A 
ATOM     23  C   UNL     1      11.153  14.207  19.915  0.00  0.00    +0.000 A 
ATOM     24 BR   UNL     1      12.332  14.979  18.654  0.00  0.00    +0.000 Br
ATOM     25  C   UNL     1      10.675  12.909  19.713  0.00  0.00    +0.000 A 
ENDBRANCH  18  19
ENDBRANCH   3  17
TORSDOF 5
ENDMDL
