MODEL 1
REMARK VINA RESULT:      -7.7      0.000      0.000
REMARK  Name = 
REMARK  7 active torsions:
REMARK  status: ('A' for Active; 'I' for Inactive)
REMARK    1  A    between atoms: C_4  and  C_5
REMARK    2  A    between atoms: C_5  and  N_6
REMARK    3  A    between atoms: N_6  and  C_7
REMARK    4  A    between atoms: N_6  and  C_18
REMARK    5  A    between atoms: C_7  and  C_8
REMARK    6  A    between atoms: C_8  and  C_9
REMARK    7  A    between atoms: C_18  and  C_19
REMARK                            x       y       z     vdW  Elec       q    Type
REMARK                         _______ _______ _______ _____ _____    ______ ____
ROOT
ATOM      1  N   UNL     1       6.755   6.332  16.427  0.00  0.00    +0.000 NA
ENDROOT
BRANCH   1   2
ATOM      2  C   UNL     1       7.295   5.014  15.998  0.00  0.00    +0.000 C 
BRANCH   2   6
ATOM      3  C   UNL     1       6.617   4.004  12.488  0.00  0.00    +0.000 A 
ATOM      4  C   UNL     1       7.592   4.971  12.430  0.00  0.00    +0.000 A 
ATOM      5  O   UNL     1       7.868   5.444  13.672  0.00  0.00    +0.000 OA
ATOM      6  C   UNL     1       7.069   4.761  14.543  0.00  0.00    +0.000 A 
ATOM      7  C   UNL     1       6.254   3.889  13.850  0.00  0.00    +0.000 A 
ENDBRANCH   2   6
ENDBRANCH   1   2
BRANCH   1   8
ATOM      8  C   UNL     1       5.264   6.314  16.368  0.00  0.00    +0.000 C 
BRANCH   8   9
ATOM      9  C   UNL     1       4.586   6.142  17.739  0.00  0.00    +0.000 C 
BRANCH   9  10
ATOM     10  C   UNL     1       4.024   4.771  17.945  0.00  0.00    +0.000 A 
ATOM     11  C   UNL     1       4.448   3.619  17.312  0.00  0.00    +0.000 A 
ATOM     12  N   UNL     1       3.736   2.566  17.809  0.00  0.00    +0.000 N 
ATOM     13  C   UNL     1       2.842   3.000  18.760  0.00  0.00    +0.000 A 
ATOM     14  C   UNL     1       1.937   2.273  19.542  0.00  0.00    +0.000 A 
ATOM     15  C   UNL     1       1.139   2.987  20.439  0.00  0.00    +0.000 A 
ATOM     16  C   UNL     1       1.240   4.372  20.543  0.00  0.00    +0.000 A 
ATOM     17  C   UNL     1       2.158   5.082  19.758  0.00  0.00    +0.000 A 
ATOM     18  C   UNL     1       2.983   4.385  18.852  0.00  0.00    +0.000 A 
ATOM     19  H   UNL     1       3.852   1.599  17.537  0.00  0.00    +0.000 HD
ENDBRANCH   9  10
ENDBRANCH   8   9
ENDBRANCH   1   8
BRANCH   1  20
ATOM     20  C   UNL     1       7.199   6.627  17.807  0.00  0.00    +0.000 C 
BRANCH  20  21
ATOM     21  C   UNL     1       7.808   7.978  17.985  0.00  0.00    +0.000 A 
ATOM     22  C   UNL     1       7.597   9.206  17.390  0.00  0.00    +0.000 A 
ATOM     23  C   UNL     1       8.440  10.123  18.064  0.00  0.00    +0.000 A 
ATOM     24  C   UNL     1       9.112   9.397  19.020  0.00  0.00    +0.000 A 
ATOM     25  O   UNL     1       8.738   8.093  18.974  0.00  0.00    +0.000 OA
ENDBRANCH  20  21
ENDBRANCH   1  20
TORSDOF 7
ENDMDL
MODEL 2
REMARK VINA RESULT:      -7.7      3.741      6.352
REMARK  Name = 
REMARK  7 active torsions:
REMARK  status: ('A' for Active; 'I' for Inactive)
REMARK    1  A    between atoms: C_4  and  C_5
REMARK    2  A    between atoms: C_5  and  N_6
REMARK    3  A    between atoms: N_6  and  C_7
REMARK    4  A    between atoms: N_6  and  C_18
REMARK    5  A    between atoms: C_7  and  C_8
REMARK    6  A    between atoms: C_8  and  C_9
REMARK    7  A    between atoms: C_18  and  C_19
REMARK                            x       y       z     vdW  Elec       q    Type
REMARK                         _______ _______ _______ _____ _____    ______ ____
ROOT
ATOM      1  N   UNL     1       4.059   5.047  18.163  0.00  0.00    +0.000 NA
ENDROOT
BRANCH   1   2
ATOM      2  C   UNL     1       5.048   5.171  17.060  0.00  0.00    +0.000 C 
BRANCH   2   6
ATOM      3  C   UNL     1       8.005   6.923  18.471  0.00  0.00    +0.000 A 
ATOM      4  C   UNL     1       7.561   7.696  17.425  0.00  0.00    +0.000 A 
ATOM      5  O   UNL     1       6.508   7.102  16.808  0.00  0.00    +0.000 OA
ATOM      6  C   UNL     1       6.261   5.938  17.476  0.00  0.00    +0.000 A 
ATOM      7  C   UNL     1       7.186   5.770  18.487  0.00  0.00    +0.000 A 
ENDBRANCH   2   6
ENDBRANCH   1   2
BRANCH   1   8
ATOM      8  C   UNL     1       2.969   6.050  17.984  0.00  0.00    +0.000 C 
BRANCH   8   9
ATOM      9  C   UNL     1       2.679   6.890  19.241  0.00  0.00    +0.000 C 
BRANCH   9  10
ATOM     10  C   UNL     1       2.042   8.208  18.929  0.00  0.00    +0.000 A 
ATOM     11  C   UNL     1       2.146   8.895  17.735  0.00  0.00    +0.000 A 
ATOM     12  N   UNL     1       1.376  10.019  17.815  0.00  0.00    +0.000 N 
ATOM     13  C   UNL     1       0.764  10.092  19.045  0.00  0.00    +0.000 A 
ATOM     14  C   UNL     1      -0.125  11.047  19.551  0.00  0.00    +0.000 A 
ATOM     15  C   UNL     1      -0.595  10.866  20.855  0.00  0.00    +0.000 A 
ATOM     16  C   UNL     1      -0.186   9.777  21.619  0.00  0.00    +0.000 A 
ATOM     17  C   UNL     1       0.699   8.826  21.093  0.00  0.00    +0.000 A 
ATOM     18  C   UNL     1       1.180   8.979  19.776  0.00  0.00    +0.000 A 
ATOM     19  H   UNL     1       1.254  10.699  17.077  0.00  0.00    +0.000 HD
ENDBRANCH   9  10
ENDBRANCH   8   9
ENDBRANCH   1   8
BRANCH   1  20
ATOM     20  C   UNL     1       3.488   3.681  18.170  0.00  0.00    +0.000 C 
BRANCH  20  21
ATOM     21  C   UNL     1       2.663   3.362  19.371  0.00  0.00    +0.000 A 
ATOM     22  C   UNL     1       1.305   3.238  19.590  0.00  0.00    +0.000 A 
ATOM     23  C   UNL     1       1.157   2.831  20.939  0.00  0.00    +0.000 A 
ATOM     24  C   UNL     1       2.429   2.739  21.455  0.00  0.00    +0.000 A 
ATOM     25  O   UNL     1       3.348   3.066  20.511  0.00  0.00    +0.000 OA
ENDBRANCH  20  21
ENDBRANCH   1  20
TORSDOF 7
ENDMDL
MODEL 3
REMARK VINA RESULT:      -7.6      3.349      5.983
REMARK  Name = 
REMARK  7 active torsions:
REMARK  status: ('A' for Active; 'I' for Inactive)
REMARK    1  A    between atoms: C_4  and  C_5
REMARK    2  A    between atoms: C_5  and  N_6
REMARK    3  A    between atoms: N_6  and  C_7
REMARK    4  A    between atoms: N_6  and  C_18
REMARK    5  A    between atoms: C_7  and  C_8
REMARK    6  A    between atoms: C_8  and  C_9
REMARK    7  A    between atoms: C_18  and  C_19
REMARK                            x       y       z     vdW  Elec       q    Type
REMARK                         _______ _______ _______ _____ _____    ______ ____
ROOT
ATOM      1  N   UNL     1       4.898   4.463  17.887  0.00  0.00    +0.000 NA
ENDROOT
BRANCH   1   2
ATOM      2  C   UNL     1       4.712   3.324  18.824  0.00  0.00    +0.000 C 
BRANCH   2   6
ATOM      3  C   UNL     1       1.104   2.442  18.720  0.00  0.00    +0.000 A 
ATOM      4  C   UNL     1       1.392   2.737  20.031  0.00  0.00    +0.000 A 
ATOM      5  O   UNL     1       2.712   3.019  20.177  0.00  0.00    +0.000 OA
ATOM      6  C   UNL     1       3.278   2.919  18.939  0.00  0.00    +0.000 A 
ATOM      7  C   UNL     1       2.329   2.528  18.017  0.00  0.00    +0.000 A 
ENDBRANCH   2   6
ENDBRANCH   1   2
BRANCH   1   8
ATOM      8  C   UNL     1       4.557   5.745  18.570  0.00  0.00    +0.000 C 
BRANCH   8   9
ATOM      9  C   UNL     1       3.293   6.429  18.018  0.00  0.00    +0.000 C 
BRANCH   9  10
ATOM     10  C   UNL     1       2.474   7.088  19.084  0.00  0.00    +0.000 A 
ATOM     11  C   UNL     1       2.169   6.550  20.319  0.00  0.00    +0.000 A 
ATOM     12  N   UNL     1       1.460   7.475  21.029  0.00  0.00    +0.000 N 
ATOM     13  C   UNL     1       1.285   8.618  20.285  0.00  0.00    +0.000 A 
ATOM     14  C   UNL     1       0.650   9.819  20.618  0.00  0.00    +0.000 A 
ATOM     15  C   UNL     1       0.621  10.826  19.649  0.00  0.00    +0.000 A 
ATOM     16  C   UNL     1       1.201  10.633  18.398  0.00  0.00    +0.000 A 
ATOM     17  C   UNL     1       1.840   9.426  18.085  0.00  0.00    +0.000 A 
ATOM     18  C   UNL     1       1.892   8.398  19.048  0.00  0.00    +0.000 A 
ATOM     19  H   UNL     1       1.120   7.354  21.974  0.00  0.00    +0.000 HD
ENDBRANCH   9  10
ENDBRANCH   8   9
ENDBRANCH   1   8
BRANCH   1  20
ATOM     20  C   UNL     1       6.303   4.501  17.422  0.00  0.00    +0.000 C 
BRANCH  20  21
ATOM     21  C   UNL     1       6.467   4.406  15.942  0.00  0.00    +0.000 A 
ATOM     22  C   UNL     1       5.832   3.677  14.956  0.00  0.00    +0.000 A 
ATOM     23  C   UNL     1       6.394   4.100  13.726  0.00  0.00    +0.000 A 
ATOM     24  C   UNL     1       7.334   5.054  14.041  0.00  0.00    +0.000 A 
ATOM     25  O   UNL     1       7.389   5.241  15.384  0.00  0.00    +0.000 OA
ENDBRANCH  20  21
ENDBRANCH   1  20
TORSDOF 7
ENDMDL
MODEL 4
REMARK VINA RESULT:      -7.5      3.111      7.301
REMARK  Name = 
REMARK  7 active torsions:
REMARK  status: ('A' for Active; 'I' for Inactive)
REMARK    1  A    between atoms: C_4  and  C_5
REMARK    2  A    between atoms: C_5  and  N_6
REMARK    3  A    between atoms: N_6  and  C_7
REMARK    4  A    between atoms: N_6  and  C_18
REMARK    5  A    between atoms: C_7  and  C_8
REMARK    6  A    between atoms: C_8  and  C_9
REMARK    7  A    between atoms: C_18  and  C_19
REMARK                            x       y       z     vdW  Elec       q    Type
REMARK                         _______ _______ _______ _____ _____    ______ ____
ROOT
ATOM      1  N   UNL     1       3.275   5.258  18.054  0.00  0.00    +0.000 NA
ENDROOT
BRANCH   1   2
ATOM      2  C   UNL     1       3.720   6.658  17.827  0.00  0.00    +0.000 C 
BRANCH   2   6
ATOM      3  C   UNL     1       1.346   9.392  18.662  0.00  0.00    +0.000 A 
ATOM      4  C   UNL     1       1.454   8.615  19.791  0.00  0.00    +0.000 A 
ATOM      5  O   UNL     1       2.265   7.551  19.562  0.00  0.00    +0.000 OA
ATOM      6  C   UNL     1       2.697   7.652  18.270  0.00  0.00    +0.000 A 
ATOM      7  C   UNL     1       2.124   8.754  17.667  0.00  0.00    +0.000 A 
ENDBRANCH   2   6
ENDBRANCH   1   2
BRANCH   1   8
ATOM      8  C   UNL     1       3.516   4.442  16.829  0.00  0.00    +0.000 C 
BRANCH   8   9
ATOM      9  C   UNL     1       4.877   3.724  16.813  0.00  0.00    +0.000 C 
BRANCH   9  10
ATOM     10  C   UNL     1       5.891   4.414  15.954  0.00  0.00    +0.000 A 
ATOM     11  C   UNL     1       6.821   5.340  16.385  0.00  0.00    +0.000 A 
ATOM     12  N   UNL     1       7.605   5.689  15.324  0.00  0.00    +0.000 N 
ATOM     13  C   UNL     1       7.209   5.013  14.194  0.00  0.00    +0.000 A 
ATOM     14  C   UNL     1       7.738   5.039  12.898  0.00  0.00    +0.000 A 
ATOM     15  C   UNL     1       7.124   4.238  11.932  0.00  0.00    +0.000 A 
ATOM     16  C   UNL     1       6.023   3.448  12.252  0.00  0.00    +0.000 A 
ATOM     17  C   UNL     1       5.512   3.428  13.556  0.00  0.00    +0.000 A 
ATOM     18  C   UNL     1       6.119   4.219  14.552  0.00  0.00    +0.000 A 
ATOM     19  H   UNL     1       8.379   6.340  15.356  0.00  0.00    +0.000 HD
ENDBRANCH   9  10
ENDBRANCH   8   9
ENDBRANCH   1   8
BRANCH   1  20
ATOM     20  C   UNL     1       4.016   4.678  19.197  0.00  0.00    +0.000 C 
BRANCH  20  21
ATOM     21  C   UNL     1       3.191   3.824  20.099  0.00  0.00    +0.000 A 
ATOM     22  C   UNL     1       3.400   2.605  20.714  0.00  0.00    +0.000 A 
ATOM     23  C   UNL     1       2.259   2.366  21.519  0.00  0.00    +0.000 A 
ATOM     24  C   UNL     1       1.429   3.449  21.340  0.00  0.00    +0.000 A 
ATOM     25  O   UNL     1       1.985   4.335  20.476  0.00  0.00    +0.000 OA
ENDBRANCH  20  21
ENDBRANCH   1  20
TORSDOF 7
ENDMDL
MODEL 5
REMARK VINA RESULT:      -7.5      3.527      5.839
REMARK  Name = 
REMARK  7 active torsions:
REMARK  status: ('A' for Active; 'I' for Inactive)
REMARK    1  A    between atoms: C_4  and  C_5
REMARK    2  A    between atoms: C_5  and  N_6
REMARK    3  A    between atoms: N_6  and  C_7
REMARK    4  A    between atoms: N_6  and  C_18
REMARK    5  A    between atoms: C_7  and  C_8
REMARK    6  A    between atoms: C_8  and  C_9
REMARK    7  A    between atoms: C_18  and  C_19
REMARK                            x       y       z     vdW  Elec       q    Type
REMARK                         _______ _______ _______ _____ _____    ______ ____
ROOT
ATOM      1  N   UNL     1       4.263   4.249  17.763  0.00  0.00    +0.000 NA
ENDROOT
BRANCH   1   2
ATOM      2  C   UNL     1       4.153   3.045  18.629  0.00  0.00    +0.000 C 
BRANCH   2   6
ATOM      3  C   UNL     1       1.343   2.916  21.056  0.00  0.00    +0.000 A 
ATOM      4  C   UNL     1       0.775   3.075  19.814  0.00  0.00    +0.000 A 
ATOM      5  O   UNL     1       1.735   3.189  18.861  0.00  0.00    +0.000 OA
ATOM      6  C   UNL     1       2.939   3.087  19.498  0.00  0.00    +0.000 A 
ATOM      7  C   UNL     1       2.743   2.955  20.858  0.00  0.00    +0.000 A 
ENDBRANCH   2   6
ENDBRANCH   1   2
BRANCH   1   8
ATOM      8  C   UNL     1       4.118   5.484  18.588  0.00  0.00    +0.000 C 
BRANCH   8   9
ATOM      9  C   UNL     1       3.053   6.464  18.064  0.00  0.00    +0.000 C 
BRANCH   9  10
ATOM     10  C   UNL     1       2.315   7.166  19.161  0.00  0.00    +0.000 A 
ATOM     11  C   UNL     1       2.056   6.656  20.418  0.00  0.00    +0.000 A 
ATOM     12  N   UNL     1       1.419   7.615  21.151  0.00  0.00    +0.000 N 
ATOM     13  C   UNL     1       1.248   8.755  20.400  0.00  0.00    +0.000 A 
ATOM     14  C   UNL     1       0.675   9.983  20.748  0.00  0.00    +0.000 A 
ATOM     15  C   UNL     1       0.633  10.978  19.768  0.00  0.00    +0.000 A 
ATOM     16  C   UNL     1       1.139  10.747  18.491  0.00  0.00    +0.000 A 
ATOM     17  C   UNL     1       1.716   9.514  18.163  0.00  0.00    +0.000 A 
ATOM     18  C   UNL     1       1.781   8.496  19.136  0.00  0.00    +0.000 A 
ATOM     19  H   UNL     1       1.125   7.518  22.113  0.00  0.00    +0.000 HD
ENDBRANCH   9  10
ENDBRANCH   8   9
ENDBRANCH   1   8
BRANCH   1  20
ATOM     20  C   UNL     1       5.577   4.254  17.080  0.00  0.00    +0.000 C 
BRANCH  20  21
ATOM     21  C   UNL     1       6.574   5.198  17.664  0.00  0.00    +0.000 A 
ATOM     22  C   UNL     1       6.992   6.471  17.330  0.00  0.00    +0.000 A 
ATOM     23  C   UNL     1       7.911   6.862  18.334  0.00  0.00    +0.000 A 
ATOM     24  C   UNL     1       7.997   5.804  19.210  0.00  0.00    +0.000 A 
ATOM     25  O   UNL     1       7.193   4.788  18.806  0.00  0.00    +0.000 OA
ENDBRANCH  20  21
ENDBRANCH   1  20
TORSDOF 7
ENDMDL
MODEL 6
REMARK VINA RESULT:      -7.5      3.374      6.308
REMARK  Name = 
REMARK  7 active torsions:
REMARK  status: ('A' for Active; 'I' for Inactive)
REMARK    1  A    between atoms: C_4  and  C_5
REMARK    2  A    between atoms: C_5  and  N_6
REMARK    3  A    between atoms: N_6  and  C_7
REMARK    4  A    between atoms: N_6  and  C_18
REMARK    5  A    between atoms: C_7  and  C_8
REMARK    6  A    between atoms: C_8  and  C_9
REMARK    7  A    between atoms: C_18  and  C_19
REMARK                            x       y       z     vdW  Elec       q    Type
REMARK                         _______ _______ _______ _____ _____    ______ ____
ROOT
ATOM      1  N   UNL     1       3.502   3.499  17.243  0.00  0.00    +0.000 NA
ENDROOT
BRANCH   1   2
ATOM      2  C   UNL     1       3.170   2.259  17.993  0.00  0.00    +0.000 C 
BRANCH   2   6
ATOM      3  C   UNL     1       2.426   2.779  21.596  0.00  0.00    +0.000 A 
ATOM      4  C   UNL     1       1.213   2.763  20.948  0.00  0.00    +0.000 A 
ATOM      5  O   UNL     1       1.389   2.632  19.609  0.00  0.00    +0.000 OA
ATOM      6  C   UNL     1       2.735   2.548  19.392  0.00  0.00    +0.000 A 
ATOM      7  C   UNL     1       3.413   2.672  20.588  0.00  0.00    +0.000 A 
ENDBRANCH   2   6
ENDBRANCH   1   2
BRANCH   1   8
ATOM      8  C   UNL     1       2.555   4.589  17.618  0.00  0.00    +0.000 C 
BRANCH   8   9
ATOM      9  C   UNL     1       3.240   5.929  17.942  0.00  0.00    +0.000 C 
BRANCH   9  10
ATOM     10  C   UNL     1       2.521   6.713  18.995  0.00  0.00    +0.000 A 
ATOM     11  C   UNL     1       2.243   6.281  20.276  0.00  0.00    +0.000 A 
ATOM     12  N   UNL     1       1.634   7.299  20.952  0.00  0.00    +0.000 N 
ATOM     13  C   UNL     1       1.500   8.400  20.138  0.00  0.00    +0.000 A 
ATOM     14  C   UNL     1       0.964   9.662  20.415  0.00  0.00    +0.000 A 
ATOM     15  C   UNL     1       0.955  10.602  19.381  0.00  0.00    +0.000 A 
ATOM     16  C   UNL     1       1.457  10.286  18.121  0.00  0.00    +0.000 A 
ATOM     17  C   UNL     1       1.997   9.019  17.865  0.00  0.00    +0.000 A 
ATOM     18  C   UNL     1       2.028   8.055  18.894  0.00  0.00    +0.000 A 
ATOM     19  H   UNL     1       1.334   7.265  21.917  0.00  0.00    +0.000 HD
ENDBRANCH   9  10
ENDBRANCH   8   9
ENDBRANCH   1   8
BRANCH   1  20
ATOM     20  C   UNL     1       4.890   3.912  17.550  0.00  0.00    +0.000 C 
BRANCH  20  21
ATOM     21  C   UNL     1       5.710   4.260  16.354  0.00  0.00    +0.000 A 
ATOM     22  C   UNL     1       7.005   4.709  16.183  0.00  0.00    +0.000 A 
ATOM     23  C   UNL     1       7.221   4.771  14.784  0.00  0.00    +0.000 A 
ATOM     24  C   UNL     1       6.047   4.362  14.195  0.00  0.00    +0.000 A 
ATOM     25  O   UNL     1       5.124   4.056  15.141  0.00  0.00    +0.000 OA
ENDBRANCH  20  21
ENDBRANCH   1  20
TORSDOF 7
ENDMDL
MODEL 7
REMARK VINA RESULT:      -7.4      1.535      4.604
REMARK  Name = 
REMARK  7 active torsions:
REMARK  status: ('A' for Active; 'I' for Inactive)
REMARK    1  A    between atoms: C_4  and  C_5
REMARK    2  A    between atoms: C_5  and  N_6
REMARK    3  A    between atoms: N_6  and  C_7
REMARK    4  A    between atoms: N_6  and  C_18
REMARK    5  A    between atoms: C_7  and  C_8
REMARK    6  A    between atoms: C_8  and  C_9
REMARK    7  A    between atoms: C_18  and  C_19
REMARK                            x       y       z     vdW  Elec       q    Type
REMARK                         _______ _______ _______ _____ _____    ______ ____
ROOT
ATOM      1  N   UNL     1       7.235   5.673  18.321  0.00  0.00    +0.000 NA
ENDROOT
BRANCH   1   2
ATOM      2  C   UNL     1       6.995   6.841  17.432  0.00  0.00    +0.000 C 
BRANCH   2   6
ATOM      3  C   UNL     1       8.971   9.651  18.848  0.00  0.00    +0.000 A 
ATOM      4  C   UNL     1       8.236  10.178  17.812  0.00  0.00    +0.000 A 
ATOM      5  O   UNL     1       7.519   9.205  17.193  0.00  0.00    +0.000 OA
ATOM      6  C   UNL     1       7.784   8.038  17.850  0.00  0.00    +0.000 A 
ATOM      7  C   UNL     1       8.704   8.261  18.854  0.00  0.00    +0.000 A 
ENDBRANCH   2   6
ENDBRANCH   1   2
BRANCH   1   8
ATOM      8  C   UNL     1       5.988   5.335  19.065  0.00  0.00    +0.000 C 
BRANCH   8   9
ATOM      9  C   UNL     1       4.723   6.011  18.506  0.00  0.00    +0.000 C 
BRANCH   9  10
ATOM     10  C   UNL     1       3.465   5.523  19.155  0.00  0.00    +0.000 A 
ATOM     11  C   UNL     1       2.709   6.219  20.078  0.00  0.00    +0.000 A 
ATOM     12  N   UNL     1       1.609   5.472  20.385  0.00  0.00    +0.000 N 
ATOM     13  C   UNL     1       1.622   4.290  19.682  0.00  0.00    +0.000 A 
ATOM     14  C   UNL     1       0.692   3.244  19.664  0.00  0.00    +0.000 A 
ATOM     15  C   UNL     1       0.969   2.147  18.844  0.00  0.00    +0.000 A 
ATOM     16  C   UNL     1       2.133   2.099  18.081  0.00  0.00    +0.000 A 
ATOM     17  C   UNL     1       3.049   3.158  18.106  0.00  0.00    +0.000 A 
ATOM     18  C   UNL     1       2.789   4.282  18.917  0.00  0.00    +0.000 A 
ATOM     19  H   UNL     1       0.874   5.746  21.024  0.00  0.00    +0.000 HD
ENDBRANCH   9  10
ENDBRANCH   8   9
ENDBRANCH   1   8
BRANCH   1  20
ATOM     20  C   UNL     1       7.669   4.512  17.512  0.00  0.00    +0.000 C 
BRANCH  20  21
ATOM     21  C   UNL     1       7.016   4.412  16.174  0.00  0.00    +0.000 A 
ATOM     22  C   UNL     1       5.800   3.924  15.739  0.00  0.00    +0.000 A 
ATOM     23  C   UNL     1       5.737   4.198  14.351  0.00  0.00    +0.000 A 
ATOM     24  C   UNL     1       6.916   4.828  14.029  0.00  0.00    +0.000 A 
ATOM     25  O   UNL     1       7.701   4.957  15.129  0.00  0.00    +0.000 OA
ENDBRANCH  20  21
ENDBRANCH   1  20
TORSDOF 7
ENDMDL
MODEL 8
REMARK VINA RESULT:      -7.4      3.172      7.021
REMARK  Name = 
REMARK  7 active torsions:
REMARK  status: ('A' for Active; 'I' for Inactive)
REMARK    1  A    between atoms: C_4  and  C_5
REMARK    2  A    between atoms: C_5  and  N_6
REMARK    3  A    between atoms: N_6  and  C_7
REMARK    4  A    between atoms: N_6  and  C_18
REMARK    5  A    between atoms: C_7  and  C_8
REMARK    6  A    between atoms: C_8  and  C_9
REMARK    7  A    between atoms: C_18  and  C_19
REMARK                            x       y       z     vdW  Elec       q    Type
REMARK                         _______ _______ _______ _____ _____    ______ ____
ROOT
ATOM      1  N   UNL     1       3.103   6.145  18.530  0.00  0.00    +0.000 NA
ENDROOT
BRANCH   1   2
ATOM      2  C   UNL     1       2.137   5.153  17.986  0.00  0.00    +0.000 C 
BRANCH   2   6
ATOM      3  C   UNL     1       1.208   2.971  20.846  0.00  0.00    +0.000 A 
ATOM      4  C   UNL     1       0.926   2.256  19.706  0.00  0.00    +0.000 A 
ATOM      5  O   UNL     1       1.183   3.001  18.600  0.00  0.00    +0.000 OA
ATOM      6  C   UNL     1       1.652   4.207  19.035  0.00  0.00    +0.000 A 
ATOM      7  C   UNL     1       1.648   4.245  20.415  0.00  0.00    +0.000 A 
ENDBRANCH   2   6
ENDBRANCH   1   2
BRANCH   1   8
ATOM      8  C   UNL     1       4.461   5.894  17.967  0.00  0.00    +0.000 C 
BRANCH   8   9
ATOM      9  C   UNL     1       4.480   4.885  16.805  0.00  0.00    +0.000 C 
BRANCH   9  10
ATOM     10  C   UNL     1       5.644   5.076  15.883  0.00  0.00    +0.000 A 
ATOM     11  C   UNL     1       6.804   5.765  16.178  0.00  0.00    +0.000 A 
ATOM     12  N   UNL     1       7.648   5.664  15.110  0.00  0.00    +0.000 N 
ATOM     13  C   UNL     1       7.066   4.921  14.109  0.00  0.00    +0.000 A 
ATOM     14  C   UNL     1       7.572   4.544  12.860  0.00  0.00    +0.000 A 
ATOM     15  C   UNL     1       6.746   3.777  12.033  0.00  0.00    +0.000 A 
ATOM     16  C   UNL     1       5.466   3.411  12.441  0.00  0.00    +0.000 A 
ATOM     17  C   UNL     1       4.980   3.791  13.698  0.00  0.00    +0.000 A 
ATOM     18  C   UNL     1       5.796   4.556  14.557  0.00  0.00    +0.000 A 
ATOM     19  H   UNL     1       8.577   6.061  15.058  0.00  0.00    +0.000 HD
ENDBRANCH   9  10
ENDBRANCH   8   9
ENDBRANCH   1   8
BRANCH   1  20
ATOM     20  C   UNL     1       2.660   7.514  18.184  0.00  0.00    +0.000 C 
BRANCH  20  21
ATOM     21  C   UNL     1       1.889   8.205  19.257  0.00  0.00    +0.000 A 
ATOM     22  C   UNL     1       1.584   7.890  20.567  0.00  0.00    +0.000 A 
ATOM     23  C   UNL     1       0.885   9.006  21.090  0.00  0.00    +0.000 A 
ATOM     24  C   UNL     1       0.805   9.923  20.068  0.00  0.00    +0.000 A 
ATOM     25  O   UNL     1       1.406   9.442  18.951  0.00  0.00    +0.000 OA
ENDBRANCH  20  21
ENDBRANCH   1  20
TORSDOF 7
ENDMDL
MODEL 9
REMARK VINA RESULT:      -7.4      3.458      5.289
REMARK  Name = 
REMARK  7 active torsions:
REMARK  status: ('A' for Active; 'I' for Inactive)
REMARK    1  A    between atoms: C_4  and  C_5
REMARK    2  A    between atoms: C_5  and  N_6
REMARK    3  A    between atoms: N_6  and  C_7
REMARK    4  A    between atoms: N_6  and  C_18
REMARK    5  A    between atoms: C_7  and  C_8
REMARK    6  A    between atoms: C_8  and  C_9
REMARK    7  A    between atoms: C_18  and  C_19
REMARK                            x       y       z     vdW  Elec       q    Type
REMARK                         _______ _______ _______ _____ _____    ______ ____
ROOT
ATOM      1  N   UNL     1       4.531   5.260  16.760  0.00  0.00    +0.000 NA
ENDROOT
BRANCH   1   2
ATOM      2  C   UNL     1       4.502   3.851  17.235  0.00  0.00    +0.000 C 
BRANCH   2   6
ATOM      3  C   UNL     1       1.159   3.307  18.763  0.00  0.00    +0.000 A 
ATOM      4  C   UNL     1       2.082   3.061  19.752  0.00  0.00    +0.000 A 
ATOM      5  O   UNL     1       3.344   3.181  19.268  0.00  0.00    +0.000 OA
ATOM      6  C   UNL     1       3.232   3.525  17.951  0.00  0.00    +0.000 A 
ATOM      7  C   UNL     1       1.901   3.577  17.589  0.00  0.00    +0.000 A 
ENDBRANCH   2   6
ENDBRANCH   1   2
BRANCH   1   8
ATOM      8  C   UNL     1       4.246   6.185  17.894  0.00  0.00    +0.000 C 
BRANCH   8   9
ATOM      9  C   UNL     1       3.092   7.168  17.626  0.00  0.00    +0.000 C 
BRANCH   9  10
ATOM     10  C   UNL     1       2.352   7.554  18.868  0.00  0.00    +0.000 A 
ATOM     11  C   UNL     1       2.278   6.811  20.030  0.00  0.00    +0.000 A 
ATOM     12  N   UNL     1       1.569   7.523  20.953  0.00  0.00    +0.000 N 
ATOM     13  C   UNL     1       1.168   8.727  20.423  0.00  0.00    +0.000 A 
ATOM     14  C   UNL     1       0.450   9.774  21.011  0.00  0.00    +0.000 A 
ATOM     15  C   UNL     1       0.178  10.895  20.223  0.00  0.00    +0.000 A 
ATOM     16  C   UNL     1       0.604  10.960  18.899  0.00  0.00    +0.000 A 
ATOM     17  C   UNL     1       1.329   9.906  18.329  0.00  0.00    +0.000 A 
ATOM     18  C   UNL     1       1.626   8.767  19.105  0.00  0.00    +0.000 A 
ATOM     19  H   UNL     1       1.374   7.225  21.900  0.00  0.00    +0.000 HD
ENDBRANCH   9  10
ENDBRANCH   8   9
ENDBRANCH   1   8
BRANCH   1  20
ATOM     20  C   UNL     1       5.860   5.565  16.184  0.00  0.00    +0.000 C 
BRANCH  20  21
ATOM     21  C   UNL     1       6.770   6.319  17.095  0.00  0.00    +0.000 A 
ATOM     22  C   UNL     1       7.482   5.979  18.229  0.00  0.00    +0.000 A 
ATOM     23  C   UNL     1       8.231   7.127  18.584  0.00  0.00    +0.000 A 
ATOM     24  C   UNL     1       7.926   8.090  17.651  0.00  0.00    +0.000 A 
ATOM     25  O   UNL     1       7.035   7.609  16.747  0.00  0.00    +0.000 OA
ENDBRANCH  20  21
ENDBRANCH   1  20
TORSDOF 7
ENDMDL
