MODEL 1
REMARK VINA RESULT:      -8.4      0.000      0.000
REMARK  Name = 
REMARK  6 active torsions:
REMARK  status: ('A' for Active; 'I' for Inactive)
REMARK    1  A    between atoms: C_1  and  O_2
REMARK    2  A    between atoms: O_2  and  C_3
REMARK    3  A    between atoms: C_6  and  C_7
REMARK    4  A    between atoms: N_11  and  C_12
REMARK    5  A    between atoms: C_15  and  S_16
REMARK    6  A    between atoms: S_16  and  N_17
REMARK                            x       y       z     vdW  Elec       q    Type
REMARK                         _______ _______ _______ _____ _____    ______ ____
ROOT
ATOM      1  C   UNL     1       3.379   3.794  19.417  0.00  0.00    +0.000 C 
ATOM      2  N   UNL     1       3.096   2.534  19.674  0.00  0.00    +0.000 NA
ATOM      3  C   UNL     1       1.984   2.581  20.657  0.00  0.00    +0.000 C 
ATOM      4  C   UNL     1       1.847   4.036  21.116  0.00  0.00    +0.000 C 
ATOM      5  N   UNL     1       2.640   4.729  20.112  0.00  0.00    +0.000 N 
ENDROOT
BRANCH   1   9
ATOM      6  C   UNL     1       6.635   4.743  16.763  0.00  0.00    +0.000 A 
ATOM      7  C   UNL     1       5.501   4.062  16.293  0.00  0.00    +0.000 A 
ATOM      8  C   UNL     1       4.437   3.755  17.141  0.00  0.00    +0.000 A 
ATOM      9  C   UNL     1       4.503   4.100  18.490  0.00  0.00    +0.000 A 
ATOM     10  C   UNL     1       5.619   4.792  18.970  0.00  0.00    +0.000 A 
ATOM     11  C   UNL     1       6.680   5.123  18.114  0.00  0.00    +0.000 A 
ATOM     12 CL   UNL     1       7.944   6.058  18.828  0.00  0.00    +0.000 Cl
BRANCH   6  14
ATOM     13  C   UNL     1       7.093   4.866  14.416  0.00  0.00    +0.000 C 
ATOM     14  O   UNL     1       7.526   5.009  15.761  0.00  0.00    +0.000 OA
ENDBRANCH   6  14
ENDBRANCH   1   9
BRANCH   5  15
ATOM     15  C   UNL     1       2.295   6.042  19.766  0.00  0.00    +0.000 A 
ATOM     16  C   UNL     1       1.765   6.924  20.727  0.00  0.00    +0.000 A 
ATOM     17  C   UNL     1       1.461   8.252  20.415  0.00  0.00    +0.000 A 
ATOM     18  C   UNL     1       1.697   8.727  19.125  0.00  0.00    +0.000 A 
ATOM     19  C   UNL     1       2.198   7.876  18.144  0.00  0.00    +0.000 A 
ATOM     20  C   UNL     1       2.477   6.545  18.465  0.00  0.00    +0.000 A 
BRANCH  18  21
ATOM     21  S   UNL     1       1.290  10.398  18.716  0.00  0.00    +0.000 S 
ATOM     22  O   UNL     1       0.824  11.079  19.902  0.00  0.00    +0.000 OA
ATOM     23  O   UNL     1       2.324  10.943  17.868  0.00  0.00    +0.000 OA
BRANCH  21  24
ATOM     24  N   UNL     1      -0.059  10.203  17.738  0.00  0.00    +0.000 NA
ATOM     25  H   UNL     1      -0.869  10.641  18.176  0.00  0.00    +0.000 HD
ATOM     26  H   UNL     1       0.141  10.556  16.802  0.00  0.00    +0.000 HD
ENDBRANCH  21  24
ENDBRANCH  18  21
ENDBRANCH   5  15
TORSDOF 5
ENDMDL
MODEL 2
REMARK VINA RESULT:      -8.3      0.725      1.301
REMARK  Name = 
REMARK  6 active torsions:
REMARK  status: ('A' for Active; 'I' for Inactive)
REMARK    1  A    between atoms: C_1  and  O_2
REMARK    2  A    between atoms: O_2  and  C_3
REMARK    3  A    between atoms: C_6  and  C_7
REMARK    4  A    between atoms: N_11  and  C_12
REMARK    5  A    between atoms: C_15  and  S_16
REMARK    6  A    between atoms: S_16  and  N_17
REMARK                            x       y       z     vdW  Elec       q    Type
REMARK                         _______ _______ _______ _____ _____    ______ ____
ROOT
ATOM      1  C   UNL     1       3.508   3.992  19.329  0.00  0.00    +0.000 C 
ATOM      2  N   UNL     1       3.264   2.719  19.557  0.00  0.00    +0.000 NA
ATOM      3  C   UNL     1       2.191   2.710  20.584  0.00  0.00    +0.000 C 
ATOM      4  C   UNL     1       2.039   4.146  21.093  0.00  0.00    +0.000 C 
ATOM      5  N   UNL     1       2.776   4.888  20.082  0.00  0.00    +0.000 N 
ENDROOT
BRANCH   1   9
ATOM      6  C   UNL     1       6.631   5.101  16.579  0.00  0.00    +0.000 A 
ATOM      7  C   UNL     1       5.521   4.359  16.144  0.00  0.00    +0.000 A 
ATOM      8  C   UNL     1       4.500   4.000  17.023  0.00  0.00    +0.000 A 
ATOM      9  C   UNL     1       4.587   4.354  18.369  0.00  0.00    +0.000 A 
ATOM     10  C   UNL     1       5.677   5.105  18.814  0.00  0.00    +0.000 A 
ATOM     11  C   UNL     1       6.694   5.489  17.927  0.00  0.00    +0.000 A 
ATOM     12 CL   UNL     1       7.927   6.492  18.601  0.00  0.00    +0.000 Cl
BRANCH   6  14
ATOM     13  C   UNL     1       7.141   4.969  14.243  0.00  0.00    +0.000 C 
ATOM     14  O   UNL     1       7.477   5.409  15.550  0.00  0.00    +0.000 OA
ENDBRANCH   6  14
ENDBRANCH   1   9
BRANCH   5  15
ATOM     15  C   UNL     1       2.388   6.202  19.791  0.00  0.00    +0.000 A 
ATOM     16  C   UNL     1       2.542   6.727  18.494  0.00  0.00    +0.000 A 
ATOM     17  C   UNL     1       2.116   8.019  18.170  0.00  0.00    +0.000 A 
ATOM     18  C   UNL     1       1.512   8.809  19.147  0.00  0.00    +0.000 A 
ATOM     19  C   UNL     1       1.365   8.330  20.446  0.00  0.00    +0.000 A 
ATOM     20  C   UNL     1       1.815   7.045  20.760  0.00  0.00    +0.000 A 
BRANCH  18  21
ATOM     21  S   UNL     1       0.996  10.453  18.752  0.00  0.00    +0.000 S 
ATOM     22  O   UNL     1      -0.283  10.403  18.082  0.00  0.00    +0.000 OA
ATOM     23  O   UNL     1       1.240  11.311  19.888  0.00  0.00    +0.000 OA
BRANCH  21  24
ATOM     24  N   UNL     1       2.110  10.901  17.582  0.00  0.00    +0.000 NA
ATOM     25  H   UNL     1       2.082  10.239  16.806  0.00  0.00    +0.000 HD
ATOM     26  H   UNL     1       1.944  11.867  17.300  0.00  0.00    +0.000 HD
ENDBRANCH  21  24
ENDBRANCH  18  21
ENDBRANCH   5  15
TORSDOF 5
ENDMDL
MODEL 3
REMARK VINA RESULT:      -7.4      1.660      2.020
REMARK  Name = 
REMARK  6 active torsions:
REMARK  status: ('A' for Active; 'I' for Inactive)
REMARK    1  A    between atoms: C_1  and  O_2
REMARK    2  A    between atoms: O_2  and  C_3
REMARK    3  A    between atoms: C_6  and  C_7
REMARK    4  A    between atoms: N_11  and  C_12
REMARK    5  A    between atoms: C_15  and  S_16
REMARK    6  A    between atoms: S_16  and  N_17
REMARK                            x       y       z     vdW  Elec       q    Type
REMARK                         _______ _______ _______ _____ _____    ______ ____
ROOT
ATOM      1  C   UNL     1       4.128   3.891  18.678  0.00  0.00    +0.000 C 
ATOM      2  N   UNL     1       4.053   2.599  18.916  0.00  0.00    +0.000 NA
ATOM      3  C   UNL     1       3.106   2.471  20.054  0.00  0.00    +0.000 C 
ATOM      4  C   UNL     1       2.854   3.882  20.594  0.00  0.00    +0.000 C 
ATOM      5  N   UNL     1       3.389   4.700  19.517  0.00  0.00    +0.000 N 
ENDROOT
BRANCH   1   9
ATOM      6  C   UNL     1       6.783   5.213  15.557  0.00  0.00    +0.000 A 
ATOM      7  C   UNL     1       7.051   5.513  16.902  0.00  0.00    +0.000 A 
ATOM      8  C   UNL     1       6.203   5.085  17.922  0.00  0.00    +0.000 A 
ATOM      9  C   UNL     1       5.048   4.369  17.610  0.00  0.00    +0.000 A 
ATOM     10  C   UNL     1       4.776   4.050  16.277  0.00  0.00    +0.000 A 
ATOM     11  C   UNL     1       5.640   4.459  15.251  0.00  0.00    +0.000 A 
ATOM     12 CL   UNL     1       5.222   3.910  13.667  0.00  0.00    +0.000 Cl
BRANCH   6  14
ATOM     13  C   UNL     1       7.796   5.185  13.387  0.00  0.00    +0.000 C 
ATOM     14  O   UNL     1       7.772   5.661  14.724  0.00  0.00    +0.000 OA
ENDBRANCH   6  14
ENDBRANCH   1   9
BRANCH   5  15
ATOM     15  C   UNL     1       2.828   5.963  19.285  0.00  0.00    +0.000 A 
ATOM     16  C   UNL     1       2.139   6.643  20.307  0.00  0.00    +0.000 A 
ATOM     17  C   UNL     1       1.616   7.925  20.113  0.00  0.00    +0.000 A 
ATOM     18  C   UNL     1       1.787   8.558  18.882  0.00  0.00    +0.000 A 
ATOM     19  C   UNL     1       2.442   7.905  17.841  0.00  0.00    +0.000 A 
ATOM     20  C   UNL     1       2.941   6.616  18.045  0.00  0.00    +0.000 A 
BRANCH  18  21
ATOM     21  S   UNL     1       1.104  10.167  18.620  0.00  0.00    +0.000 S 
ATOM     22  O   UNL     1      -0.162  10.042  17.936  0.00  0.00    +0.000 OA
ATOM     23  O   UNL     1       1.258  10.948  19.825  0.00  0.00    +0.000 OA
BRANCH  21  24
ATOM     24  N   UNL     1       2.168  10.824  17.502  0.00  0.00    +0.000 NA
ATOM     25  H   UNL     1       3.097  10.423  17.632  0.00  0.00    +0.000 HD
ATOM     26  H   UNL     1       1.797  10.698  16.559  0.00  0.00    +0.000 HD
ENDBRANCH  21  24
ENDBRANCH  18  21
ENDBRANCH   5  15
TORSDOF 5
ENDMDL
MODEL 4
REMARK VINA RESULT:      -7.3      1.550      2.130
REMARK  Name = 
REMARK  6 active torsions:
REMARK  status: ('A' for Active; 'I' for Inactive)
REMARK    1  A    between atoms: C_1  and  O_2
REMARK    2  A    between atoms: O_2  and  C_3
REMARK    3  A    between atoms: C_6  and  C_7
REMARK    4  A    between atoms: N_11  and  C_12
REMARK    5  A    between atoms: C_15  and  S_16
REMARK    6  A    between atoms: S_16  and  N_17
REMARK                            x       y       z     vdW  Elec       q    Type
REMARK                         _______ _______ _______ _____ _____    ______ ____
ROOT
ATOM      1  C   UNL     1       3.932   3.738  18.412  0.00  0.00    +0.000 C 
ATOM      2  N   UNL     1       3.718   2.444  18.520  0.00  0.00    +0.000 NA
ATOM      3  C   UNL     1       2.733   2.306  19.623  0.00  0.00    +0.000 C 
ATOM      4  C   UNL     1       2.611   3.677  20.295  0.00  0.00    +0.000 C 
ATOM      5  N   UNL     1       3.256   4.535  19.314  0.00  0.00    +0.000 N 
ENDROOT
BRANCH   1   9
ATOM      6  C   UNL     1       6.796   5.067  15.485  0.00  0.00    +0.000 A 
ATOM      7  C   UNL     1       7.014   5.290  16.854  0.00  0.00    +0.000 A 
ATOM      8  C   UNL     1       6.097   4.858  17.812  0.00  0.00    +0.000 A 
ATOM      9  C   UNL     1       4.925   4.218  17.412  0.00  0.00    +0.000 A 
ATOM     10  C   UNL     1       4.702   3.976  16.054  0.00  0.00    +0.000 A 
ATOM     11  C   UNL     1       5.633   4.388  15.090  0.00  0.00    +0.000 A 
ATOM     12 CL   UNL     1       5.266   3.936  13.464  0.00  0.00    +0.000 Cl
BRANCH   6  14
ATOM     13  C   UNL     1       7.832   5.218  13.331  0.00  0.00    +0.000 C 
ATOM     14  O   UNL     1       7.845   5.502  14.722  0.00  0.00    +0.000 OA
ENDBRANCH   6  14
ENDBRANCH   1   9
BRANCH   5  15
ATOM     15  C   UNL     1       2.835   5.866  19.198  0.00  0.00    +0.000 A 
ATOM     16  C   UNL     1       3.002   6.572  17.991  0.00  0.00    +0.000 A 
ATOM     17  C   UNL     1       2.544   7.884  17.839  0.00  0.00    +0.000 A 
ATOM     18  C   UNL     1       1.893   8.512  18.899  0.00  0.00    +0.000 A 
ATOM     19  C   UNL     1       1.731   7.853  20.115  0.00  0.00    +0.000 A 
ATOM     20  C   UNL     1       2.213   6.549  20.259  0.00  0.00    +0.000 A 
BRANCH  18  21
ATOM     21  S   UNL     1       1.335  10.181  18.723  0.00  0.00    +0.000 S 
ATOM     22  O   UNL     1       0.845  10.656  19.996  0.00  0.00    +0.000 OA
ATOM     23  O   UNL     1       2.297  10.920  17.940  0.00  0.00    +0.000 OA
BRANCH  21  24
ATOM     24  N   UNL     1      -0.017   9.999  17.748  0.00  0.00    +0.000 NA
ATOM     25  H   UNL     1       0.065   9.144  17.199  0.00  0.00    +0.000 HD
ATOM     26  H   UNL     1      -0.861  10.038  18.320  0.00  0.00    +0.000 HD
ENDBRANCH  21  24
ENDBRANCH  18  21
ENDBRANCH   5  15
TORSDOF 5
ENDMDL
MODEL 5
REMARK VINA RESULT:      -7.2      1.759      2.225
REMARK  Name = 
REMARK  6 active torsions:
REMARK  status: ('A' for Active; 'I' for Inactive)
REMARK    1  A    between atoms: C_1  and  O_2
REMARK    2  A    between atoms: O_2  and  C_3
REMARK    3  A    between atoms: C_6  and  C_7
REMARK    4  A    between atoms: N_11  and  C_12
REMARK    5  A    between atoms: C_15  and  S_16
REMARK    6  A    between atoms: S_16  and  N_17
REMARK                            x       y       z     vdW  Elec       q    Type
REMARK                         _______ _______ _______ _____ _____    ______ ____
ROOT
ATOM      1  C   UNL     1       3.218   4.708  18.320  0.00  0.00    +0.000 C 
ATOM      2  N   UNL     1       2.970   3.527  17.795  0.00  0.00    +0.000 NA
ATOM      3  C   UNL     1       1.662   3.118  18.369  0.00  0.00    +0.000 C 
ATOM      4  C   UNL     1       1.327   4.112  19.485  0.00  0.00    +0.000 C 
ATOM      5  N   UNL     1       2.279   5.177  19.215  0.00  0.00    +0.000 N 
ENDROOT
BRANCH   1   9
ATOM      6  C   UNL     1       6.935   6.684  17.410  0.00  0.00    +0.000 A 
ATOM      7  C   UNL     1       5.812   6.853  16.585  0.00  0.00    +0.000 A 
ATOM      8  C   UNL     1       4.600   6.224  16.873  0.00  0.00    +0.000 A 
ATOM      9  C   UNL     1       4.500   5.386  17.982  0.00  0.00    +0.000 A 
ATOM     10  C   UNL     1       5.605   5.220  18.821  0.00  0.00    +0.000 A 
ATOM     11  C   UNL     1       6.818   5.870  18.548  0.00  0.00    +0.000 A 
ATOM     12 CL   UNL     1       8.063   5.643  19.723  0.00  0.00    +0.000 Cl
BRANCH   6  14
ATOM     13  C   UNL     1       8.203   8.706  17.603  0.00  0.00    +0.000 C 
ATOM     14  O   UNL     1       7.995   7.440  16.994  0.00  0.00    +0.000 OA
ENDBRANCH   6  14
ENDBRANCH   1   9
BRANCH   5  15
ATOM     15  C   UNL     1       1.934   6.493  19.552  0.00  0.00    +0.000 A 
ATOM     16  C   UNL     1       1.985   7.519  18.589  0.00  0.00    +0.000 A 
ATOM     17  C   UNL     1       1.598   8.828  18.890  0.00  0.00    +0.000 A 
ATOM     18  C   UNL     1       1.138   9.131  20.171  0.00  0.00    +0.000 A 
ATOM     19  C   UNL     1       1.097   8.146  21.155  0.00  0.00    +0.000 A 
ATOM     20  C   UNL     1       1.507   6.847  20.844  0.00  0.00    +0.000 A 
BRANCH  18  21
ATOM     21  S   UNL     1       0.673  10.790  20.568  0.00  0.00    +0.000 S 
ATOM     22  O   UNL     1       0.623  10.941  22.004  0.00  0.00    +0.000 OA
ATOM     23  O   UNL     1       1.405  11.701  19.720  0.00  0.00    +0.000 OA
BRANCH  21  24
ATOM     24  N   UNL     1      -0.920  10.845  20.045  0.00  0.00    +0.000 NA
ATOM     25  H   UNL     1      -1.497  10.241  20.631  0.00  0.00    +0.000 HD
ATOM     26  H   UNL     1      -1.239  11.813  20.016  0.00  0.00    +0.000 HD
ENDBRANCH  21  24
ENDBRANCH  18  21
ENDBRANCH   5  15
TORSDOF 5
ENDMDL
MODEL 6
REMARK VINA RESULT:      -7.2      3.121      6.312
REMARK  Name = 
REMARK  6 active torsions:
REMARK  status: ('A' for Active; 'I' for Inactive)
REMARK    1  A    between atoms: C_1  and  O_2
REMARK    2  A    between atoms: O_2  and  C_3
REMARK    3  A    between atoms: C_6  and  C_7
REMARK    4  A    between atoms: N_11  and  C_12
REMARK    5  A    between atoms: C_15  and  S_16
REMARK    6  A    between atoms: S_16  and  N_17
REMARK                            x       y       z     vdW  Elec       q    Type
REMARK                         _______ _______ _______ _____ _____    ______ ____
ROOT
ATOM      1  C   UNL     1       2.299   4.654  20.515  0.00  0.00    +0.000 C 
ATOM      2  N   UNL     1       1.942   4.160  21.681  0.00  0.00    +0.000 NA
ATOM      3  C   UNL     1       2.299   2.720  21.615  0.00  0.00    +0.000 C 
ATOM      4  C   UNL     1       2.672   2.412  20.162  0.00  0.00    +0.000 C 
ATOM      5  N   UNL     1       2.832   3.751  19.618  0.00  0.00    +0.000 N 
ENDROOT
BRANCH   1   9
ATOM      6  C   UNL     1       1.450   8.801  19.726  0.00  0.00    +0.000 A 
ATOM      7  C   UNL     1       2.152   8.023  18.792  0.00  0.00    +0.000 A 
ATOM      8  C   UNL     1       2.428   6.677  19.033  0.00  0.00    +0.000 A 
ATOM      9  C   UNL     1       2.028   6.091  20.233  0.00  0.00    +0.000 A 
ATOM     10  C   UNL     1       1.315   6.849  21.166  0.00  0.00    +0.000 A 
ATOM     11  C   UNL     1       1.016   8.197  20.916  0.00  0.00    +0.000 A 
ATOM     12 CL   UNL     1       0.049   8.977  22.115  0.00  0.00    +0.000 Cl
BRANCH   6  14
ATOM     13  C   UNL     1       0.032  10.320  18.535  0.00  0.00    +0.000 C 
ATOM     14  O   UNL     1       1.223  10.070  19.267  0.00  0.00    +0.000 OA
ENDBRANCH   6  14
ENDBRANCH   1   9
BRANCH   5  15
ATOM     15  C   UNL     1       3.742   3.952  18.572  0.00  0.00    +0.000 A 
ATOM     16  C   UNL     1       3.355   3.749  17.233  0.00  0.00    +0.000 A 
ATOM     17  C   UNL     1       4.231   3.991  16.171  0.00  0.00    +0.000 A 
ATOM     18  C   UNL     1       5.519   4.457  16.435  0.00  0.00    +0.000 A 
ATOM     19  C   UNL     1       5.943   4.646  17.748  0.00  0.00    +0.000 A 
ATOM     20  C   UNL     1       5.062   4.380  18.799  0.00  0.00    +0.000 A 
BRANCH  18  21
ATOM     21  S   UNL     1       6.642   4.740  15.099  0.00  0.00    +0.000 S 
ATOM     22  O   UNL     1       6.216   5.904  14.357  0.00  0.00    +0.000 OA
ATOM     23  O   UNL     1       7.995   4.581  15.578  0.00  0.00    +0.000 OA
BRANCH  21  24
ATOM     24  N   UNL     1       6.343   3.424  14.103  0.00  0.00    +0.000 NA
ATOM     25  H   UNL     1       7.160   3.238  13.522  0.00  0.00    +0.000 HD
ATOM     26  H   UNL     1       6.052   2.625  14.666  0.00  0.00    +0.000 HD
ENDBRANCH  21  24
ENDBRANCH  18  21
ENDBRANCH   5  15
TORSDOF 5
ENDMDL
MODEL 7
REMARK VINA RESULT:      -7.2      1.839      2.116
REMARK  Name = 
REMARK  6 active torsions:
REMARK  status: ('A' for Active; 'I' for Inactive)
REMARK    1  A    between atoms: C_1  and  O_2
REMARK    2  A    between atoms: O_2  and  C_3
REMARK    3  A    between atoms: C_6  and  C_7
REMARK    4  A    between atoms: N_11  and  C_12
REMARK    5  A    between atoms: C_15  and  S_16
REMARK    6  A    between atoms: S_16  and  N_17
REMARK                            x       y       z     vdW  Elec       q    Type
REMARK                         _______ _______ _______ _____ _____    ______ ____
ROOT
ATOM      1  C   UNL     1       3.302   4.707  18.461  0.00  0.00    +0.000 C 
ATOM      2  N   UNL     1       3.127   3.481  18.015  0.00  0.00    +0.000 NA
ATOM      3  C   UNL     1       1.831   3.042  18.592  0.00  0.00    +0.000 C 
ATOM      4  C   UNL     1       1.419   4.090  19.630  0.00  0.00    +0.000 C 
ATOM      5  N   UNL     1       2.320   5.184  19.304  0.00  0.00    +0.000 N 
ENDROOT
BRANCH   1   9
ATOM      6  C   UNL     1       6.933   6.806  17.485  0.00  0.00    +0.000 A 
ATOM      7  C   UNL     1       5.774   6.980  16.713  0.00  0.00    +0.000 A 
ATOM      8  C   UNL     1       4.590   6.311  17.022  0.00  0.00    +0.000 A 
ATOM      9  C   UNL     1       4.553   5.428  18.100  0.00  0.00    +0.000 A 
ATOM     10  C   UNL     1       5.695   5.256  18.888  0.00  0.00    +0.000 A 
ATOM     11  C   UNL     1       6.880   5.946  18.593  0.00  0.00    +0.000 A 
ATOM     12 CL   UNL     1       8.176   5.703  19.709  0.00  0.00    +0.000 Cl
BRANCH   6  14
ATOM     13  C   UNL     1       8.176   8.838  17.725  0.00  0.00    +0.000 C 
ATOM     14  O   UNL     1       7.958   7.604  17.059  0.00  0.00    +0.000 OA
ENDBRANCH   6  14
ENDBRANCH   1   9
BRANCH   5  15
ATOM     15  C   UNL     1       1.899   6.499  19.542  0.00  0.00    +0.000 A 
ATOM     16  C   UNL     1       1.453   6.892  20.818  0.00  0.00    +0.000 A 
ATOM     17  C   UNL     1       1.076   8.211  21.090  0.00  0.00    +0.000 A 
ATOM     18  C   UNL     1       1.153   9.170  20.081  0.00  0.00    +0.000 A 
ATOM     19  C   UNL     1       1.566   8.811  18.801  0.00  0.00    +0.000 A 
ATOM     20  C   UNL     1       1.919   7.485  18.539  0.00  0.00    +0.000 A 
BRANCH  18  21
ATOM     21  S   UNL     1       0.652  10.833  20.410  0.00  0.00    +0.000 S 
ATOM     22  O   UNL     1      -0.764  10.963  20.155  0.00  0.00    +0.000 OA
ATOM     23  O   UNL     1       1.258  11.274  21.644  0.00  0.00    +0.000 OA
BRANCH  21  24
ATOM     24  N   UNL     1       1.419  11.682  19.184  0.00  0.00    +0.000 NA
ATOM     25  H   UNL     1       1.117  12.656  19.197  0.00  0.00    +0.000 HD
ATOM     26  H   UNL     1       2.430  11.566  19.266  0.00  0.00    +0.000 HD
ENDBRANCH  21  24
ENDBRANCH  18  21
ENDBRANCH   5  15
TORSDOF 5
ENDMDL
MODEL 8
REMARK VINA RESULT:      -7.1      2.134      2.805
REMARK  Name = 
REMARK  6 active torsions:
REMARK  status: ('A' for Active; 'I' for Inactive)
REMARK    1  A    between atoms: C_1  and  O_2
REMARK    2  A    between atoms: O_2  and  C_3
REMARK    3  A    between atoms: C_6  and  C_7
REMARK    4  A    between atoms: N_11  and  C_12
REMARK    5  A    between atoms: C_15  and  S_16
REMARK    6  A    between atoms: S_16  and  N_17
REMARK                            x       y       z     vdW  Elec       q    Type
REMARK                         _______ _______ _______ _____ _____    ______ ____
ROOT
ATOM      1  C   UNL     1       3.989   4.996  17.808  0.00  0.00    +0.000 C 
ATOM      2  N   UNL     1       3.948   3.925  17.044  0.00  0.00    +0.000 NA
ATOM      3  C   UNL     1       2.562   3.408  17.180  0.00  0.00    +0.000 C 
ATOM      4  C   UNL     1       1.899   4.183  18.322  0.00  0.00    +0.000 C 
ATOM      5  N   UNL     1       2.828   5.289  18.494  0.00  0.00    +0.000 N 
ENDROOT
BRANCH   1   9
ATOM      6  C   UNL     1       7.705   7.125  18.247  0.00  0.00    +0.000 A 
ATOM      7  C   UNL     1       6.738   7.554  17.325  0.00  0.00    +0.000 A 
ATOM      8  C   UNL     1       5.527   6.876  17.178  0.00  0.00    +0.000 A 
ATOM      9  C   UNL     1       5.275   5.734  17.936  0.00  0.00    +0.000 A 
ATOM     10  C   UNL     1       6.222   5.305  18.870  0.00  0.00    +0.000 A 
ATOM     11  C   UNL     1       7.430   5.998  19.036  0.00  0.00    +0.000 A 
ATOM     12 CL   UNL     1       8.459   5.404  20.290  0.00  0.00    +0.000 Cl
BRANCH   6  14
ATOM     13  C   UNL     1       8.550   9.366  18.291  0.00  0.00    +0.000 C 
ATOM     14  O   UNL     1       8.784   7.965  18.286  0.00  0.00    +0.000 OA
ENDBRANCH   6  14
ENDBRANCH   1   9
BRANCH   5  15
ATOM     15  C   UNL     1       2.337   6.520  18.947  0.00  0.00    +0.000 A 
ATOM     16  C   UNL     1       2.152   7.594  18.055  0.00  0.00    +0.000 A 
ATOM     17  C   UNL     1       1.617   8.814  18.477  0.00  0.00    +0.000 A 
ATOM     18  C   UNL     1       1.243   8.977  19.810  0.00  0.00    +0.000 A 
ATOM     19  C   UNL     1       1.434   7.945  20.725  0.00  0.00    +0.000 A 
ATOM     20  C   UNL     1       1.989   6.738  20.293  0.00  0.00    +0.000 A 
BRANCH  18  21
ATOM     21  S   UNL     1       0.591  10.527  20.357  0.00  0.00    +0.000 S 
ATOM     22  O   UNL     1      -0.818  10.587  20.046  0.00  0.00    +0.000 OA
ATOM     23  O   UNL     1       1.105  10.818  21.675  0.00  0.00    +0.000 OA
BRANCH  21  24
ATOM     24  N   UNL     1       1.338  11.610  19.317  0.00  0.00    +0.000 NA
ATOM     25  H   UNL     1       2.330  11.678  19.543  0.00  0.00    +0.000 HD
ATOM     26  H   UNL     1       1.157  11.339  18.350  0.00  0.00    +0.000 HD
ENDBRANCH  21  24
ENDBRANCH  18  21
ENDBRANCH   5  15
TORSDOF 5
ENDMDL
MODEL 9
REMARK VINA RESULT:      -6.9      1.523      2.133
REMARK  Name = 
REMARK  6 active torsions:
REMARK  status: ('A' for Active; 'I' for Inactive)
REMARK    1  A    between atoms: C_1  and  O_2
REMARK    2  A    between atoms: O_2  and  C_3
REMARK    3  A    between atoms: C_6  and  C_7
REMARK    4  A    between atoms: N_11  and  C_12
REMARK    5  A    between atoms: C_15  and  S_16
REMARK    6  A    between atoms: S_16  and  N_17
REMARK                            x       y       z     vdW  Elec       q    Type
REMARK                         _______ _______ _______ _____ _____    ______ ____
ROOT
ATOM      1  C   UNL     1       3.697   4.056  18.997  0.00  0.00    +0.000 C 
ATOM      2  N   UNL     1       3.489   2.774  19.211  0.00  0.00    +0.000 NA
ATOM      3  C   UNL     1       2.486   2.724  20.306  0.00  0.00    +0.000 C 
ATOM      4  C   UNL     1       2.346   4.146  20.857  0.00  0.00    +0.000 C 
ATOM      5  N   UNL     1       3.002   4.922  19.816  0.00  0.00    +0.000 N 
ENDROOT
BRANCH   1   9
ATOM      6  C   UNL     1       6.599   5.153  16.012  0.00  0.00    +0.000 A 
ATOM      7  C   UNL     1       6.838   5.408  17.371  0.00  0.00    +0.000 A 
ATOM      8  C   UNL     1       5.909   5.051  18.349  0.00  0.00    +0.000 A 
ATOM      9  C   UNL     1       4.705   4.456  17.977  0.00  0.00    +0.000 A 
ATOM     10  C   UNL     1       4.459   4.182  16.628  0.00  0.00    +0.000 A 
ATOM     11  C   UNL     1       5.402   4.519  15.645  0.00  0.00    +0.000 A 
ATOM     12 CL   UNL     1       5.002   4.035  14.037  0.00  0.00    +0.000 Cl
BRANCH   6  14
ATOM     13  C   UNL     1       7.619   5.198  13.845  0.00  0.00    +0.000 C 
ATOM     14  O   UNL     1       7.662   5.513  15.229  0.00  0.00    +0.000 OA
ENDBRANCH   6  14
ENDBRANCH   1   9
BRANCH   5  15
ATOM     15  C   UNL     1       2.576   6.235  19.581  0.00  0.00    +0.000 A 
ATOM     16  C   UNL     1       2.708   6.818  18.306  0.00  0.00    +0.000 A 
ATOM     17  C   UNL     1       2.244   8.108  18.037  0.00  0.00    +0.000 A 
ATOM     18  C   UNL     1       1.621   8.840  19.048  0.00  0.00    +0.000 A 
ATOM     19  C   UNL     1       1.495   8.304  20.327  0.00  0.00    +0.000 A 
ATOM     20  C   UNL     1       1.983   7.021  20.586  0.00  0.00    +0.000 A 
BRANCH  18  21
ATOM     21  S   UNL     1       1.056  10.483  18.722  0.00  0.00    +0.000 S 
ATOM     22  O   UNL     1       2.119  11.238  18.100  0.00  0.00    +0.000 OA
ATOM     23  O   UNL     1      -0.276  10.424  18.168  0.00  0.00    +0.000 OA
BRANCH  21  24
ATOM     24  N   UNL     1       0.890  11.112  20.268  0.00  0.00    +0.000 NA
ATOM     25  H   UNL     1       1.695  11.698  20.491  0.00  0.00    +0.000 HD
ATOM     26  H   UNL     1      -0.003  11.598  20.348  0.00  0.00    +0.000 HD
ENDBRANCH  21  24
ENDBRANCH  18  21
ENDBRANCH   5  15
TORSDOF 5
ENDMDL
