MODEL 1
REMARK VINA RESULT:      -7.1      0.000      0.000
REMARK  Name = 
REMARK  5 active torsions:
REMARK  status: ('A' for Active; 'I' for Inactive)
REMARK    1  A    between atoms: C_2  and  OXT_3
REMARK    2  A    between atoms: C_2  and  CA_4
REMARK    3  A    between atoms: C_7  and  O_8
REMARK    4  A    between atoms: O_8  and  C_9
REMARK    5  A    between atoms: C_9  and  C_10
REMARK                            x       y       z     vdW  Elec       q    Type
REMARK                         _______ _______ _______ _____ _____    ______ ____
ROOT
ATOM      1  CA  UNL     1       6.038   5.116  15.455  0.00  0.00    +0.000 A 
ATOM      2  C   UNL     1       5.789   4.198  16.464  0.00  0.00    +0.000 A 
ATOM      3  C   UNL     1       5.044   4.626  17.562  0.00  0.00    +0.000 A 
ATOM      4  C   UNL     1       4.590   5.943  17.619  0.00  0.00    +0.000 A 
ATOM      5  C   UNL     1       4.860   6.774  16.535  0.00  0.00    +0.000 A 
ATOM      6  N   UNL     1       5.584   6.404  15.452  0.00  0.00    +0.000 NA
ENDROOT
BRANCH   1   8
ATOM      7  O   UNL     1       7.758   5.416  13.796  0.00  0.00    +0.000 OA
ATOM      8  C   UNL     1       6.860   4.744  14.268  0.00  0.00    +0.000 C 
BRANCH   8   9
ATOM      9  OXT UNL     1       6.450   3.548  13.776  0.00  0.00    +0.000 OA
ATOM     10  HXT UNL     1       7.059   2.847  14.113  0.00  0.00    +0.000 HD
ENDBRANCH   8   9
ENDBRANCH   1   8
BRANCH   4  11
ATOM     11  O   UNL     1       3.912   6.298  18.750  0.00  0.00    +0.000 OA
BRANCH  11  12
ATOM     12  C   UNL     1       2.489   6.182  18.670  0.00  0.00    +0.000 C 
BRANCH  12  13
ATOM     13  C   UNL     1       2.055   4.927  19.382  0.00  0.00    +0.000 A 
ATOM     14  C   UNL     1       1.397   3.909  18.678  0.00  0.00    +0.000 A 
ATOM     15  C   UNL     1       0.990   2.746  19.332  0.00  0.00    +0.000 A 
ATOM     16  C   UNL     1       1.237   2.590  20.694  0.00  0.00    +0.000 A 
ATOM     17  C   UNL     1       1.893   3.597  21.403  0.00  0.00    +0.000 A 
ATOM     18  C   UNL     1       2.301   4.760  20.750  0.00  0.00    +0.000 A 
ENDBRANCH  12  13
ENDBRANCH  11  12
ENDBRANCH   4  11
TORSDOF 5
ENDMDL
MODEL 2
REMARK VINA RESULT:      -7.1      0.401      1.218
REMARK  Name = 
REMARK  5 active torsions:
REMARK  status: ('A' for Active; 'I' for Inactive)
REMARK    1  A    between atoms: C_2  and  OXT_3
REMARK    2  A    between atoms: C_2  and  CA_4
REMARK    3  A    between atoms: C_7  and  O_8
REMARK    4  A    between atoms: O_8  and  C_9
REMARK    5  A    between atoms: C_9  and  C_10
REMARK                            x       y       z     vdW  Elec       q    Type
REMARK                         _______ _______ _______ _____ _____    ______ ____
ROOT
ATOM      1  CA  UNL     1       6.107   5.119  15.434  0.00  0.00    +0.000 A 
ATOM      2  C   UNL     1       5.995   4.240  16.501  0.00  0.00    +0.000 A 
ATOM      3  C   UNL     1       5.258   4.655  17.609  0.00  0.00    +0.000 A 
ATOM      4  C   UNL     1       4.675   5.921  17.618  0.00  0.00    +0.000 A 
ATOM      5  C   UNL     1       4.813   6.711  16.480  0.00  0.00    +0.000 A 
ATOM      6  N   UNL     1       5.525   6.353  15.385  0.00  0.00    +0.000 NA
ENDROOT
BRANCH   1   8
ATOM      7  O   UNL     1       7.830   5.420  13.779  0.00  0.00    +0.000 OA
ATOM      8  C   UNL     1       6.911   4.761  14.230  0.00  0.00    +0.000 C 
BRANCH   8   9
ATOM      9  OXT UNL     1       6.461   3.598  13.699  0.00  0.00    +0.000 OA
ATOM     10  HXT UNL     1       5.528   3.461  13.993  0.00  0.00    +0.000 HD
ENDBRANCH   8   9
ENDBRANCH   1   8
BRANCH   4  11
ATOM     11  O   UNL     1       4.013   6.272  18.760  0.00  0.00    +0.000 OA
BRANCH  11  12
ATOM     12  C   UNL     1       2.590   6.339  18.643  0.00  0.00    +0.000 C 
BRANCH  12  13
ATOM     13  C   UNL     1       1.995   5.027  19.084  0.00  0.00    +0.000 A 
ATOM     14  C   UNL     1       1.825   4.752  20.448  0.00  0.00    +0.000 A 
ATOM     15  C   UNL     1       1.278   3.538  20.862  0.00  0.00    +0.000 A 
ATOM     16  C   UNL     1       0.897   2.588  19.917  0.00  0.00    +0.000 A 
ATOM     17  C   UNL     1       1.061   2.852  18.558  0.00  0.00    +0.000 A 
ATOM     18  C   UNL     1       1.608   4.066  18.142  0.00  0.00    +0.000 A 
ENDBRANCH  12  13
ENDBRANCH  11  12
ENDBRANCH   4  11
TORSDOF 5
ENDMDL
MODEL 3
REMARK VINA RESULT:      -7.1      1.087      1.928
REMARK  Name = 
REMARK  5 active torsions:
REMARK  status: ('A' for Active; 'I' for Inactive)
REMARK    1  A    between atoms: C_2  and  OXT_3
REMARK    2  A    between atoms: C_2  and  CA_4
REMARK    3  A    between atoms: C_7  and  O_8
REMARK    4  A    between atoms: O_8  and  C_9
REMARK    5  A    between atoms: C_9  and  C_10
REMARK                            x       y       z     vdW  Elec       q    Type
REMARK                         _______ _______ _______ _____ _____    ______ ____
ROOT
ATOM      1  CA  UNL     1       6.589   5.084  15.327  0.00  0.00    +0.000 A 
ATOM      2  C   UNL     1       5.371   5.729  15.479  0.00  0.00    +0.000 A 
ATOM      3  C   UNL     1       4.861   5.856  16.770  0.00  0.00    +0.000 A 
ATOM      4  C   UNL     1       5.570   5.330  17.849  0.00  0.00    +0.000 A 
ATOM      5  C   UNL     1       6.803   4.736  17.593  0.00  0.00    +0.000 A 
ATOM      6  N   UNL     1       7.334   4.585  16.356  0.00  0.00    +0.000 NA
ENDROOT
BRANCH   1   8
ATOM      7  O   UNL     1       6.756   4.104  13.133  0.00  0.00    +0.000 OA
ATOM      8  C   UNL     1       7.179   4.876  13.973  0.00  0.00    +0.000 C 
BRANCH   8   9
ATOM      9  OXT UNL     1       8.272   5.664  13.816  0.00  0.00    +0.000 OA
ATOM     10  HXT UNL     1       9.068   5.083  13.744  0.00  0.00    +0.000 HD
ENDBRANCH   8   9
ENDBRANCH   1   8
BRANCH   4  11
ATOM     11  O   UNL     1       4.979   5.450  19.075  0.00  0.00    +0.000 OA
BRANCH  11  12
ATOM     12  C   UNL     1       3.658   5.996  19.063  0.00  0.00    +0.000 C 
BRANCH  12  13
ATOM     13  C   UNL     1       2.669   4.904  19.377  0.00  0.00    +0.000 A 
ATOM     14  C   UNL     1       2.364   4.589  20.709  0.00  0.00    +0.000 A 
ATOM     15  C   UNL     1       1.452   3.576  21.004  0.00  0.00    +0.000 A 
ATOM     16  C   UNL     1       0.836   2.871  19.973  0.00  0.00    +0.000 A 
ATOM     17  C   UNL     1       1.131   3.178  18.645  0.00  0.00    +0.000 A 
ATOM     18  C   UNL     1       2.043   4.190  18.347  0.00  0.00    +0.000 A 
ENDBRANCH  12  13
ENDBRANCH  11  12
ENDBRANCH   4  11
TORSDOF 5
ENDMDL
MODEL 4
REMARK VINA RESULT:      -7.0      1.345      1.938
REMARK  Name = 
REMARK  5 active torsions:
REMARK  status: ('A' for Active; 'I' for Inactive)
REMARK    1  A    between atoms: C_2  and  OXT_3
REMARK    2  A    between atoms: C_2  and  CA_4
REMARK    3  A    between atoms: C_7  and  O_8
REMARK    4  A    between atoms: O_8  and  C_9
REMARK    5  A    between atoms: C_9  and  C_10
REMARK                            x       y       z     vdW  Elec       q    Type
REMARK                         _______ _______ _______ _____ _____    ______ ____
ROOT
ATOM      1  CA  UNL     1       6.832   4.892  14.470  0.00  0.00    +0.000 A 
ATOM      2  C   UNL     1       5.623   4.230  14.623  0.00  0.00    +0.000 A 
ATOM      3  C   UNL     1       5.087   4.146  15.908  0.00  0.00    +0.000 A 
ATOM      4  C   UNL     1       5.775   4.707  16.982  0.00  0.00    +0.000 A 
ATOM      5  C   UNL     1       6.961   5.385  16.716  0.00  0.00    +0.000 A 
ATOM      6  N   UNL     1       7.522   5.486  15.488  0.00  0.00    +0.000 NA
ENDROOT
BRANCH   1   8
ATOM      7  O   UNL     1       8.338   5.802  12.826  0.00  0.00    +0.000 OA
ATOM      8  C   UNL     1       7.487   4.989  13.134  0.00  0.00    +0.000 C 
BRANCH   8   9
ATOM      9  OXT UNL     1       6.984   4.045  12.300  0.00  0.00    +0.000 OA
ATOM     10  HXT UNL     1       7.704   3.750  11.692  0.00  0.00    +0.000 HD
ENDBRANCH   8   9
ENDBRANCH   1   8
BRANCH   4  11
ATOM     11  O   UNL     1       5.209   4.538  18.214  0.00  0.00    +0.000 OA
BRANCH  11  12
ATOM     12  C   UNL     1       4.126   5.421  18.514  0.00  0.00    +0.000 C 
BRANCH  12  13
ATOM     13  C   UNL     1       2.951   4.615  19.002  0.00  0.00    +0.000 A 
ATOM     14  C   UNL     1       2.537   4.708  20.339  0.00  0.00    +0.000 A 
ATOM     15  C   UNL     1       1.453   3.961  20.797  0.00  0.00    +0.000 A 
ATOM     16  C   UNL     1       0.771   3.115  19.925  0.00  0.00    +0.000 A 
ATOM     17  C   UNL     1       1.173   3.016  18.593  0.00  0.00    +0.000 A 
ATOM     18  C   UNL     1       2.258   3.763  18.133  0.00  0.00    +0.000 A 
ENDBRANCH  12  13
ENDBRANCH  11  12
ENDBRANCH   4  11
TORSDOF 5
ENDMDL
MODEL 5
REMARK VINA RESULT:      -7.0      1.328      1.538
REMARK  Name = 
REMARK  5 active torsions:
REMARK  status: ('A' for Active; 'I' for Inactive)
REMARK    1  A    between atoms: C_2  and  OXT_3
REMARK    2  A    between atoms: C_2  and  CA_4
REMARK    3  A    between atoms: C_7  and  O_8
REMARK    4  A    between atoms: O_8  and  C_9
REMARK    5  A    between atoms: C_9  and  C_10
REMARK                            x       y       z     vdW  Elec       q    Type
REMARK                         _______ _______ _______ _____ _____    ______ ____
ROOT
ATOM      1  CA  UNL     1       6.805   4.882  14.480  0.00  0.00    +0.000 A 
ATOM      2  C   UNL     1       5.551   4.309  14.623  0.00  0.00    +0.000 A 
ATOM      3  C   UNL     1       5.010   4.244  15.906  0.00  0.00    +0.000 A 
ATOM      4  C   UNL     1       5.736   4.736  16.989  0.00  0.00    +0.000 A 
ATOM      5  C   UNL     1       6.970   5.329  16.733  0.00  0.00    +0.000 A 
ATOM      6  N   UNL     1       7.537   5.408  15.506  0.00  0.00    +0.000 NA
ENDROOT
BRANCH   1   8
ATOM      7  O   UNL     1       8.316   5.761  12.823  0.00  0.00    +0.000 OA
ATOM      8  C   UNL     1       7.466   4.952  13.144  0.00  0.00    +0.000 C 
BRANCH   8   9
ATOM      9  OXT UNL     1       6.969   3.988  12.329  0.00  0.00    +0.000 OA
ATOM     10  HXT UNL     1       5.992   4.114  12.257  0.00  0.00    +0.000 HD
ENDBRANCH   8   9
ENDBRANCH   1   8
BRANCH   4  11
ATOM     11  O   UNL     1       5.159   4.590  18.218  0.00  0.00    +0.000 OA
BRANCH  11  12
ATOM     12  C   UNL     1       4.037   5.439  18.471  0.00  0.00    +0.000 C 
BRANCH  12  13
ATOM     13  C   UNL     1       2.895   4.608  18.992  0.00  0.00    +0.000 A 
ATOM     14  C   UNL     1       2.192   3.754  18.129  0.00  0.00    +0.000 A 
ATOM     15  C   UNL     1       1.132   2.984  18.606  0.00  0.00    +0.000 A 
ATOM     16  C   UNL     1       0.763   3.060  19.947  0.00  0.00    +0.000 A 
ATOM     17  C   UNL     1       1.456   3.905  20.814  0.00  0.00    +0.000 A 
ATOM     18  C   UNL     1       2.518   4.676  20.339  0.00  0.00    +0.000 A 
ENDBRANCH  12  13
ENDBRANCH  11  12
ENDBRANCH   4  11
TORSDOF 5
ENDMDL
MODEL 6
REMARK VINA RESULT:      -7.0      1.711      2.183
REMARK  Name = 
REMARK  5 active torsions:
REMARK  status: ('A' for Active; 'I' for Inactive)
REMARK    1  A    between atoms: C_2  and  OXT_3
REMARK    2  A    between atoms: C_2  and  CA_4
REMARK    3  A    between atoms: C_7  and  O_8
REMARK    4  A    between atoms: O_8  and  C_9
REMARK    5  A    between atoms: C_9  and  C_10
REMARK                            x       y       z     vdW  Elec       q    Type
REMARK                         _______ _______ _______ _____ _____    ______ ____
ROOT
ATOM      1  CA  UNL     1       6.875   4.787  14.418  0.00  0.00    +0.000 A 
ATOM      2  C   UNL     1       5.525   4.472  14.402  0.00  0.00    +0.000 A 
ATOM      3  C   UNL     1       4.903   4.220  15.625  0.00  0.00    +0.000 A 
ATOM      4  C   UNL     1       5.644   4.279  16.803  0.00  0.00    +0.000 A 
ATOM      5  C   UNL     1       6.985   4.644  16.714  0.00  0.00    +0.000 A 
ATOM      6  N   UNL     1       7.632   4.891  15.551  0.00  0.00    +0.000 NA
ENDROOT
BRANCH   1   8
ATOM      7  O   UNL     1       7.369   4.510  12.078  0.00  0.00    +0.000 OA
ATOM      8  C   UNL     1       7.618   5.031  13.149  0.00  0.00    +0.000 C 
BRANCH   8   9
ATOM      9  OXT UNL     1       8.628   5.910  13.362  0.00  0.00    +0.000 OA
ATOM     10  HXT UNL     1       9.063   5.684  14.220  0.00  0.00    +0.000 HD
ENDBRANCH   8   9
ENDBRANCH   1   8
BRANCH   4  11
ATOM     11  O   UNL     1       4.974   3.970  17.953  0.00  0.00    +0.000 OA
BRANCH  11  12
ATOM     12  C   UNL     1       3.916   3.019  17.804  0.00  0.00    +0.000 C 
BRANCH  12  13
ATOM     13  C   UNL     1       3.024   3.080  19.016  0.00  0.00    +0.000 A 
ATOM     14  C   UNL     1       1.723   3.593  18.910  0.00  0.00    +0.000 A 
ATOM     15  C   UNL     1       0.893   3.654  20.029  0.00  0.00    +0.000 A 
ATOM     16  C   UNL     1       1.355   3.204  21.264  0.00  0.00    +0.000 A 
ATOM     17  C   UNL     1       2.647   2.691  21.380  0.00  0.00    +0.000 A 
ATOM     18  C   UNL     1       3.478   2.628  20.262  0.00  0.00    +0.000 A 
ENDBRANCH  12  13
ENDBRANCH  11  12
ENDBRANCH   4  11
TORSDOF 5
ENDMDL
MODEL 7
REMARK VINA RESULT:      -7.0      1.509      1.986
REMARK  Name = 
REMARK  5 active torsions:
REMARK  status: ('A' for Active; 'I' for Inactive)
REMARK    1  A    between atoms: C_2  and  OXT_3
REMARK    2  A    between atoms: C_2  and  CA_4
REMARK    3  A    between atoms: C_7  and  O_8
REMARK    4  A    between atoms: O_8  and  C_9
REMARK    5  A    between atoms: C_9  and  C_10
REMARK                            x       y       z     vdW  Elec       q    Type
REMARK                         _______ _______ _______ _____ _____    ______ ____
ROOT
ATOM      1  CA  UNL     1       6.842   4.777  14.806  0.00  0.00    +0.000 A 
ATOM      2  C   UNL     1       5.717   4.016  15.084  0.00  0.00    +0.000 A 
ATOM      3  C   UNL     1       5.308   3.925  16.415  0.00  0.00    +0.000 A 
ATOM      4  C   UNL     1       6.036   4.578  17.408  0.00  0.00    +0.000 A 
ATOM      5  C   UNL     1       7.128   5.349  17.018  0.00  0.00    +0.000 A 
ATOM      6  N   UNL     1       7.565   5.461  15.741  0.00  0.00    +0.000 NA
ENDROOT
BRANCH   1   8
ATOM      7  O   UNL     1       6.964   4.245  12.460  0.00  0.00    +0.000 OA
ATOM      8  C   UNL     1       7.362   4.889  13.413  0.00  0.00    +0.000 C 
BRANCH   8   9
ATOM      9  OXT UNL     1       8.359   5.807  13.362  0.00  0.00    +0.000 OA
ATOM     10  HXT UNL     1       8.774   5.768  12.466  0.00  0.00    +0.000 HD
ENDBRANCH   8   9
ENDBRANCH   1   8
BRANCH   4  11
ATOM     11  O   UNL     1       5.602   4.398  18.690  0.00  0.00    +0.000 OA
BRANCH  11  12
ATOM     12  C   UNL     1       4.607   5.325  19.133  0.00  0.00    +0.000 C 
BRANCH  12  13
ATOM     13  C   UNL     1       3.399   4.563  19.611  0.00  0.00    +0.000 A 
ATOM     14  C   UNL     1       2.278   5.251  20.098  0.00  0.00    +0.000 A 
ATOM     15  C   UNL     1       1.158   4.551  20.544  0.00  0.00    +0.000 A 
ATOM     16  C   UNL     1       1.147   3.158  20.508  0.00  0.00    +0.000 A 
ATOM     17  C   UNL     1       2.256   2.465  20.024  0.00  0.00    +0.000 A 
ATOM     18  C   UNL     1       3.377   3.164  19.577  0.00  0.00    +0.000 A 
ENDBRANCH  12  13
ENDBRANCH  11  12
ENDBRANCH   4  11
TORSDOF 5
ENDMDL
MODEL 8
REMARK VINA RESULT:      -6.9      1.596      2.069
REMARK  Name = 
REMARK  5 active torsions:
REMARK  status: ('A' for Active; 'I' for Inactive)
REMARK    1  A    between atoms: C_2  and  OXT_3
REMARK    2  A    between atoms: C_2  and  CA_4
REMARK    3  A    between atoms: C_7  and  O_8
REMARK    4  A    between atoms: O_8  and  C_9
REMARK    5  A    between atoms: C_9  and  C_10
REMARK                            x       y       z     vdW  Elec       q    Type
REMARK                         _______ _______ _______ _____ _____    ______ ____
ROOT
ATOM      1  CA  UNL     1       7.137   4.954  14.331  0.00  0.00    +0.000 A 
ATOM      2  C   UNL     1       6.047   4.101  14.245  0.00  0.00    +0.000 A 
ATOM      3  C   UNL     1       5.354   3.814  15.420  0.00  0.00    +0.000 A 
ATOM      4  C   UNL     1       5.775   4.371  16.626  0.00  0.00    +0.000 A 
ATOM      5  C   UNL     1       6.857   5.248  16.598  0.00  0.00    +0.000 A 
ATOM      6  N   UNL     1       7.564   5.550  15.484  0.00  0.00    +0.000 NA
ENDROOT
BRANCH   1   8
ATOM      7  O   UNL     1       8.929   6.002  13.111  0.00  0.00    +0.000 OA
ATOM      8  C   UNL     1       7.952   5.278  13.125  0.00  0.00    +0.000 C 
BRANCH   8   9
ATOM      9  OXT UNL     1       7.435   4.658  12.035  0.00  0.00    +0.000 OA
ATOM     10  HXT UNL     1       7.359   5.319  11.306  0.00  0.00    +0.000 HD
ENDBRANCH   8   9
ENDBRANCH   1   8
BRANCH   4  11
ATOM     11  O   UNL     1       5.075   4.000  17.739  0.00  0.00    +0.000 OA
BRANCH  11  12
ATOM     12  C   UNL     1       3.877   3.260  17.487  0.00  0.00    +0.000 C 
BRANCH  12  13
ATOM     13  C   UNL     1       2.857   3.597  18.543  0.00  0.00    +0.000 A 
ATOM     14  C   UNL     1       1.839   2.684  18.856  0.00  0.00    +0.000 A 
ATOM     15  C   UNL     1       0.890   2.992  19.830  0.00  0.00    +0.000 A 
ATOM     16  C   UNL     1       0.949   4.212  20.500  0.00  0.00    +0.000 A 
ATOM     17  C   UNL     1       1.958   5.126  20.196  0.00  0.00    +0.000 A 
ATOM     18  C   UNL     1       2.908   4.820  19.222  0.00  0.00    +0.000 A 
ENDBRANCH  12  13
ENDBRANCH  11  12
ENDBRANCH   4  11
TORSDOF 5
ENDMDL
MODEL 9
REMARK VINA RESULT:      -6.9      0.863      1.493
REMARK  Name = 
REMARK  5 active torsions:
REMARK  status: ('A' for Active; 'I' for Inactive)
REMARK    1  A    between atoms: C_2  and  OXT_3
REMARK    2  A    between atoms: C_2  and  CA_4
REMARK    3  A    between atoms: C_7  and  O_8
REMARK    4  A    between atoms: O_8  and  C_9
REMARK    5  A    between atoms: C_9  and  C_10
REMARK                            x       y       z     vdW  Elec       q    Type
REMARK                         _______ _______ _______ _____ _____    ______ ____
ROOT
ATOM      1  CA  UNL     1       5.935   5.188  15.807  0.00  0.00    +0.000 A 
ATOM      2  C   UNL     1       5.197   6.360  15.877  0.00  0.00    +0.000 A 
ATOM      3  C   UNL     1       4.597   6.676  17.096  0.00  0.00    +0.000 A 
ATOM      4  C   UNL     1       4.745   5.817  18.183  0.00  0.00    +0.000 A 
ATOM      5  C   UNL     1       5.540   4.686  18.019  0.00  0.00    +0.000 A 
ATOM      6  N   UNL     1       6.135   4.335  16.855  0.00  0.00    +0.000 NA
ENDROOT
BRANCH   1   8
ATOM      7  O   UNL     1       6.150   3.896  13.786  0.00  0.00    +0.000 OA
ATOM      8  C   UNL     1       6.574   4.763  14.528  0.00  0.00    +0.000 C 
BRANCH   8   9
ATOM      9  OXT UNL     1       7.708   5.475  14.316  0.00  0.00    +0.000 OA
ATOM     10  HXT UNL     1       8.098   5.192  13.453  0.00  0.00    +0.000 HD
ENDBRANCH   8   9
ENDBRANCH   1   8
BRANCH   4  11
ATOM     11  O   UNL     1       4.085   6.172  19.326  0.00  0.00    +0.000 OA
BRANCH  11  12
ATOM     12  C   UNL     1       2.664   6.276  19.201  0.00  0.00    +0.000 C 
BRANCH  12  13
ATOM     13  C   UNL     1       2.046   4.924  19.447  0.00  0.00    +0.000 A 
ATOM     14  C   UNL     1       1.588   4.152  18.369  0.00  0.00    +0.000 A 
ATOM     15  C   UNL     1       1.012   2.902  18.591  0.00  0.00    +0.000 A 
ATOM     16  C   UNL     1       0.888   2.411  19.889  0.00  0.00    +0.000 A 
ATOM     17  C   UNL     1       1.342   3.171  20.967  0.00  0.00    +0.000 A 
ATOM     18  C   UNL     1       1.918   4.422  20.747  0.00  0.00    +0.000 A 
ENDBRANCH  12  13
ENDBRANCH  11  12
ENDBRANCH   4  11
TORSDOF 5
ENDMDL
