MODEL 1
REMARK VINA RESULT:      -8.1      0.000      0.000
REMARK  Name = 
REMARK  9 active torsions:
REMARK  status: ('A' for Active; 'I' for Inactive)
REMARK    1  A    between atoms: C_1  and  C_2
REMARK    2  A    between atoms: C_5  and  N_6
REMARK    3  A    between atoms: C_7  and  C_9
REMARK    4  A    between atoms: C_9  and  S_10
REMARK    5  A    between atoms: S_10  and  C_11
REMARK    6  A    between atoms: C_13  and  C_14
REMARK    7  A    between atoms: C_15  and  C_16
REMARK    8  A    between atoms: C_16  and  C_17
REMARK    9  A    between atoms: C_23  and  O_24
REMARK                            x       y       z     vdW  Elec       q    Type
REMARK                         _______ _______ _______ _____ _____    ______ ____
ROOT
ATOM      1  C   UNL     1       1.797   7.180  20.274  0.00  0.00    +0.000 A 
ATOM      2  N   UNL     1       1.072   7.908  21.135  0.00  0.00    +0.000 NA
ATOM      3  C   UNL     1       0.651   9.129  20.715  0.00  0.00    +0.000 A 
ATOM      4  C   UNL     1      -0.135   9.930  21.717  0.00  0.00    +0.000 C 
ATOM      5  C   UNL     1       0.921   9.621  19.439  0.00  0.00    +0.000 A 
ATOM      6  C   UNL     1       1.738   8.802  18.677  0.00  0.00    +0.000 A 
ATOM      7  N   UNL     1       2.186   7.605  19.068  0.00  0.00    +0.000 NA
ENDROOT
BRANCH   6   8
ATOM      8  O   UNL     1       2.133   9.118  17.412  0.00  0.00    +0.000 OA
ATOM      9  H   UNL     1       2.784   9.832  17.429  0.00  0.00    +0.000 HD
ENDBRANCH   6   8
BRANCH   1  10
ATOM     10  S   UNL     1       2.374   5.573  20.739  0.00  0.00    +0.000 S 
BRANCH  10  11
ATOM     11  C   UNL     1       1.428   4.482  19.619  0.00  0.00    +0.000 C 
BRANCH  11  13
ATOM     12  N   UNL     1       3.499   4.867  18.300  0.00  0.00    +0.000 N 
ATOM     13  C   UNL     1       2.166   4.424  18.276  0.00  0.00    +0.000 C 
ATOM     14  O   UNL     1       1.574   4.003  17.293  0.00  0.00    +0.000 OA
ATOM     15  H   UNL     1       3.907   5.093  19.202  0.00  0.00    +0.000 HD
BRANCH  12  20
ATOM     16  C   UNL     1       7.004   4.833  13.716  0.00  0.00    +0.000 C 
ATOM     17  C   UNL     1       6.113   4.825  14.910  0.00  0.00    +0.000 A 
ATOM     18  C   UNL     1       5.800   3.643  15.595  0.00  0.00    +0.000 A 
ATOM     19  C   UNL     1       4.950   3.667  16.704  0.00  0.00    +0.000 A 
ATOM     20  C   UNL     1       4.384   4.854  17.177  0.00  0.00    +0.000 A 
ATOM     21  C   UNL     1       4.696   6.038  16.503  0.00  0.00    +0.000 A 
ATOM     22  C   UNL     1       5.559   6.018  15.384  0.00  0.00    +0.000 A 
ENDBRANCH  12  20
ENDBRANCH  11  13
ENDBRANCH  10  11
ENDBRANCH   1  10
BRANCH   5  23
ATOM     23  C   UNL     1       0.319  10.890  18.899  0.00  0.00    +0.000 C 
BRANCH  23  24
ATOM     24  C   UNL     1      -1.115  10.779  18.403  0.00  0.00    +0.000 A 
ATOM     25  C   UNL     1      -2.083  11.644  18.938  0.00  0.00    +0.000 A 
ATOM     26  C   UNL     1      -3.399  11.629  18.469  0.00  0.00    +0.000 A 
ATOM     27  C   UNL     1      -3.766  10.761  17.444  0.00  0.00    +0.000 A 
ATOM     28  C   UNL     1      -2.822   9.896  16.901  0.00  0.00    +0.000 A 
ATOM     29  C   UNL     1      -1.508   9.900  17.379  0.00  0.00    +0.000 A 
ENDBRANCH  23  24
ENDBRANCH   5  23
TORSDOF 7
ENDMDL
MODEL 2
REMARK VINA RESULT:      -8.0      0.123      1.312
REMARK  Name = 
REMARK  9 active torsions:
REMARK  status: ('A' for Active; 'I' for Inactive)
REMARK    1  A    between atoms: C_1  and  C_2
REMARK    2  A    between atoms: C_5  and  N_6
REMARK    3  A    between atoms: C_7  and  C_9
REMARK    4  A    between atoms: C_9  and  S_10
REMARK    5  A    between atoms: S_10  and  C_11
REMARK    6  A    between atoms: C_13  and  C_14
REMARK    7  A    between atoms: C_15  and  C_16
REMARK    8  A    between atoms: C_16  and  C_17
REMARK    9  A    between atoms: C_23  and  O_24
REMARK                            x       y       z     vdW  Elec       q    Type
REMARK                         _______ _______ _______ _____ _____    ______ ____
ROOT
ATOM      1  C   UNL     1       1.760   7.141  20.296  0.00  0.00    +0.000 A 
ATOM      2  N   UNL     1       1.062   7.890  21.161  0.00  0.00    +0.000 NA
ATOM      3  C   UNL     1       0.688   9.129  20.749  0.00  0.00    +0.000 A 
ATOM      4  C   UNL     1      -0.069   9.951  21.756  0.00  0.00    +0.000 C 
ATOM      5  C   UNL     1       0.978   9.619  19.478  0.00  0.00    +0.000 A 
ATOM      6  C   UNL     1       1.765   8.775  18.711  0.00  0.00    +0.000 A 
ATOM      7  N   UNL     1       2.167   7.560  19.094  0.00  0.00    +0.000 NA
ENDROOT
BRANCH   6   8
ATOM      8  O   UNL     1       2.175   9.086  17.449  0.00  0.00    +0.000 OA
ATOM      9  H   UNL     1       2.103   8.316  16.869  0.00  0.00    +0.000 HD
ENDBRANCH   6   8
BRANCH   1  10
ATOM     10  S   UNL     1       2.275   5.510  20.750  0.00  0.00    +0.000 S 
BRANCH  10  11
ATOM     11  C   UNL     1       1.309   4.465  19.603  0.00  0.00    +0.000 C 
BRANCH  11  13
ATOM     12  N   UNL     1       3.378   4.898  18.296  0.00  0.00    +0.000 N 
ATOM     13  C   UNL     1       2.069   4.392  18.272  0.00  0.00    +0.000 C 
ATOM     14  O   UNL     1       1.510   3.908  17.299  0.00  0.00    +0.000 OA
ATOM     15  H   UNL     1       3.763   5.175  19.194  0.00  0.00    +0.000 HD
BRANCH  12  20
ATOM     16  C   UNL     1       7.082   4.828  13.871  0.00  0.00    +0.000 C 
ATOM     17  C   UNL     1       6.113   4.863  15.002  0.00  0.00    +0.000 A 
ATOM     18  C   UNL     1       5.542   6.061  15.453  0.00  0.00    +0.000 A 
ATOM     19  C   UNL     1       4.645   6.061  16.525  0.00  0.00    +0.000 A 
ATOM     20  C   UNL     1       4.280   4.885  17.186  0.00  0.00    +0.000 A 
ATOM     21  C   UNL     1       4.841   3.685  16.738  0.00  0.00    +0.000 A 
ATOM     22  C   UNL     1       5.744   3.681  15.651  0.00  0.00    +0.000 A 
ENDBRANCH  12  20
ENDBRANCH  11  13
ENDBRANCH  10  11
ENDBRANCH   1  10
BRANCH   5  23
ATOM     23  C   UNL     1       0.426  10.914  18.946  0.00  0.00    +0.000 C 
BRANCH  23  24
ATOM     24  C   UNL     1      -1.015  10.865  18.461  0.00  0.00    +0.000 A 
ATOM     25  C   UNL     1      -1.379   9.883  17.526  0.00  0.00    +0.000 A 
ATOM     26  C   UNL     1      -2.704   9.752  17.099  0.00  0.00    +0.000 A 
ATOM     27  C   UNL     1      -3.689  10.588  17.614  0.00  0.00    +0.000 A 
ATOM     28  C   UNL     1      -3.350  11.568  18.541  0.00  0.00    +0.000 A 
ATOM     29  C   UNL     1      -2.023  11.709  18.959  0.00  0.00    +0.000 A 
ENDBRANCH  23  24
ENDBRANCH   5  23
TORSDOF 7
ENDMDL
MODEL 3
REMARK VINA RESULT:      -7.7      5.363      7.937
REMARK  Name = 
REMARK  9 active torsions:
REMARK  status: ('A' for Active; 'I' for Inactive)
REMARK    1  A    between atoms: C_1  and  C_2
REMARK    2  A    between atoms: C_5  and  N_6
REMARK    3  A    between atoms: C_7  and  C_9
REMARK    4  A    between atoms: C_9  and  S_10
REMARK    5  A    between atoms: S_10  and  C_11
REMARK    6  A    between atoms: C_13  and  C_14
REMARK    7  A    between atoms: C_15  and  C_16
REMARK    8  A    between atoms: C_16  and  C_17
REMARK    9  A    between atoms: C_23  and  O_24
REMARK                            x       y       z     vdW  Elec       q    Type
REMARK                         _______ _______ _______ _____ _____    ______ ____
ROOT
ATOM      1  C   UNL     1       5.750   6.329  17.078  0.00  0.00    +0.000 A 
ATOM      2  N   UNL     1       4.877   7.287  17.421  0.00  0.00    +0.000 NA
ATOM      3  C   UNL     1       3.594   6.904  17.647  0.00  0.00    +0.000 A 
ATOM      4  C   UNL     1       2.636   8.008  18.000  0.00  0.00    +0.000 C 
ATOM      5  C   UNL     1       3.177   5.577  17.561  0.00  0.00    +0.000 A 
ATOM      6  C   UNL     1       4.160   4.701  17.130  0.00  0.00    +0.000 A 
ATOM      7  N   UNL     1       5.426   5.048  16.878  0.00  0.00    +0.000 NA
ENDROOT
BRANCH   6   8
ATOM      8  O   UNL     1       3.942   3.367  16.960  0.00  0.00    +0.000 OA
ATOM      9  H   UNL     1       4.739   2.932  16.628  0.00  0.00    +0.000 HD
ENDBRANCH   6   8
BRANCH   1  10
ATOM     10  S   UNL     1       7.446   6.741  16.779  0.00  0.00    +0.000 S 
BRANCH  10  11
ATOM     11  C   UNL     1       8.020   7.249  18.437  0.00  0.00    +0.000 C 
BRANCH  11  13
ATOM     12  N   UNL     1       9.213   9.232  19.344  0.00  0.00    +0.000 N 
ATOM     13  C   UNL     1       8.276   8.761  18.409  0.00  0.00    +0.000 C 
ATOM     14  O   UNL     1       7.674   9.448  17.597  0.00  0.00    +0.000 OA
ATOM     15  H   UNL     1       9.722   8.545  19.891  0.00  0.00    +0.000 HD
BRANCH  12  20
ATOM     16  C   UNL     1      10.843  14.747  19.818  0.00  0.00    +0.000 C 
ATOM     17  C   UNL     1      10.441  13.319  19.682  0.00  0.00    +0.000 A 
ATOM     18  C   UNL     1      10.608  12.612  18.483  0.00  0.00    +0.000 A 
ATOM     19  C   UNL     1      10.209  11.276  18.384  0.00  0.00    +0.000 A 
ATOM     20  C   UNL     1       9.638  10.593  19.460  0.00  0.00    +0.000 A 
ATOM     21  C   UNL     1       9.473  11.289  20.661  0.00  0.00    +0.000 A 
ATOM     22  C   UNL     1       9.880  12.638  20.767  0.00  0.00    +0.000 A 
ENDBRANCH  12  20
ENDBRANCH  11  13
ENDBRANCH  10  11
ENDBRANCH   1  10
BRANCH   5  23
ATOM     23  C   UNL     1       1.807   5.114  17.974  0.00  0.00    +0.000 C 
BRANCH  23  24
ATOM     24  C   UNL     1       1.742   4.330  19.277  0.00  0.00    +0.000 A 
ATOM     25  C   UNL     1       1.155   3.054  19.269  0.00  0.00    +0.000 A 
ATOM     26  C   UNL     1       1.131   2.266  20.423  0.00  0.00    +0.000 A 
ATOM     27  C   UNL     1       1.709   2.733  21.600  0.00  0.00    +0.000 A 
ATOM     28  C   UNL     1       2.295   3.994  21.629  0.00  0.00    +0.000 A 
ATOM     29  C   UNL     1       2.308   4.789  20.479  0.00  0.00    +0.000 A 
ENDBRANCH  23  24
ENDBRANCH   5  23
TORSDOF 7
ENDMDL
MODEL 4
REMARK VINA RESULT:      -7.6      1.216      2.181
REMARK  Name = 
REMARK  9 active torsions:
REMARK  status: ('A' for Active; 'I' for Inactive)
REMARK    1  A    between atoms: C_1  and  C_2
REMARK    2  A    between atoms: C_5  and  N_6
REMARK    3  A    between atoms: C_7  and  C_9
REMARK    4  A    between atoms: C_9  and  S_10
REMARK    5  A    between atoms: S_10  and  C_11
REMARK    6  A    between atoms: C_13  and  C_14
REMARK    7  A    between atoms: C_15  and  C_16
REMARK    8  A    between atoms: C_16  and  C_17
REMARK    9  A    between atoms: C_23  and  O_24
REMARK                            x       y       z     vdW  Elec       q    Type
REMARK                         _______ _______ _______ _____ _____    ______ ____
ROOT
ATOM      1  C   UNL     1       1.773   6.700  20.440  0.00  0.00    +0.000 A 
ATOM      2  N   UNL     1       2.172   7.297  19.307  0.00  0.00    +0.000 NA
ATOM      3  C   UNL     1       1.756   8.573  19.098  0.00  0.00    +0.000 A 
ATOM      4  C   UNL     1       2.197   9.200  17.805  0.00  0.00    +0.000 C 
ATOM      5  C   UNL     1       0.971   9.269  20.015  0.00  0.00    +0.000 A 
ATOM      6  C   UNL     1       0.571   8.514  21.106  0.00  0.00    +0.000 A 
ATOM      7  N   UNL     1       0.945   7.251  21.331  0.00  0.00    +0.000 NA
ENDROOT
BRANCH   6   8
ATOM      8  O   UNL     1      -0.219   9.009  22.101  0.00  0.00    +0.000 OA
ATOM      9  H   UNL     1      -0.043   9.949  22.239  0.00  0.00    +0.000 HD
ENDBRANCH   6   8
BRANCH   1  10
ATOM     10  S   UNL     1       2.283   5.042  20.794  0.00  0.00    +0.000 S 
BRANCH  10  11
ATOM     11  C   UNL     1       1.330   4.074  19.572  0.00  0.00    +0.000 C 
BRANCH  11  13
ATOM     12  N   UNL     1       3.341   4.752  18.278  0.00  0.00    +0.000 N 
ATOM     13  C   UNL     1       2.136   4.030  18.268  0.00  0.00    +0.000 C 
ATOM     14  O   UNL     1       1.701   3.385  17.325  0.00  0.00    +0.000 OA
ATOM     15  H   UNL     1       3.642   5.159  19.158  0.00  0.00    +0.000 HD
BRANCH  12  20
ATOM     16  C   UNL     1       7.151   4.960  13.950  0.00  0.00    +0.000 C 
ATOM     17  C   UNL     1       6.155   4.923  15.056  0.00  0.00    +0.000 A 
ATOM     18  C   UNL     1       5.547   6.088  15.546  0.00  0.00    +0.000 A 
ATOM     19  C   UNL     1       4.624   6.020  16.594  0.00  0.00    +0.000 A 
ATOM     20  C   UNL     1       4.269   4.809  17.191  0.00  0.00    +0.000 A 
ATOM     21  C   UNL     1       4.867   3.642  16.705  0.00  0.00    +0.000 A 
ATOM     22  C   UNL     1       5.795   3.705  15.641  0.00  0.00    +0.000 A 
ENDBRANCH  12  20
ENDBRANCH  11  13
ENDBRANCH  10  11
ENDBRANCH   1  10
BRANCH   5  23
ATOM     23  C   UNL     1       0.646  10.732  19.882  0.00  0.00    +0.000 C 
BRANCH  23  24
ATOM     24  C   UNL     1      -0.732  11.051  19.322  0.00  0.00    +0.000 A 
ATOM     25  C   UNL     1      -1.187  10.339  18.201  0.00  0.00    +0.000 A 
ATOM     26  C   UNL     1      -2.471  10.547  17.689  0.00  0.00    +0.000 A 
ATOM     27  C   UNL     1      -3.328  11.456  18.301  0.00  0.00    +0.000 A 
ATOM     28  C   UNL     1      -2.897  12.172  19.413  0.00  0.00    +0.000 A 
ATOM     29  C   UNL     1      -1.609  11.975  19.918  0.00  0.00    +0.000 A 
ENDBRANCH  23  24
ENDBRANCH   5  23
TORSDOF 7
ENDMDL
MODEL 5
REMARK VINA RESULT:      -7.3      6.198      9.021
REMARK  Name = 
REMARK  9 active torsions:
REMARK  status: ('A' for Active; 'I' for Inactive)
REMARK    1  A    between atoms: C_1  and  C_2
REMARK    2  A    between atoms: C_5  and  N_6
REMARK    3  A    between atoms: C_7  and  C_9
REMARK    4  A    between atoms: C_9  and  S_10
REMARK    5  A    between atoms: S_10  and  C_11
REMARK    6  A    between atoms: C_13  and  C_14
REMARK    7  A    between atoms: C_15  and  C_16
REMARK    8  A    between atoms: C_16  and  C_17
REMARK    9  A    between atoms: C_23  and  O_24
REMARK                            x       y       z     vdW  Elec       q    Type
REMARK                         _______ _______ _______ _____ _____    ______ ____
ROOT
ATOM      1  C   UNL     1       7.015   7.121  17.358  0.00  0.00    +0.000 A 
ATOM      2  N   UNL     1       6.575   6.605  16.201  0.00  0.00    +0.000 NA
ATOM      3  C   UNL     1       6.037   5.359  16.243  0.00  0.00    +0.000 A 
ATOM      4  C   UNL     1       5.582   4.800  14.923  0.00  0.00    +0.000 C 
ATOM      5  C   UNL     1       5.908   4.633  17.425  0.00  0.00    +0.000 A 
ATOM      6  C   UNL     1       6.465   5.251  18.533  0.00  0.00    +0.000 A 
ATOM      7  N   UNL     1       7.021   6.466  18.523  0.00  0.00    +0.000 NA
ENDROOT
BRANCH   6   8
ATOM      8  O   UNL     1       6.461   4.691  19.775  0.00  0.00    +0.000 OA
ATOM      9  H   UNL     1       5.706   5.007  20.288  0.00  0.00    +0.000 HD
ENDBRANCH   6   8
BRANCH   1  10
ATOM     10  S   UNL     1       7.717   8.746  17.393  0.00  0.00    +0.000 S 
BRANCH  10  11
ATOM     11  C   UNL     1       8.676   8.720  18.948  0.00  0.00    +0.000 C 
BRANCH  11  13
ATOM     12  N   UNL     1       9.731  10.739  17.953  0.00  0.00    +0.000 N 
ATOM     13  C   UNL     1       9.318  10.101  19.134  0.00  0.00    +0.000 C 
ATOM     14  O   UNL     1       9.425  10.557  20.263  0.00  0.00    +0.000 OA
ATOM     15  H   UNL     1       9.490  10.301  17.069  0.00  0.00    +0.000 HD
BRANCH  12  20
ATOM     16  C   UNL     1      12.028  16.020  17.605  0.00  0.00    +0.000 C 
ATOM     17  C   UNL     1      11.452  14.650  17.710  0.00  0.00    +0.000 A 
ATOM     18  C   UNL     1      12.262  13.511  17.805  0.00  0.00    +0.000 A 
ATOM     19  C   UNL     1      11.690  12.238  17.890  0.00  0.00    +0.000 A 
ATOM     20  C   UNL     1      10.307  12.046  17.887  0.00  0.00    +0.000 A 
ATOM     21  C   UNL     1       9.492  13.179  17.798  0.00  0.00    +0.000 A 
ATOM     22  C   UNL     1      10.066  14.467  17.718  0.00  0.00    +0.000 A 
ENDBRANCH  12  20
ENDBRANCH  11  13
ENDBRANCH  10  11
ENDBRANCH   1  10
BRANCH   5  23
ATOM     23  C   UNL     1       5.162   3.330  17.516  0.00  0.00    +0.000 C 
BRANCH  23  24
ATOM     24  C   UNL     1       3.772   3.409  18.130  0.00  0.00    +0.000 A 
ATOM     25  C   UNL     1       2.778   4.139  17.458  0.00  0.00    +0.000 A 
ATOM     26  C   UNL     1       1.469   4.188  17.945  0.00  0.00    +0.000 A 
ATOM     27  C   UNL     1       1.127   3.493  19.101  0.00  0.00    +0.000 A 
ATOM     28  C   UNL     1       2.097   2.764  19.781  0.00  0.00    +0.000 A 
ATOM     29  C   UNL     1       3.410   2.725  19.304  0.00  0.00    +0.000 A 
ENDBRANCH  23  24
ENDBRANCH   5  23
TORSDOF 7
ENDMDL
MODEL 6
REMARK VINA RESULT:      -7.3      6.191      8.938
REMARK  Name = 
REMARK  9 active torsions:
REMARK  status: ('A' for Active; 'I' for Inactive)
REMARK    1  A    between atoms: C_1  and  C_2
REMARK    2  A    between atoms: C_5  and  N_6
REMARK    3  A    between atoms: C_7  and  C_9
REMARK    4  A    between atoms: C_9  and  S_10
REMARK    5  A    between atoms: S_10  and  C_11
REMARK    6  A    between atoms: C_13  and  C_14
REMARK    7  A    between atoms: C_15  and  C_16
REMARK    8  A    between atoms: C_16  and  C_17
REMARK    9  A    between atoms: C_23  and  O_24
REMARK                            x       y       z     vdW  Elec       q    Type
REMARK                         _______ _______ _______ _____ _____    ______ ____
ROOT
ATOM      1  C   UNL     1       7.125   6.554  18.029  0.00  0.00    +0.000 A 
ATOM      2  N   UNL     1       6.466   6.943  16.928  0.00  0.00    +0.000 NA
ATOM      3  C   UNL     1       5.502   6.112  16.456  0.00  0.00    +0.000 A 
ATOM      4  C   UNL     1       4.803   6.567  15.204  0.00  0.00    +0.000 C 
ATOM      5  C   UNL     1       5.169   4.911  17.080  0.00  0.00    +0.000 A 
ATOM      6  C   UNL     1       5.973   4.595  18.163  0.00  0.00    +0.000 A 
ATOM      7  N   UNL     1       6.944   5.380  18.641  0.00  0.00    +0.000 NA
ENDROOT
BRANCH   6   8
ATOM      8  O   UNL     1       5.822   3.452  18.891  0.00  0.00    +0.000 OA
ATOM      9  H   UNL     1       5.898   3.639  19.835  0.00  0.00    +0.000 HD
ENDBRANCH   6   8
BRANCH   1  10
ATOM     10  S   UNL     1       8.387   7.586  18.717  0.00  0.00    +0.000 S 
BRANCH  10  11
ATOM     11  C   UNL     1       8.084   9.181  17.880  0.00  0.00    +0.000 C 
BRANCH  11  13
ATOM     12  N   UNL     1       9.077  11.460  17.862  0.00  0.00    +0.000 N 
ATOM     13  C   UNL     1       8.952  10.247  18.560  0.00  0.00    +0.000 C 
ATOM     14  O   UNL     1       9.466   9.992  19.639  0.00  0.00    +0.000 OA
ATOM     15  H   UNL     1       8.514  11.585  17.026  0.00  0.00    +0.000 HD
BRANCH  12  20
ATOM     16  C   UNL     1      12.018  16.023  19.817  0.00  0.00    +0.000 C 
ATOM     17  C   UNL     1      11.240  14.859  19.307  0.00  0.00    +0.000 A 
ATOM     18  C   UNL     1       9.864  14.729  19.536  0.00  0.00    +0.000 A 
ATOM     19  C   UNL     1       9.165  13.618  19.055  0.00  0.00    +0.000 A 
ATOM     20  C   UNL     1       9.795  12.603  18.332  0.00  0.00    +0.000 A 
ATOM     21  C   UNL     1      11.168  12.728  18.095  0.00  0.00    +0.000 A 
ATOM     22  C   UNL     1      11.876  13.852  18.575  0.00  0.00    +0.000 A 
ENDBRANCH  12  20
ENDBRANCH  11  13
ENDBRANCH  10  11
ENDBRANCH   1  10
BRANCH   5  23
ATOM     23  C   UNL     1       3.994   4.066  16.672  0.00  0.00    +0.000 C 
BRANCH  23  24
ATOM     24  C   UNL     1       2.903   3.905  17.721  0.00  0.00    +0.000 A 
ATOM     25  C   UNL     1       2.235   2.674  17.815  0.00  0.00    +0.000 A 
ATOM     26  C   UNL     1       1.272   2.452  18.805  0.00  0.00    +0.000 A 
ATOM     27  C   UNL     1       0.976   3.451  19.727  0.00  0.00    +0.000 A 
ATOM     28  C   UNL     1       1.627   4.678  19.651  0.00  0.00    +0.000 A 
ATOM     29  C   UNL     1       2.580   4.906  18.654  0.00  0.00    +0.000 A 
ENDBRANCH  23  24
ENDBRANCH   5  23
TORSDOF 7
ENDMDL
MODEL 7
REMARK VINA RESULT:      -7.3      6.027      9.043
REMARK  Name = 
REMARK  9 active torsions:
REMARK  status: ('A' for Active; 'I' for Inactive)
REMARK    1  A    between atoms: C_1  and  C_2
REMARK    2  A    between atoms: C_5  and  N_6
REMARK    3  A    between atoms: C_7  and  C_9
REMARK    4  A    between atoms: C_9  and  S_10
REMARK    5  A    between atoms: S_10  and  C_11
REMARK    6  A    between atoms: C_13  and  C_14
REMARK    7  A    between atoms: C_15  and  C_16
REMARK    8  A    between atoms: C_16  and  C_17
REMARK    9  A    between atoms: C_23  and  O_24
REMARK                            x       y       z     vdW  Elec       q    Type
REMARK                         _______ _______ _______ _____ _____    ______ ____
ROOT
ATOM      1  C   UNL     1       7.356   6.289  18.022  0.00  0.00    +0.000 A 
ATOM      2  N   UNL     1       7.079   6.328  16.711  0.00  0.00    +0.000 NA
ATOM      3  C   UNL     1       6.252   5.368  16.222  0.00  0.00    +0.000 A 
ATOM      4  C   UNL     1       5.987   5.425  14.743  0.00  0.00    +0.000 C 
ATOM      5  C   UNL     1       5.677   4.387  17.028  0.00  0.00    +0.000 A 
ATOM      6  C   UNL     1       6.101   4.417  18.347  0.00  0.00    +0.000 A 
ATOM      7  N   UNL     1       6.930   5.335  18.855  0.00  0.00    +0.000 NA
ENDROOT
BRANCH   6   8
ATOM      8  O   UNL     1       5.672   3.527  19.285  0.00  0.00    +0.000 OA
ATOM      9  H   UNL     1       6.418   3.183  19.794  0.00  0.00    +0.000 HD
ENDBRANCH   6   8
BRANCH   1  10
ATOM     10  S   UNL     1       8.415   7.511  18.741  0.00  0.00    +0.000 S 
BRANCH  10  11
ATOM     11  C   UNL     1       7.938   9.022  17.830  0.00  0.00    +0.000 C 
BRANCH  11  13
ATOM     12  N   UNL     1       8.636  11.403  17.683  0.00  0.00    +0.000 N 
ATOM     13  C   UNL     1       8.771  10.189  18.376  0.00  0.00    +0.000 C 
ATOM     14  O   UNL     1       9.478  10.003  19.356  0.00  0.00    +0.000 OA
ATOM     15  H   UNL     1       7.936  11.454  16.950  0.00  0.00    +0.000 HD
BRANCH  12  20
ATOM     16  C   UNL     1      11.298  16.297  19.186  0.00  0.00    +0.000 C 
ATOM     17  C   UNL     1      10.589  15.044  18.801  0.00  0.00    +0.000 A 
ATOM     18  C   UNL     1       9.417  14.627  19.446  0.00  0.00    +0.000 A 
ATOM     19  C   UNL     1       8.783  13.439  19.070  0.00  0.00    +0.000 A 
ATOM     20  C   UNL     1       9.279  12.627  18.047  0.00  0.00    +0.000 A 
ATOM     21  C   UNL     1      10.445  13.039  17.395  0.00  0.00    +0.000 A 
ATOM     22  C   UNL     1      11.086  14.242  17.769  0.00  0.00    +0.000 A 
ENDBRANCH  12  20
ENDBRANCH  11  13
ENDBRANCH  10  11
ENDBRANCH   1  10
BRANCH   5  23
ATOM     23  C   UNL     1       4.628   3.426  16.539  0.00  0.00    +0.000 C 
BRANCH  23  24
ATOM     24  C   UNL     1       3.385   3.310  17.408  0.00  0.00    +0.000 A 
ATOM     25  C   UNL     1       2.622   4.464  17.651  0.00  0.00    +0.000 A 
ATOM     26  C   UNL     1       1.436   4.400  18.387  0.00  0.00    +0.000 A 
ATOM     27  C   UNL     1       0.982   3.179  18.876  0.00  0.00    +0.000 A 
ATOM     28  C   UNL     1       1.723   2.024  18.646  0.00  0.00    +0.000 A 
ATOM     29  C   UNL     1       2.917   2.089  17.922  0.00  0.00    +0.000 A 
ENDBRANCH  23  24
ENDBRANCH   5  23
TORSDOF 7
ENDMDL
MODEL 8
REMARK VINA RESULT:      -7.3      5.567      8.205
REMARK  Name = 
REMARK  9 active torsions:
REMARK  status: ('A' for Active; 'I' for Inactive)
REMARK    1  A    between atoms: C_1  and  C_2
REMARK    2  A    between atoms: C_5  and  N_6
REMARK    3  A    between atoms: C_7  and  C_9
REMARK    4  A    between atoms: C_9  and  S_10
REMARK    5  A    between atoms: S_10  and  C_11
REMARK    6  A    between atoms: C_13  and  C_14
REMARK    7  A    between atoms: C_15  and  C_16
REMARK    8  A    between atoms: C_16  and  C_17
REMARK    9  A    between atoms: C_23  and  O_24
REMARK                            x       y       z     vdW  Elec       q    Type
REMARK                         _______ _______ _______ _____ _____    ______ ____
ROOT
ATOM      1  C   UNL     1       5.876   6.547  17.096  0.00  0.00    +0.000 A 
ATOM      2  N   UNL     1       5.701   5.224  16.970  0.00  0.00    +0.000 NA
ATOM      3  C   UNL     1       4.474   4.728  17.277  0.00  0.00    +0.000 A 
ATOM      4  C   UNL     1       4.322   3.238  17.153  0.00  0.00    +0.000 C 
ATOM      5  C   UNL     1       3.415   5.538  17.683  0.00  0.00    +0.000 A 
ATOM      6  C   UNL     1       3.750   6.873  17.841  0.00  0.00    +0.000 A 
ATOM      7  N   UNL     1       4.952   7.389  17.568  0.00  0.00    +0.000 NA
ENDROOT
BRANCH   6   8
ATOM      8  O   UNL     1       2.858   7.818  18.253  0.00  0.00    +0.000 OA
ATOM      9  H   UNL     1       3.162   8.701  18.007  0.00  0.00    +0.000 HD
ENDBRANCH   6   8
BRANCH   1  10
ATOM     10  S   UNL     1       7.441   7.275  16.703  0.00  0.00    +0.000 S 
BRANCH  10  11
ATOM     11  C   UNL     1       8.127   7.639  18.357  0.00  0.00    +0.000 C 
BRANCH  11  13
ATOM     12  N   UNL     1       9.346   9.521  19.428  0.00  0.00    +0.000 N 
ATOM     13  C   UNL     1       8.446   9.138  18.421  0.00  0.00    +0.000 C 
ATOM     14  O   UNL     1       7.919   9.889  17.613  0.00  0.00    +0.000 OA
ATOM     15  H   UNL     1       9.794   8.787  19.967  0.00  0.00    +0.000 HD
BRANCH  12  20
ATOM     16  C   UNL     1      11.172  14.931  20.263  0.00  0.00    +0.000 C 
ATOM     17  C   UNL     1      10.721  13.529  20.037  0.00  0.00    +0.000 A 
ATOM     18  C   UNL     1      11.035  12.829  18.864  0.00  0.00    +0.000 A 
ATOM     19  C   UNL     1      10.586  11.518  18.677  0.00  0.00    +0.000 A 
ATOM     20  C   UNL     1       9.819  10.855  19.637  0.00  0.00    +0.000 A 
ATOM     21  C   UNL     1       9.506  11.545  20.812  0.00  0.00    +0.000 A 
ATOM     22  C   UNL     1       9.962  12.868  21.007  0.00  0.00    +0.000 A 
ENDBRANCH  12  20
ENDBRANCH  11  13
ENDBRANCH  10  11
ENDBRANCH   1  10
BRANCH   5  23
ATOM     23  C   UNL     1       2.010   5.031  17.860  0.00  0.00    +0.000 C 
BRANCH  23  24
ATOM     24  C   UNL     1       1.751   4.242  19.136  0.00  0.00    +0.000 A 
ATOM     25  C   UNL     1       1.097   3.003  19.042  0.00  0.00    +0.000 A 
ATOM     26  C   UNL     1       0.894   2.209  20.174  0.00  0.00    +0.000 A 
ATOM     27  C   UNL     1       1.358   2.632  21.416  0.00  0.00    +0.000 A 
ATOM     28  C   UNL     1       2.008   3.857  21.530  0.00  0.00    +0.000 A 
ATOM     29  C   UNL     1       2.199   4.658  20.401  0.00  0.00    +0.000 A 
ENDBRANCH  23  24
ENDBRANCH   5  23
TORSDOF 7
ENDMDL
MODEL 9
REMARK VINA RESULT:      -7.2      2.417      8.924
REMARK  Name = 
REMARK  9 active torsions:
REMARK  status: ('A' for Active; 'I' for Inactive)
REMARK    1  A    between atoms: C_1  and  C_2
REMARK    2  A    between atoms: C_5  and  N_6
REMARK    3  A    between atoms: C_7  and  C_9
REMARK    4  A    between atoms: C_9  and  S_10
REMARK    5  A    between atoms: S_10  and  C_11
REMARK    6  A    between atoms: C_13  and  C_14
REMARK    7  A    between atoms: C_15  and  C_16
REMARK    8  A    between atoms: C_16  and  C_17
REMARK    9  A    between atoms: C_23  and  O_24
REMARK                            x       y       z     vdW  Elec       q    Type
REMARK                         _______ _______ _______ _____ _____    ______ ____
ROOT
ATOM      1  C   UNL     1       1.233   8.909  20.228  0.00  0.00    +0.000 A 
ATOM      2  N   UNL     1       1.374   7.699  20.788  0.00  0.00    +0.000 NA
ATOM      3  C   UNL     1       1.976   6.736  20.043  0.00  0.00    +0.000 A 
ATOM      4  C   UNL     1       2.091   5.384  20.691  0.00  0.00    +0.000 C 
ATOM      5  C   UNL     1       2.462   6.972  18.758  0.00  0.00    +0.000 A 
ATOM      6  C   UNL     1       2.188   8.241  18.273  0.00  0.00    +0.000 A 
ATOM      7  N   UNL     1       1.580   9.204  18.972  0.00  0.00    +0.000 NA
ENDROOT
BRANCH   6   8
ATOM      8  O   UNL     1       2.560   8.656  17.029  0.00  0.00    +0.000 OA
ATOM      9  H   UNL     1       2.655   9.617  17.007  0.00  0.00    +0.000 HD
ENDBRANCH   6   8
BRANCH   1  10
ATOM     10  S   UNL     1       0.472  10.223  21.138  0.00  0.00    +0.000 S 
BRANCH  10  11
ATOM     11  C   UNL     1       0.873  11.684  20.118  0.00  0.00    +0.000 C 
BRANCH  11  13
ATOM     12  N   UNL     1      -1.457  11.276  19.356  0.00  0.00    +0.000 N 
ATOM     13  C   UNL     1      -0.435  12.224  19.525  0.00  0.00    +0.000 C 
ATOM     14  O   UNL     1      -0.512  13.411  19.247  0.00  0.00    +0.000 OA
ATOM     15  H   UNL     1      -1.303  10.342  19.724  0.00  0.00    +0.000 HD
BRANCH  12  20
ATOM     16  C   UNL     1      -6.717  12.515  17.332  0.00  0.00    +0.000 C 
ATOM     17  C   UNL     1      -5.369  12.189  17.876  0.00  0.00    +0.000 A 
ATOM     18  C   UNL     1      -5.006  12.497  19.194  0.00  0.00    +0.000 A 
ATOM     19  C   UNL     1      -3.728  12.189  19.670  0.00  0.00    +0.000 A 
ATOM     20  C   UNL     1      -2.769  11.567  18.867  0.00  0.00    +0.000 A 
ATOM     21  C   UNL     1      -3.125  11.252  17.552  0.00  0.00    +0.000 A 
ATOM     22  C   UNL     1      -4.418  11.556  17.070  0.00  0.00    +0.000 A 
ENDBRANCH  12  20
ENDBRANCH  11  13
ENDBRANCH  10  11
ENDBRANCH   1  10
BRANCH   5  23
ATOM     23  C   UNL     1       3.280   5.972  17.988  0.00  0.00    +0.000 C 
BRANCH  23  24
ATOM     24  C   UNL     1       4.789   6.106  18.133  0.00  0.00    +0.000 A 
ATOM     25  C   UNL     1       5.432   5.405  19.165  0.00  0.00    +0.000 A 
ATOM     26  C   UNL     1       6.823   5.441  19.301  0.00  0.00    +0.000 A 
ATOM     27  C   UNL     1       7.595   6.163  18.395  0.00  0.00    +0.000 A 
ATOM     28  C   UNL     1       6.977   6.864  17.366  0.00  0.00    +0.000 A 
ATOM     29  C   UNL     1       5.585   6.841  17.236  0.00  0.00    +0.000 A 
ENDBRANCH  23  24
ENDBRANCH   5  23
TORSDOF 7
ENDMDL
