MODEL 1
REMARK VINA RESULT:      -8.2      0.000      0.000
REMARK  Name = 
REMARK  2 active torsions:
REMARK  status: ('A' for Active; 'I' for Inactive)
REMARK    1  A    between atoms: C_4  and  C_6
REMARK    2  A    between atoms: N_16  and  C_17
REMARK                            x       y       z     vdW  Elec       q    Type
REMARK                         _______ _______ _______ _____ _____    ______ ____
ROOT
ATOM      1  O   UNL     1       8.243   5.294  19.665  0.00  0.00    +0.000 OA
ATOM      2  C   UNL     1       7.801   6.158  18.912  0.00  0.00    +0.000 C 
ATOM      3  N   UNL     1       8.433   7.385  18.870  0.00  0.00    +0.000 N 
ATOM      4  C   UNL     1       8.062   8.493  18.139  0.00  0.00    +0.000 C 
ATOM      5  O   UNL     1       7.164   8.477  17.299  0.00  0.00    +0.000 OA
ATOM      6  N   UNL     1       6.710   6.036  18.086  0.00  0.00    +0.000 N 
ATOM      7  H   UNL     1       9.206   7.491  19.515  0.00  0.00    +0.000 HD
ATOM      8  H   UNL     1       6.579   6.793  17.419  0.00  0.00    +0.000 HD
ENDROOT
BRANCH   4   9
ATOM      9  C   UNL     1       8.819   9.692  18.409  0.00  0.00    +0.000 A 
ATOM     10  N   UNL     1       9.086  10.671  17.563  0.00  0.00    +0.000 NA
ATOM     11  C   UNL     1       9.851  11.571  18.283  0.00  0.00    +0.000 A 
ATOM     12  C   UNL     1      10.413  12.798  17.899  0.00  0.00    +0.000 A 
ATOM     13  C   UNL     1      11.166  13.504  18.847  0.00  0.00    +0.000 A 
ATOM     14 CL   UNL     1      11.866  15.018  18.413  0.00  0.00    +0.000 Cl
ATOM     15  C   UNL     1      11.365  13.013  20.141  0.00  0.00    +0.000 A 
ATOM     16  C   UNL     1      10.805  11.798  20.540  0.00  0.00    +0.000 A 
ATOM     17  C   UNL     1      10.054  11.117  19.584  0.00  0.00    +0.000 A 
ATOM     18  N   UNL     1       9.373   9.935  19.639  0.00  0.00    +0.000 N 
ATOM     19  H   UNL     1       9.289   9.320  20.436  0.00  0.00    +0.000 HD
ENDBRANCH   4   9
BRANCH   6  20
ATOM     20  C   UNL     1       5.794   4.974  18.002  0.00  0.00    +0.000 A 
ATOM     21  C   UNL     1       5.162   4.415  19.112  0.00  0.00    +0.000 A 
ATOM     22  C   UNL     1       4.234   3.382  18.949  0.00  0.00    +0.000 A 
ATOM     23  C   UNL     1       3.940   2.894  17.677  0.00  0.00    +0.000 A 
ATOM     24  C   UNL     1       4.567   3.446  16.563  0.00  0.00    +0.000 A 
ATOM     25  C   UNL     1       5.482   4.490  16.723  0.00  0.00    +0.000 A 
ENDBRANCH   6  20
TORSDOF 2
ENDMDL
MODEL 2
REMARK VINA RESULT:      -7.8      0.215      1.048
REMARK  Name = 
REMARK  2 active torsions:
REMARK  status: ('A' for Active; 'I' for Inactive)
REMARK    1  A    between atoms: C_4  and  C_6
REMARK    2  A    between atoms: N_16  and  C_17
REMARK                            x       y       z     vdW  Elec       q    Type
REMARK                         _______ _______ _______ _____ _____    ______ ____
ROOT
ATOM      1  O   UNL     1       7.818   5.391  19.993  0.00  0.00    +0.000 OA
ATOM      2  C   UNL     1       7.568   6.171  19.079  0.00  0.00    +0.000 C 
ATOM      3  N   UNL     1       8.265   7.360  19.014  0.00  0.00    +0.000 N 
ATOM      4  C   UNL     1       8.095   8.383  18.106  0.00  0.00    +0.000 C 
ATOM      5  O   UNL     1       7.363   8.296  17.122  0.00  0.00    +0.000 OA
ATOM      6  N   UNL     1       6.637   5.987  18.084  0.00  0.00    +0.000 N 
ATOM      7  H   UNL     1       8.915   7.517  19.774  0.00  0.00    +0.000 HD
ATOM      8  H   UNL     1       6.671   6.660  17.323  0.00  0.00    +0.000 HD
ENDROOT
BRANCH   4   9
ATOM      9  C   UNL     1       8.858   9.579  18.373  0.00  0.00    +0.000 A 
ATOM     10  N   UNL     1       9.216  10.505  17.501  0.00  0.00    +0.000 NA
ATOM     11  C   UNL     1       9.944  11.426  18.232  0.00  0.00    +0.000 A 
ATOM     12  C   UNL     1      10.566  12.618  17.830  0.00  0.00    +0.000 A 
ATOM     13  C   UNL     1      11.258  13.360  18.798  0.00  0.00    +0.000 A 
ATOM     14 CL   UNL     1      12.029  14.832  18.343  0.00  0.00    +0.000 Cl
ATOM     15  C   UNL     1      11.341  12.935  20.128  0.00  0.00    +0.000 A 
ATOM     16  C   UNL     1      10.720  11.756  20.544  0.00  0.00    +0.000 A 
ATOM     17  C   UNL     1      10.031  11.040  19.567  0.00  0.00    +0.000 A 
ATOM     18  N   UNL     1       9.318   9.878  19.629  0.00  0.00    +0.000 N 
ATOM     19  H   UNL     1       9.154   9.309  20.448  0.00  0.00    +0.000 HD
ENDBRANCH   4   9
BRANCH   6  20
ATOM     20  C   UNL     1       5.692   4.955  17.954  0.00  0.00    +0.000 A 
ATOM     21  C   UNL     1       5.272   4.449  16.724  0.00  0.00    +0.000 A 
ATOM     22  C   UNL     1       4.354   3.396  16.671  0.00  0.00    +0.000 A 
ATOM     23  C   UNL     1       3.839   2.852  17.846  0.00  0.00    +0.000 A 
ATOM     24  C   UNL     1       4.251   3.353  19.079  0.00  0.00    +0.000 A 
ATOM     25  C   UNL     1       5.183   4.393  19.133  0.00  0.00    +0.000 A 
ENDBRANCH   6  20
TORSDOF 2
ENDMDL
MODEL 3
REMARK VINA RESULT:      -7.5      8.408     10.335
REMARK  Name = 
REMARK  2 active torsions:
REMARK  status: ('A' for Active; 'I' for Inactive)
REMARK    1  A    between atoms: C_4  and  C_6
REMARK    2  A    between atoms: N_16  and  C_17
REMARK                            x       y       z     vdW  Elec       q    Type
REMARK                         _______ _______ _______ _____ _____    ______ ____
ROOT
ATOM      1  O   UNL     1       0.123   9.705  23.894  0.00  0.00    +0.000 OA
ATOM      2  C   UNL     1       0.043   9.933  22.690  0.00  0.00    +0.000 C 
ATOM      3  N   UNL     1       0.692   9.089  21.813  0.00  0.00    +0.000 N 
ATOM      4  C   UNL     1       0.768   9.204  20.441  0.00  0.00    +0.000 C 
ATOM      5  O   UNL     1       0.126  10.032  19.797  0.00  0.00    +0.000 OA
ATOM      6  N   UNL     1      -0.640  10.971  22.102  0.00  0.00    +0.000 N 
ATOM      7  H   UNL     1       1.235   8.354  22.248  0.00  0.00    +0.000 HD
ATOM      8  H   UNL     1      -0.731  10.918  21.091  0.00  0.00    +0.000 HD
ENDROOT
BRANCH   4   9
ATOM      9  C   UNL     1       1.648   8.263  19.790  0.00  0.00    +0.000 A 
ATOM     10  N   UNL     1       2.141   8.350  18.567  0.00  0.00    +0.000 NA
ATOM     11  C   UNL     1       2.900   7.206  18.403  0.00  0.00    +0.000 A 
ATOM     12  C   UNL     1       3.659   6.768  17.307  0.00  0.00    +0.000 A 
ATOM     13  C   UNL     1       4.328   5.541  17.415  0.00  0.00    +0.000 A 
ATOM     14 CL   UNL     1       5.274   4.974  16.091  0.00  0.00    +0.000 Cl
ATOM     15  C   UNL     1       4.248   4.761  18.573  0.00  0.00    +0.000 A 
ATOM     16  C   UNL     1       3.505   5.188  19.675  0.00  0.00    +0.000 A 
ATOM     17  C   UNL     1       2.855   6.414  19.547  0.00  0.00    +0.000 A 
ATOM     18  N   UNL     1       2.070   7.118  20.414  0.00  0.00    +0.000 N 
ATOM     19  H   UNL     1       1.819   6.854  21.356  0.00  0.00    +0.000 HD
ENDBRANCH   4   9
BRANCH   6  20
ATOM     20  C   UNL     1      -1.281  12.057  22.724  0.00  0.00    +0.000 A 
ATOM     21  C   UNL     1      -0.731  13.336  22.793  0.00  0.00    +0.000 A 
ATOM     22  C   UNL     1      -1.442  14.377  23.397  0.00  0.00    +0.000 A 
ATOM     23  C   UNL     1      -2.702  14.144  23.945  0.00  0.00    +0.000 A 
ATOM     24  C   UNL     1      -3.259  12.869  23.882  0.00  0.00    +0.000 A 
ATOM     25  C   UNL     1      -2.556  11.832  23.263  0.00  0.00    +0.000 A 
ENDBRANCH   6  20
TORSDOF 2
ENDMDL
MODEL 4
REMARK VINA RESULT:      -7.4      7.432      8.875
REMARK  Name = 
REMARK  2 active torsions:
REMARK  status: ('A' for Active; 'I' for Inactive)
REMARK    1  A    between atoms: C_4  and  C_6
REMARK    2  A    between atoms: N_16  and  C_17
REMARK                            x       y       z     vdW  Elec       q    Type
REMARK                         _______ _______ _______ _____ _____    ______ ____
ROOT
ATOM      1  O   UNL     1       3.002   6.093  19.674  0.00  0.00    +0.000 OA
ATOM      2  C   UNL     1       2.952   6.995  18.842  0.00  0.00    +0.000 C 
ATOM      3  N   UNL     1       2.000   7.982  18.994  0.00  0.00    +0.000 N 
ATOM      4  C   UNL     1       1.748   9.040  18.147  0.00  0.00    +0.000 C 
ATOM      5  O   UNL     1       2.460   9.317  17.183  0.00  0.00    +0.000 OA
ATOM      6  N   UNL     1       3.761   7.130  17.739  0.00  0.00    +0.000 N 
ATOM      7  H   UNL     1       1.373   7.856  19.779  0.00  0.00    +0.000 HD
ATOM      8  H   UNL     1       3.684   8.016  17.246  0.00  0.00    +0.000 HD
ENDROOT
BRANCH   4   9
ATOM      9  C   UNL     1       0.586   9.831  18.475  0.00  0.00    +0.000 A 
ATOM     10  N   UNL     1       0.399  10.555  19.565  0.00  0.00    +0.000 NA
ATOM     11  C   UNL     1      -0.864  11.099  19.424  0.00  0.00    +0.000 A 
ATOM     12  C   UNL     1      -1.586  11.954  20.270  0.00  0.00    +0.000 A 
ATOM     13  C   UNL     1      -2.873  12.344  19.874  0.00  0.00    +0.000 A 
ATOM     14 CL   UNL     1      -3.786  13.399  20.885  0.00  0.00    +0.000 Cl
ATOM     15  C   UNL     1      -3.439  11.898  18.675  0.00  0.00    +0.000 A 
ATOM     16  C   UNL     1      -2.729  11.054  17.819  0.00  0.00    +0.000 A 
ATOM     17  C   UNL     1      -1.450  10.687  18.229  0.00  0.00    +0.000 A 
ATOM     18  N   UNL     1      -0.500   9.900  17.643  0.00  0.00    +0.000 N 
ATOM     19  H   UNL     1      -0.569   9.429  16.751  0.00  0.00    +0.000 HD
ENDBRANCH   4   9
BRANCH   6  20
ATOM     20  C   UNL     1       4.722   6.231  17.246  0.00  0.00    +0.000 A 
ATOM     21  C   UNL     1       4.405   4.980  16.719  0.00  0.00    +0.000 A 
ATOM     22  C   UNL     1       5.411   4.151  16.214  0.00  0.00    +0.000 A 
ATOM     23  C   UNL     1       6.742   4.563  16.244  0.00  0.00    +0.000 A 
ATOM     24  C   UNL     1       7.069   5.810  16.770  0.00  0.00    +0.000 A 
ATOM     25  C   UNL     1       6.061   6.646  17.258  0.00  0.00    +0.000 A 
ENDBRANCH   6  20
TORSDOF 2
ENDMDL
MODEL 5
REMARK VINA RESULT:      -7.4      7.668      9.868
REMARK  Name = 
REMARK  2 active torsions:
REMARK  status: ('A' for Active; 'I' for Inactive)
REMARK    1  A    between atoms: C_4  and  C_6
REMARK    2  A    between atoms: N_16  and  C_17
REMARK                            x       y       z     vdW  Elec       q    Type
REMARK                         _______ _______ _______ _____ _____    ______ ____
ROOT
ATOM      1  O   UNL     1       1.134   9.519  23.503  0.00  0.00    +0.000 OA
ATOM      2  C   UNL     1       0.912   9.552  22.296  0.00  0.00    +0.000 C 
ATOM      3  N   UNL     1       1.506   8.605  21.488  0.00  0.00    +0.000 N 
ATOM      4  C   UNL     1       1.428   8.505  20.115  0.00  0.00    +0.000 C 
ATOM      5  O   UNL     1       0.677   9.199  19.431  0.00  0.00    +0.000 OA
ATOM      6  N   UNL     1       0.116  10.460  21.639  0.00  0.00    +0.000 N 
ATOM      7  H   UNL     1       2.131   7.966  21.964  0.00  0.00    +0.000 HD
ATOM      8  H   UNL     1      -0.081  10.246  20.665  0.00  0.00    +0.000 HD
ENDROOT
BRANCH   4   9
ATOM      9  C   UNL     1       2.280   7.505  19.518  0.00  0.00    +0.000 A 
ATOM     10  N   UNL     1       2.792   7.521  18.300  0.00  0.00    +0.000 NA
ATOM     11  C   UNL     1       3.511   6.344  18.196  0.00  0.00    +0.000 A 
ATOM     12  C   UNL     1       4.267   5.831  17.131  0.00  0.00    +0.000 A 
ATOM     13  C   UNL     1       4.888   4.586  17.302  0.00  0.00    +0.000 A 
ATOM     14 CL   UNL     1       5.830   3.928  16.018  0.00  0.00    +0.000 Cl
ATOM     15  C   UNL     1       4.764   3.860  18.491  0.00  0.00    +0.000 A 
ATOM     16  C   UNL     1       4.022   4.361  19.562  0.00  0.00    +0.000 A 
ATOM     17  C   UNL     1       3.420   5.604  19.372  0.00  0.00    +0.000 A 
ATOM     18  N   UNL     1       2.651   6.373  20.197  0.00  0.00    +0.000 N 
ATOM     19  H   UNL     1       2.377   6.160  21.146  0.00  0.00    +0.000 HD
ENDBRANCH   4   9
BRANCH   6  20
ATOM     20  C   UNL     1      -0.510  11.607  22.158  0.00  0.00    +0.000 A 
ATOM     21  C   UNL     1      -0.055  12.903  21.923  0.00  0.00    +0.000 A 
ATOM     22  C   UNL     1      -0.749  14.000  22.443  0.00  0.00    +0.000 A 
ATOM     23  C   UNL     1      -1.896  13.807  23.210  0.00  0.00    +0.000 A 
ATOM     24  C   UNL     1      -2.358  12.515  23.451  0.00  0.00    +0.000 A 
ATOM     25  C   UNL     1      -1.674  11.420  22.917  0.00  0.00    +0.000 A 
ENDBRANCH   6  20
TORSDOF 2
ENDMDL
MODEL 6
REMARK VINA RESULT:      -7.4      7.692      9.868
REMARK  Name = 
REMARK  2 active torsions:
REMARK  status: ('A' for Active; 'I' for Inactive)
REMARK    1  A    between atoms: C_4  and  C_6
REMARK    2  A    between atoms: N_16  and  C_17
REMARK                            x       y       z     vdW  Elec       q    Type
REMARK                         _______ _______ _______ _____ _____    ______ ____
ROOT
ATOM      1  O   UNL     1       1.011   9.526  23.513  0.00  0.00    +0.000 OA
ATOM      2  C   UNL     1       0.817   9.574  22.302  0.00  0.00    +0.000 C 
ATOM      3  N   UNL     1       1.424   8.632  21.497  0.00  0.00    +0.000 N 
ATOM      4  C   UNL     1       1.377   8.548  20.122  0.00  0.00    +0.000 C 
ATOM      5  O   UNL     1       0.646   9.254  19.428  0.00  0.00    +0.000 OA
ATOM      6  N   UNL     1       0.042  10.494  21.638  0.00  0.00    +0.000 N 
ATOM      7  H   UNL     1       2.034   7.984  21.981  0.00  0.00    +0.000 HD
ATOM      8  H   UNL     1      -0.134  10.292  20.656  0.00  0.00    +0.000 HD
ENDROOT
BRANCH   4   9
ATOM      9  C   UNL     1       2.237   7.549  19.533  0.00  0.00    +0.000 A 
ATOM     10  N   UNL     1       2.774   7.574  18.326  0.00  0.00    +0.000 NA
ATOM     11  C   UNL     1       3.489   6.394  18.226  0.00  0.00    +0.000 A 
ATOM     12  C   UNL     1       4.265   5.888  17.173  0.00  0.00    +0.000 A 
ATOM     13  C   UNL     1       4.877   4.639  17.344  0.00  0.00    +0.000 A 
ATOM     14 CL   UNL     1       5.842   3.988  16.074  0.00  0.00    +0.000 Cl
ATOM     15  C   UNL     1       4.724   3.902  18.523  0.00  0.00    +0.000 A 
ATOM     16  C   UNL     1       3.962   4.397  19.584  0.00  0.00    +0.000 A 
ATOM     17  C   UNL     1       3.371   5.644  19.393  0.00  0.00    +0.000 A 
ATOM     18  N   UNL     1       2.588   6.409  20.209  0.00  0.00    +0.000 N 
ATOM     19  H   UNL     1       2.293   6.189  21.150  0.00  0.00    +0.000 HD
ENDBRANCH   4   9
BRANCH   6  20
ATOM     20  C   UNL     1      -0.589  11.639  22.154  0.00  0.00    +0.000 A 
ATOM     21  C   UNL     1      -1.721  11.591  22.967  0.00  0.00    +0.000 A 
ATOM     22  C   UNL     1      -2.275  12.770  23.475  0.00  0.00    +0.000 A 
ATOM     23  C   UNL     1      -1.709  14.004  23.163  0.00  0.00    +0.000 A 
ATOM     24  C   UNL     1      -0.580  14.062  22.350  0.00  0.00    +0.000 A 
ATOM     25  C   UNL     1      -0.015  12.883  21.857  0.00  0.00    +0.000 A 
ENDBRANCH   6  20
TORSDOF 2
ENDMDL
MODEL 7
REMARK VINA RESULT:      -7.3      7.493      8.936
REMARK  Name = 
REMARK  2 active torsions:
REMARK  status: ('A' for Active; 'I' for Inactive)
REMARK    1  A    between atoms: C_4  and  C_6
REMARK    2  A    between atoms: N_16  and  C_17
REMARK                            x       y       z     vdW  Elec       q    Type
REMARK                         _______ _______ _______ _____ _____    ______ ____
ROOT
ATOM      1  O   UNL     1       2.955   6.141  19.623  0.00  0.00    +0.000 OA
ATOM      2  C   UNL     1       2.910   7.058  18.807  0.00  0.00    +0.000 C 
ATOM      3  N   UNL     1       1.944   8.032  18.960  0.00  0.00    +0.000 N 
ATOM      4  C   UNL     1       1.695   9.102  18.129  0.00  0.00    +0.000 C 
ATOM      5  O   UNL     1       2.423   9.406  17.184  0.00  0.00    +0.000 OA
ATOM      6  N   UNL     1       3.738   7.224  17.722  0.00  0.00    +0.000 N 
ATOM      7  H   UNL     1       1.304   7.883  19.730  0.00  0.00    +0.000 HD
ATOM      8  H   UNL     1       3.660   8.118  17.245  0.00  0.00    +0.000 HD
ENDROOT
BRANCH   4   9
ATOM      9  C   UNL     1       0.519   9.874  18.451  0.00  0.00    +0.000 A 
ATOM     10  N   UNL     1       0.322  10.612  19.529  0.00  0.00    +0.000 NA
ATOM     11  C   UNL     1      -0.953  11.127  19.386  0.00  0.00    +0.000 A 
ATOM     12  C   UNL     1      -1.689  11.980  20.222  0.00  0.00    +0.000 A 
ATOM     13  C   UNL     1      -2.986  12.336  19.826  0.00  0.00    +0.000 A 
ATOM     14 CL   UNL     1      -3.916  13.388  20.825  0.00  0.00    +0.000 Cl
ATOM     15  C   UNL     1      -3.548  11.858  18.638  0.00  0.00    +0.000 A 
ATOM     16  C   UNL     1      -2.825  11.015  17.792  0.00  0.00    +0.000 A 
ATOM     17  C   UNL     1      -1.536  10.682  18.202  0.00  0.00    +0.000 A 
ATOM     18  N   UNL     1      -0.573   9.906  17.623  0.00  0.00    +0.000 N 
ATOM     19  H   UNL     1      -0.636   9.419  16.740  0.00  0.00    +0.000 HD
ENDBRANCH   4   9
BRANCH   6  20
ATOM     20  C   UNL     1       4.718   6.345  17.230  0.00  0.00    +0.000 A 
ATOM     21  C   UNL     1       6.061   6.693  17.090  0.00  0.00    +0.000 A 
ATOM     22  C   UNL     1       6.988   5.755  16.627  0.00  0.00    +0.000 A 
ATOM     23  C   UNL     1       6.576   4.467  16.289  0.00  0.00    +0.000 A 
ATOM     24  C   UNL     1       5.237   4.111  16.424  0.00  0.00    +0.000 A 
ATOM     25  C   UNL     1       4.313   5.043  16.904  0.00  0.00    +0.000 A 
ENDBRANCH   6  20
TORSDOF 2
ENDMDL
MODEL 8
REMARK VINA RESULT:      -7.3      7.154      8.456
REMARK  Name = 
REMARK  2 active torsions:
REMARK  status: ('A' for Active; 'I' for Inactive)
REMARK    1  A    between atoms: C_4  and  C_6
REMARK    2  A    between atoms: N_16  and  C_17
REMARK                            x       y       z     vdW  Elec       q    Type
REMARK                         _______ _______ _______ _____ _____    ______ ____
ROOT
ATOM      1  O   UNL     1       3.189   5.443  20.090  0.00  0.00    +0.000 OA
ATOM      2  C   UNL     1       2.972   6.440  19.407  0.00  0.00    +0.000 C 
ATOM      3  N   UNL     1       2.196   7.450  19.939  0.00  0.00    +0.000 N 
ATOM      4  C   UNL     1       1.795   8.614  19.319  0.00  0.00    +0.000 C 
ATOM      5  O   UNL     1       2.211   8.969  18.217  0.00  0.00    +0.000 OA
ATOM      6  N   UNL     1       3.425   6.666  18.129  0.00  0.00    +0.000 N 
ATOM      7  H   UNL     1       1.822   7.263  20.861  0.00  0.00    +0.000 HD
ATOM      8  H   UNL     1       3.281   7.608  17.774  0.00  0.00    +0.000 HD
ENDROOT
BRANCH   4   9
ATOM      9  C   UNL     1       0.856   9.419  20.063  0.00  0.00    +0.000 A 
ATOM     10  N   UNL     1       0.125  10.418  19.603  0.00  0.00    +0.000 NA
ATOM     11  C   UNL     1      -0.588  10.877  20.695  0.00  0.00    +0.000 A 
ATOM     12  C   UNL     1      -1.525  11.916  20.798  0.00  0.00    +0.000 A 
ATOM     13  C   UNL     1      -2.091  12.172  22.055  0.00  0.00    +0.000 A 
ATOM     14 CL   UNL     1      -3.250  13.437  22.219  0.00  0.00    +0.000 Cl
ATOM     15  C   UNL     1      -1.739  11.427  23.185  0.00  0.00    +0.000 A 
ATOM     16  C   UNL     1      -0.815  10.384  23.096  0.00  0.00    +0.000 A 
ATOM     17  C   UNL     1      -0.272  10.142  21.835  0.00  0.00    +0.000 A 
ATOM     18  N   UNL     1       0.630   9.215  21.400  0.00  0.00    +0.000 N 
ATOM     19  H   UNL     1       1.079   8.498  21.953  0.00  0.00    +0.000 HD
ENDBRANCH   4   9
BRANCH   6  20
ATOM     20  C   UNL     1       4.115   5.784  17.280  0.00  0.00    +0.000 A 
ATOM     21  C   UNL     1       3.886   4.410  17.249  0.00  0.00    +0.000 A 
ATOM     22  C   UNL     1       4.586   3.597  16.352  0.00  0.00    +0.000 A 
ATOM     23  C   UNL     1       5.528   4.153  15.489  0.00  0.00    +0.000 A 
ATOM     24  C   UNL     1       5.766   5.525  15.513  0.00  0.00    +0.000 A 
ATOM     25  C   UNL     1       5.053   6.339  16.398  0.00  0.00    +0.000 A 
ENDBRANCH   6  20
TORSDOF 2
ENDMDL
MODEL 9
REMARK VINA RESULT:      -7.2      8.740     10.872
REMARK  Name = 
REMARK  2 active torsions:
REMARK  status: ('A' for Active; 'I' for Inactive)
REMARK    1  A    between atoms: C_4  and  C_6
REMARK    2  A    between atoms: N_16  and  C_17
REMARK                            x       y       z     vdW  Elec       q    Type
REMARK                         _______ _______ _______ _____ _____    ______ ____
ROOT
ATOM      1  O   UNL     1      -1.198  11.872  19.927  0.00  0.00    +0.000 OA
ATOM      2  C   UNL     1      -0.611  11.224  20.789  0.00  0.00    +0.000 C 
ATOM      3  N   UNL     1       0.193  10.174  20.395  0.00  0.00    +0.000 N 
ATOM      4  C   UNL     1       0.886   9.300  21.204  0.00  0.00    +0.000 C 
ATOM      5  O   UNL     1       0.983   9.441  22.422  0.00  0.00    +0.000 OA
ATOM      6  N   UNL     1      -0.672  11.433  22.146  0.00  0.00    +0.000 N 
ATOM      7  H   UNL     1       0.199   9.990  19.399  0.00  0.00    +0.000 HD
ATOM      8  H   UNL     1      -0.003  10.905  22.701  0.00  0.00    +0.000 HD
ENDROOT
BRANCH   4   9
ATOM      9  C   UNL     1       1.522   8.198  20.521  0.00  0.00    +0.000 A 
ATOM     10  N   UNL     1       2.056   8.213  19.313  0.00  0.00    +0.000 NA
ATOM     11  C   UNL     1       2.511   6.924  19.104  0.00  0.00    +0.000 A 
ATOM     12  C   UNL     1       3.167   6.359  18.000  0.00  0.00    +0.000 A 
ATOM     13  C   UNL     1       3.506   5.000  18.058  0.00  0.00    +0.000 A 
ATOM     14 CL   UNL     1       4.319   4.273  16.724  0.00  0.00    +0.000 Cl
ATOM     15  C   UNL     1       3.201   4.214  19.174  0.00  0.00    +0.000 A 
ATOM     16  C   UNL     1       2.555   4.764  20.283  0.00  0.00    +0.000 A 
ATOM     17  C   UNL     1       2.236   6.118  20.206  0.00  0.00    +0.000 A 
ATOM     18  N   UNL     1       1.627   6.957  21.094  0.00  0.00    +0.000 N 
ATOM     19  H   UNL     1       1.290   6.723  22.018  0.00  0.00    +0.000 HD
ENDBRANCH   4   9
BRANCH   6  20
ATOM     20  C   UNL     1      -1.493  12.326  22.856  0.00  0.00    +0.000 A 
ATOM     21  C   UNL     1      -2.783  12.011  23.280  0.00  0.00    +0.000 A 
ATOM     22  C   UNL     1      -3.531  12.937  24.013  0.00  0.00    +0.000 A 
ATOM     23  C   UNL     1      -2.998  14.189  24.316  0.00  0.00    +0.000 A 
ATOM     24  C   UNL     1      -1.711  14.513  23.894  0.00  0.00    +0.000 A 
ATOM     25  C   UNL     1      -0.957  13.581  23.177  0.00  0.00    +0.000 A 
ENDBRANCH   6  20
TORSDOF 2
ENDMDL
