MODEL 1
REMARK VINA RESULT:      -7.3      0.000      0.000
REMARK  Name = 
REMARK  8 active torsions:
REMARK  status: ('A' for Active; 'I' for Inactive)
REMARK    1  A    between atoms: C_1  and  C_2
REMARK    2  A    between atoms: C_2  and  O_3
REMARK    3  A    between atoms: O_3  and  C_4
REMARK    4  A    between atoms: C_4  and  C_6
REMARK    5  A    between atoms: C_7  and  C_8
REMARK    6  A    between atoms: N_16  and  C_17
REMARK    7  A    between atoms: C_17  and  C_18
REMARK    8  A    between atoms: C_18  and  C_19
REMARK                            x       y       z     vdW  Elec       q    Type
REMARK                         _______ _______ _______ _____ _____    ______ ____
ROOT
ATOM      1  C   UNL     1       1.280   8.923  20.258  0.00  0.00    +0.000 C 
ATOM      2  C   UNL     1       0.830   9.750  19.290  0.00  0.00    +0.000 C 
ATOM      3  C   UNL     1       1.140   9.474  17.841  0.00  0.00    +0.000 C 
ATOM      4  C   UNL     1       2.364   8.559  17.673  0.00  0.00    +0.000 C 
ATOM      5  N   UNL     1       2.259   7.353  18.511  0.00  0.00    +0.000 NA
ATOM      6  C   UNL     1       2.126   7.715  19.936  0.00  0.00    +0.000 C 
ENDROOT
BRANCH   2   7
ATOM      7  C   UNL     1       0.100  10.992  19.577  0.00  0.00    +0.000 A 
ATOM      8  C   UNL     1      -1.286  11.057  19.374  0.00  0.00    +0.000 A 
ATOM      9  C   UNL     1      -1.955  12.276  19.488  0.00  0.00    +0.000 A 
ATOM     10  C   UNL     1      -1.245  13.433  19.810  0.00  0.00    +0.000 A 
ATOM     11  C   UNL     1       0.128  13.368  20.045  0.00  0.00    +0.000 A 
ATOM     12  C   UNL     1       0.799  12.150  19.935  0.00  0.00    +0.000 A 
ENDBRANCH   2   7
BRANCH   1  13
ATOM     13  C   UNL     1       1.059   9.168  21.717  0.00  0.00    +0.000 C 
ATOM     14  O   UNL     1       1.918   9.387  22.554  0.00  0.00    +0.000 OA
BRANCH  13  15
ATOM     15  O   UNL     1      -0.264   9.005  21.994  0.00  0.00    +0.000 OA
BRANCH  15  17
ATOM     16  C   UNL     1      -1.210  10.917  23.033  0.00  0.00    +0.000 C 
ATOM     17  C   UNL     1      -0.681   9.513  23.265  0.00  0.00    +0.000 C 
ENDBRANCH  15  17
ENDBRANCH  13  15
ENDBRANCH   1  13
BRANCH   5  18
ATOM     18  C   UNL     1       3.449   6.495  18.307  0.00  0.00    +0.000 C 
BRANCH  18  19
ATOM     19  C   UNL     1       3.119   5.074  17.809  0.00  0.00    +0.000 C 
BRANCH  19  20
ATOM     20  C   UNL     1       2.440   4.266  18.884  0.00  0.00    +0.000 A 
ATOM     21  C   UNL     1       2.985   4.200  20.177  0.00  0.00    +0.000 A 
ATOM     22  C   UNL     1       2.378   3.415  21.154  0.00  0.00    +0.000 A 
ATOM     23  C   UNL     1       1.229   2.689  20.854  0.00  0.00    +0.000 A 
ATOM     24  C   UNL     1       0.679   2.750  19.578  0.00  0.00    +0.000 A 
ATOM     25  C   UNL     1       1.283   3.535  18.592  0.00  0.00    +0.000 A 
ENDBRANCH  19  20
ENDBRANCH  18  19
ENDBRANCH   5  18
TORSDOF 7
ENDMDL
MODEL 2
REMARK VINA RESULT:      -7.2      1.889      3.154
REMARK  Name = 
REMARK  8 active torsions:
REMARK  status: ('A' for Active; 'I' for Inactive)
REMARK    1  A    between atoms: C_1  and  C_2
REMARK    2  A    between atoms: C_2  and  O_3
REMARK    3  A    between atoms: O_3  and  C_4
REMARK    4  A    between atoms: C_4  and  C_6
REMARK    5  A    between atoms: C_7  and  C_8
REMARK    6  A    between atoms: N_16  and  C_17
REMARK    7  A    between atoms: C_17  and  C_18
REMARK    8  A    between atoms: C_18  and  C_19
REMARK                            x       y       z     vdW  Elec       q    Type
REMARK                         _______ _______ _______ _____ _____    ______ ____
ROOT
ATOM      1  C   UNL     1       1.322   8.801  20.329  0.00  0.00    +0.000 C 
ATOM      2  C   UNL     1       1.094   9.541  19.223  0.00  0.00    +0.000 C 
ATOM      3  C   UNL     1       1.460   9.014  17.860  0.00  0.00    +0.000 C 
ATOM      4  C   UNL     1       2.519   7.901  17.932  0.00  0.00    +0.000 C 
ATOM      5  N   UNL     1       2.147   6.860  18.905  0.00  0.00    +0.000 NA
ATOM      6  C   UNL     1       1.970   7.440  20.251  0.00  0.00    +0.000 C 
ENDROOT
BRANCH   2   7
ATOM      7  C   UNL     1       0.567  10.911  19.274  0.00  0.00    +0.000 A 
ATOM      8  C   UNL     1      -0.793  11.152  19.036  0.00  0.00    +0.000 A 
ATOM      9  C   UNL     1      -1.265  12.460  18.922  0.00  0.00    +0.000 A 
ATOM     10  C   UNL     1      -0.381  13.532  19.049  0.00  0.00    +0.000 A 
ATOM     11  C   UNL     1       0.967  13.299  19.318  0.00  0.00    +0.000 A 
ATOM     12  C   UNL     1       1.441  11.993  19.437  0.00  0.00    +0.000 A 
ENDBRANCH   2   7
BRANCH   1  13
ATOM     13  C   UNL     1       1.037   9.285  21.716  0.00  0.00    +0.000 C 
ATOM     14  O   UNL     1       1.859   9.602  22.557  0.00  0.00    +0.000 OA
BRANCH  13  15
ATOM     15  O   UNL     1      -0.305   9.220  21.936  0.00  0.00    +0.000 OA
BRANCH  15  17
ATOM     16  C   UNL     1      -1.033  11.355  22.670  0.00  0.00    +0.000 C 
ATOM     17  C   UNL     1      -0.762   9.923  23.096  0.00  0.00    +0.000 C 
ENDBRANCH  15  17
ENDBRANCH  13  15
ENDBRANCH   1  13
BRANCH   5  18
ATOM     18  C   UNL     1       3.184   5.803  18.932  0.00  0.00    +0.000 C 
BRANCH  18  19
ATOM     19  C   UNL     1       4.047   5.739  17.656  0.00  0.00    +0.000 C 
BRANCH  19  20
ATOM     20  C   UNL     1       5.490   6.049  17.961  0.00  0.00    +0.000 A 
ATOM     21  C   UNL     1       6.157   5.382  19.000  0.00  0.00    +0.000 A 
ATOM     22  C   UNL     1       7.477   5.705  19.307  0.00  0.00    +0.000 A 
ATOM     23  C   UNL     1       8.140   6.693  18.586  0.00  0.00    +0.000 A 
ATOM     24  C   UNL     1       7.490   7.358  17.552  0.00  0.00    +0.000 A 
ATOM     25  C   UNL     1       6.166   7.040  17.239  0.00  0.00    +0.000 A 
ENDBRANCH  19  20
ENDBRANCH  18  19
ENDBRANCH   5  18
TORSDOF 7
ENDMDL
MODEL 3
REMARK VINA RESULT:      -7.2      3.086      7.888
REMARK  Name = 
REMARK  8 active torsions:
REMARK  status: ('A' for Active; 'I' for Inactive)
REMARK    1  A    between atoms: C_1  and  C_2
REMARK    2  A    between atoms: C_2  and  O_3
REMARK    3  A    between atoms: O_3  and  C_4
REMARK    4  A    between atoms: C_4  and  C_6
REMARK    5  A    between atoms: C_7  and  C_8
REMARK    6  A    between atoms: N_16  and  C_17
REMARK    7  A    between atoms: C_17  and  C_18
REMARK    8  A    between atoms: C_18  and  C_19
REMARK                            x       y       z     vdW  Elec       q    Type
REMARK                         _______ _______ _______ _____ _____    ______ ____
ROOT
ATOM      1  C   UNL     1       3.899   5.144  18.684  0.00  0.00    +0.000 C 
ATOM      2  C   UNL     1       4.415   5.834  17.644  0.00  0.00    +0.000 C 
ATOM      3  C   UNL     1       4.079   7.290  17.447  0.00  0.00    +0.000 C 
ATOM      4  C   UNL     1       2.780   7.689  18.169  0.00  0.00    +0.000 C 
ATOM      5  N   UNL     1       2.784   7.251  19.575  0.00  0.00    +0.000 NA
ATOM      6  C   UNL     1       2.952   5.787  19.668  0.00  0.00    +0.000 C 
ENDROOT
BRANCH   2   7
ATOM      7  C   UNL     1       5.249   5.211  16.607  0.00  0.00    +0.000 A 
ATOM      8  C   UNL     1       6.645   5.325  16.664  0.00  0.00    +0.000 A 
ATOM      9  C   UNL     1       7.429   4.877  15.601  0.00  0.00    +0.000 A 
ATOM     10  C   UNL     1       6.824   4.310  14.479  0.00  0.00    +0.000 A 
ATOM     11  C   UNL     1       5.438   4.164  14.432  0.00  0.00    +0.000 A 
ATOM     12  C   UNL     1       4.651   4.608  15.495  0.00  0.00    +0.000 A 
ENDBRANCH   2   7
BRANCH   1  13
ATOM     13  C   UNL     1       4.144   3.685  18.906  0.00  0.00    +0.000 C 
ATOM     14  O   UNL     1       5.080   3.190  19.509  0.00  0.00    +0.000 OA
BRANCH  13  15
ATOM     15  O   UNL     1       3.199   2.974  18.231  0.00  0.00    +0.000 OA
BRANCH  15  17
ATOM     16  C   UNL     1       0.942   2.548  18.824  0.00  0.00    +0.000 C 
ATOM     17  C   UNL     1       2.383   2.128  19.048  0.00  0.00    +0.000 C 
ENDBRANCH  15  17
ENDBRANCH  13  15
ENDBRANCH   1  13
BRANCH   5  18
ATOM     18  C   UNL     1       1.526   7.668  20.234  0.00  0.00    +0.000 C 
BRANCH  18  19
ATOM     19  C   UNL     1       1.019   9.056  19.798  0.00  0.00    +0.000 C 
BRANCH  19  20
ATOM     20  C   UNL     1       0.273   9.738  20.916  0.00  0.00    +0.000 A 
ATOM     21  C   UNL     1      -0.195  11.052  20.761  0.00  0.00    +0.000 A 
ATOM     22  C   UNL     1      -0.844  11.694  21.814  0.00  0.00    +0.000 A 
ATOM     23  C   UNL     1      -1.029  11.035  23.025  0.00  0.00    +0.000 A 
ATOM     24  C   UNL     1      -0.573   9.732  23.189  0.00  0.00    +0.000 A 
ATOM     25  C   UNL     1       0.079   9.082  22.137  0.00  0.00    +0.000 A 
ENDBRANCH  19  20
ENDBRANCH  18  19
ENDBRANCH   5  18
TORSDOF 7
ENDMDL
MODEL 4
REMARK VINA RESULT:      -7.2      0.143      1.374
REMARK  Name = 
REMARK  8 active torsions:
REMARK  status: ('A' for Active; 'I' for Inactive)
REMARK    1  A    between atoms: C_1  and  C_2
REMARK    2  A    between atoms: C_2  and  O_3
REMARK    3  A    between atoms: O_3  and  C_4
REMARK    4  A    between atoms: C_4  and  C_6
REMARK    5  A    between atoms: C_7  and  C_8
REMARK    6  A    between atoms: N_16  and  C_17
REMARK    7  A    between atoms: C_17  and  C_18
REMARK    8  A    between atoms: C_18  and  C_19
REMARK                            x       y       z     vdW  Elec       q    Type
REMARK                         _______ _______ _______ _____ _____    ______ ____
ROOT
ATOM      1  C   UNL     1       1.272   8.935  20.222  0.00  0.00    +0.000 C 
ATOM      2  C   UNL     1       0.838   9.741  19.230  0.00  0.00    +0.000 C 
ATOM      3  C   UNL     1       1.165   9.431  17.792  0.00  0.00    +0.000 C 
ATOM      4  C   UNL     1       2.387   8.507  17.660  0.00  0.00    +0.000 C 
ATOM      5  N   UNL     1       2.267   7.321  18.525  0.00  0.00    +0.000 NA
ATOM      6  C   UNL     1       2.116   7.716  19.939  0.00  0.00    +0.000 C 
ENDROOT
BRANCH   2   7
ATOM      7  C   UNL     1       0.110  10.993  19.479  0.00  0.00    +0.000 A 
ATOM      8  C   UNL     1       0.786  12.113  19.982  0.00  0.00    +0.000 A 
ATOM      9  C   UNL     1       0.073  13.247  20.372  0.00  0.00    +0.000 A 
ATOM     10  C   UNL     1      -1.317  13.268  20.258  0.00  0.00    +0.000 A 
ATOM     11  C   UNL     1      -1.992  12.169  19.727  0.00  0.00    +0.000 A 
ATOM     12  C   UNL     1      -1.282  11.036  19.333  0.00  0.00    +0.000 A 
ENDBRANCH   2   7
BRANCH   1  13
ATOM     13  C   UNL     1       1.034   9.214  21.673  0.00  0.00    +0.000 C 
ATOM     14  O   UNL     1       1.878   9.491  22.506  0.00  0.00    +0.000 OA
BRANCH  13  15
ATOM     15  O   UNL     1      -0.283   9.007  21.948  0.00  0.00    +0.000 OA
BRANCH  15  17
ATOM     16  C   UNL     1      -1.210  10.877  23.077  0.00  0.00    +0.000 C 
ATOM     17  C   UNL     1      -0.707   9.454  23.240  0.00  0.00    +0.000 C 
ENDBRANCH  15  17
ENDBRANCH  13  15
ENDBRANCH   1  13
BRANCH   5  18
ATOM     18  C   UNL     1       3.455   6.454  18.355  0.00  0.00    +0.000 C 
BRANCH  18  19
ATOM     19  C   UNL     1       3.132   5.045  17.820  0.00  0.00    +0.000 C 
BRANCH  19  20
ATOM     20  C   UNL     1       2.478   4.198  18.881  0.00  0.00    +0.000 A 
ATOM     21  C   UNL     1       1.318   3.462  18.588  0.00  0.00    +0.000 A 
ATOM     22  C   UNL     1       0.691   2.717  19.584  0.00  0.00    +0.000 A 
ATOM     23  C   UNL     1       1.210   2.700  20.875  0.00  0.00    +0.000 A 
ATOM     24  C   UNL     1       2.360   3.422  21.175  0.00  0.00    +0.000 A 
ATOM     25  C   UNL     1       2.994   4.173  20.181  0.00  0.00    +0.000 A 
ENDBRANCH  19  20
ENDBRANCH  18  19
ENDBRANCH   5  18
TORSDOF 7
ENDMDL
MODEL 5
REMARK VINA RESULT:      -7.1      0.621      1.027
REMARK  Name = 
REMARK  8 active torsions:
REMARK  status: ('A' for Active; 'I' for Inactive)
REMARK    1  A    between atoms: C_1  and  C_2
REMARK    2  A    between atoms: C_2  and  O_3
REMARK    3  A    between atoms: O_3  and  C_4
REMARK    4  A    between atoms: C_4  and  C_6
REMARK    5  A    between atoms: C_7  and  C_8
REMARK    6  A    between atoms: N_16  and  C_17
REMARK    7  A    between atoms: C_17  and  C_18
REMARK    8  A    between atoms: C_18  and  C_19
REMARK                            x       y       z     vdW  Elec       q    Type
REMARK                         _______ _______ _______ _____ _____    ______ ____
ROOT
ATOM      1  C   UNL     1       1.250   8.984  20.303  0.00  0.00    +0.000 C 
ATOM      2  C   UNL     1       0.806   9.808  19.329  0.00  0.00    +0.000 C 
ATOM      3  C   UNL     1       1.117   9.523  17.883  0.00  0.00    +0.000 C 
ATOM      4  C   UNL     1       2.337   8.600  17.722  0.00  0.00    +0.000 C 
ATOM      5  N   UNL     1       2.224   7.399  18.567  0.00  0.00    +0.000 NA
ATOM      6  C   UNL     1       2.090   7.769  19.989  0.00  0.00    +0.000 C 
ENDROOT
BRANCH   2   7
ATOM      7  C   UNL     1       0.082  11.056  19.608  0.00  0.00    +0.000 A 
ATOM      8  C   UNL     1      -1.297  11.138  19.369  0.00  0.00    +0.000 A 
ATOM      9  C   UNL     1      -1.955  12.364  19.477  0.00  0.00    +0.000 A 
ATOM     10  C   UNL     1      -1.241  13.509  19.827  0.00  0.00    +0.000 A 
ATOM     11  C   UNL     1       0.124  13.427  20.098  0.00  0.00    +0.000 A 
ATOM     12  C   UNL     1       0.785  12.203  19.995  0.00  0.00    +0.000 A 
ENDBRANCH   2   7
BRANCH   1  13
ATOM     13  C   UNL     1       1.028   9.238  21.760  0.00  0.00    +0.000 C 
ATOM     14  O   UNL     1       1.885   9.469  22.596  0.00  0.00    +0.000 OA
BRANCH  13  15
ATOM     15  O   UNL     1      -0.294   9.070  22.038  0.00  0.00    +0.000 OA
BRANCH  15  17
ATOM     16  C   UNL     1      -1.212  11.035  23.001  0.00  0.00    +0.000 C 
ATOM     17  C   UNL     1      -0.725   9.625  23.285  0.00  0.00    +0.000 C 
ENDBRANCH  15  17
ENDBRANCH  13  15
ENDBRANCH   1  13
BRANCH   5  18
ATOM     18  C   UNL     1       3.409   6.533  18.370  0.00  0.00    +0.000 C 
BRANCH  18  19
ATOM     19  C   UNL     1       3.613   5.485  19.481  0.00  0.00    +0.000 C 
BRANCH  19  20
ATOM     20  C   UNL     1       2.702   4.301  19.284  0.00  0.00    +0.000 A 
ATOM     21  C   UNL     1       2.926   3.398  18.232  0.00  0.00    +0.000 A 
ATOM     22  C   UNL     1       2.054   2.331  18.028  0.00  0.00    +0.000 A 
ATOM     23  C   UNL     1       0.957   2.155  18.863  0.00  0.00    +0.000 A 
ATOM     24  C   UNL     1       0.727   3.041  19.911  0.00  0.00    +0.000 A 
ATOM     25  C   UNL     1       1.597   4.114  20.122  0.00  0.00    +0.000 A 
ENDBRANCH  19  20
ENDBRANCH  18  19
ENDBRANCH   5  18
TORSDOF 7
ENDMDL
MODEL 6
REMARK VINA RESULT:      -7.1      1.679      3.020
REMARK  Name = 
REMARK  8 active torsions:
REMARK  status: ('A' for Active; 'I' for Inactive)
REMARK    1  A    between atoms: C_1  and  C_2
REMARK    2  A    between atoms: C_2  and  O_3
REMARK    3  A    between atoms: O_3  and  C_4
REMARK    4  A    between atoms: C_4  and  C_6
REMARK    5  A    between atoms: C_7  and  C_8
REMARK    6  A    between atoms: N_16  and  C_17
REMARK    7  A    between atoms: C_17  and  C_18
REMARK    8  A    between atoms: C_18  and  C_19
REMARK                            x       y       z     vdW  Elec       q    Type
REMARK                         _______ _______ _______ _____ _____    ______ ____
ROOT
ATOM      1  C   UNL     1       1.291   8.878  20.429  0.00  0.00    +0.000 C 
ATOM      2  C   UNL     1       1.020   9.637  19.345  0.00  0.00    +0.000 C 
ATOM      3  C   UNL     1       1.405   9.168  17.966  0.00  0.00    +0.000 C 
ATOM      4  C   UNL     1       2.519   8.109  18.001  0.00  0.00    +0.000 C 
ATOM      5  N   UNL     1       2.205   7.023  18.946  0.00  0.00    +0.000 NA
ATOM      6  C   UNL     1       2.007   7.554  20.309  0.00  0.00    +0.000 C 
ENDROOT
BRANCH   2   7
ATOM      7  C   UNL     1       0.426  10.977  19.438  0.00  0.00    +0.000 A 
ATOM      8  C   UNL     1      -0.911  11.182  19.066  0.00  0.00    +0.000 A 
ATOM      9  C   UNL     1      -1.429  12.475  18.997  0.00  0.00    +0.000 A 
ATOM     10  C   UNL     1      -0.618  13.568  19.303  0.00  0.00    +0.000 A 
ATOM     11  C   UNL     1       0.702  13.368  19.705  0.00  0.00    +0.000 A 
ATOM     12  C   UNL     1       1.223  12.076  19.779  0.00  0.00    +0.000 A 
ENDBRANCH   2   7
BRANCH   1  13
ATOM     13  C   UNL     1       0.990   9.307  21.830  0.00  0.00    +0.000 C 
ATOM     14  O   UNL     1       1.801   9.511  22.717  0.00  0.00    +0.000 OA
BRANCH  13  15
ATOM     15  O   UNL     1      -0.360   9.339  21.998  0.00  0.00    +0.000 OA
BRANCH  15  17
ATOM     16  C   UNL     1      -1.181  11.442  22.729  0.00  0.00    +0.000 C 
ATOM     17  C   UNL     1      -0.807  10.036  23.166  0.00  0.00    +0.000 C 
ENDBRANCH  15  17
ENDBRANCH  13  15
ENDBRANCH   1  13
BRANCH   5  18
ATOM     18  C   UNL     1       3.294   6.020  18.937  0.00  0.00    +0.000 C 
BRANCH  18  19
ATOM     19  C   UNL     1       3.257   5.064  17.729  0.00  0.00    +0.000 C 
BRANCH  19  20
ATOM     20  C   UNL     1       4.587   5.034  17.019  0.00  0.00    +0.000 A 
ATOM     21  C   UNL     1       4.859   4.045  16.061  0.00  0.00    +0.000 A 
ATOM     22  C   UNL     1       6.106   3.995  15.442  0.00  0.00    +0.000 A 
ATOM     23  C   UNL     1       7.088   4.923  15.771  0.00  0.00    +0.000 A 
ATOM     24  C   UNL     1       6.828   5.910  16.717  0.00  0.00    +0.000 A 
ATOM     25  C   UNL     1       5.579   5.966  17.343  0.00  0.00    +0.000 A 
ENDBRANCH  19  20
ENDBRANCH  18  19
ENDBRANCH   5  18
TORSDOF 7
ENDMDL
MODEL 7
REMARK VINA RESULT:      -7.0      2.892      7.827
REMARK  Name = 
REMARK  8 active torsions:
REMARK  status: ('A' for Active; 'I' for Inactive)
REMARK    1  A    between atoms: C_1  and  C_2
REMARK    2  A    between atoms: C_2  and  O_3
REMARK    3  A    between atoms: O_3  and  C_4
REMARK    4  A    between atoms: C_4  and  C_6
REMARK    5  A    between atoms: C_7  and  C_8
REMARK    6  A    between atoms: N_16  and  C_17
REMARK    7  A    between atoms: C_17  and  C_18
REMARK    8  A    between atoms: C_18  and  C_19
REMARK                            x       y       z     vdW  Elec       q    Type
REMARK                         _______ _______ _______ _____ _____    ______ ____
ROOT
ATOM      1  C   UNL     1       3.852   5.545  19.082  0.00  0.00    +0.000 C 
ATOM      2  C   UNL     1       4.169   6.222  17.958  0.00  0.00    +0.000 C 
ATOM      3  C   UNL     1       3.538   7.559  17.664  0.00  0.00    +0.000 C 
ATOM      4  C   UNL     1       2.222   7.762  18.434  0.00  0.00    +0.000 C 
ATOM      5  N   UNL     1       2.381   7.468  19.868  0.00  0.00    +0.000 NA
ATOM      6  C   UNL     1       2.844   6.081  20.070  0.00  0.00    +0.000 C 
ENDROOT
BRANCH   2   7
ATOM      7  C   UNL     1       5.060   5.680  16.924  0.00  0.00    +0.000 A 
ATOM      8  C   UNL     1       4.605   4.675  16.058  0.00  0.00    +0.000 A 
ATOM      9  C   UNL     1       5.493   4.045  15.186  0.00  0.00    +0.000 A 
ATOM     10  C   UNL     1       6.837   4.418  15.171  0.00  0.00    +0.000 A 
ATOM     11  C   UNL     1       7.288   5.440  16.007  0.00  0.00    +0.000 A 
ATOM     12  C   UNL     1       6.402   6.074  16.877  0.00  0.00    +0.000 A 
ENDBRANCH   2   7
BRANCH   1  13
ATOM     13  C   UNL     1       4.395   4.190  19.407  0.00  0.00    +0.000 C 
ATOM     14  O   UNL     1       5.569   3.862  19.416  0.00  0.00    +0.000 OA
BRANCH  13  15
ATOM     15  O   UNL     1       3.354   3.334  19.597  0.00  0.00    +0.000 OA
BRANCH  15  17
ATOM     16  C   UNL     1       2.409   2.314  17.674  0.00  0.00    +0.000 C 
ATOM     17  C   UNL     1       3.402   2.140  18.809  0.00  0.00    +0.000 C 
ENDBRANCH  15  17
ENDBRANCH  13  15
ENDBRANCH   1  13
BRANCH   5  18
ATOM     18  C   UNL     1       1.097   7.690  20.572  0.00  0.00    +0.000 C 
BRANCH  18  19
ATOM     19  C   UNL     1       1.219   8.554  21.842  0.00  0.00    +0.000 C 
BRANCH  19  20
ATOM     20  C   UNL     1       0.215   9.678  21.833  0.00  0.00    +0.000 A 
ATOM     21  C   UNL     1      -0.068  10.369  20.645  0.00  0.00    +0.000 A 
ATOM     22  C   UNL     1      -0.963  11.437  20.652  0.00  0.00    +0.000 A 
ATOM     23  C   UNL     1      -1.580  11.824  21.837  0.00  0.00    +0.000 A 
ATOM     24  C   UNL     1      -1.309  11.144  23.020  0.00  0.00    +0.000 A 
ATOM     25  C   UNL     1      -0.412  10.072  23.021  0.00  0.00    +0.000 A 
ENDBRANCH  19  20
ENDBRANCH  18  19
ENDBRANCH   5  18
TORSDOF 7
ENDMDL
MODEL 8
REMARK VINA RESULT:      -6.9      1.743      3.080
REMARK  Name = 
REMARK  8 active torsions:
REMARK  status: ('A' for Active; 'I' for Inactive)
REMARK    1  A    between atoms: C_1  and  C_2
REMARK    2  A    between atoms: C_2  and  O_3
REMARK    3  A    between atoms: O_3  and  C_4
REMARK    4  A    between atoms: C_4  and  C_6
REMARK    5  A    between atoms: C_7  and  C_8
REMARK    6  A    between atoms: N_16  and  C_17
REMARK    7  A    between atoms: C_17  and  C_18
REMARK    8  A    between atoms: C_18  and  C_19
REMARK                            x       y       z     vdW  Elec       q    Type
REMARK                         _______ _______ _______ _____ _____    ______ ____
ROOT
ATOM      1  C   UNL     1       1.316   8.820  20.411  0.00  0.00    +0.000 C 
ATOM      2  C   UNL     1       1.106   9.512  19.271  0.00  0.00    +0.000 C 
ATOM      3  C   UNL     1       1.515   8.938  17.939  0.00  0.00    +0.000 C 
ATOM      4  C   UNL     1       2.588   7.846  18.082  0.00  0.00    +0.000 C 
ATOM      5  N   UNL     1       2.206   6.838  19.086  0.00  0.00    +0.000 NA
ATOM      6  C   UNL     1       1.986   7.467  20.403  0.00  0.00    +0.000 C 
ENDROOT
BRANCH   2   7
ATOM      7  C   UNL     1       0.559  10.875  19.254  0.00  0.00    +0.000 A 
ATOM      8  C   UNL     1       1.345  11.955  19.678  0.00  0.00    +0.000 A 
ATOM      9  C   UNL     1       0.780  13.223  19.818  0.00  0.00    +0.000 A 
ATOM     10  C   UNL     1      -0.571  13.419  19.530  0.00  0.00    +0.000 A 
ATOM     11  C   UNL     1      -1.350  12.355  19.076  0.00  0.00    +0.000 A 
ATOM     12  C   UNL     1      -0.787  11.087  18.932  0.00  0.00    +0.000 A 
ENDBRANCH   2   7
BRANCH   1  13
ATOM     13  C   UNL     1       0.988   9.353  21.770  0.00  0.00    +0.000 C 
ATOM     14  O   UNL     1       1.784   9.646  22.645  0.00  0.00    +0.000 OA
BRANCH  13  15
ATOM     15  O   UNL     1      -0.364   9.367  21.921  0.00  0.00    +0.000 OA
BRANCH  15  17
ATOM     16  C   UNL     1      -1.247  11.429  22.695  0.00  0.00    +0.000 C 
ATOM     17  C   UNL     1      -0.833  10.026  23.102  0.00  0.00    +0.000 C 
ENDBRANCH  15  17
ENDBRANCH  13  15
ENDBRANCH   1  13
BRANCH   5  18
ATOM     18  C   UNL     1       3.257   5.799  19.180  0.00  0.00    +0.000 C 
BRANCH  18  19
ATOM     19  C   UNL     1       3.324   4.861  17.960  0.00  0.00    +0.000 C 
BRANCH  19  20
ATOM     20  C   UNL     1       4.730   4.762  17.427  0.00  0.00    +0.000 A 
ATOM     21  C   UNL     1       4.962   4.341  16.108  0.00  0.00    +0.000 A 
ATOM     22  C   UNL     1       6.265   4.207  15.634  0.00  0.00    +0.000 A 
ATOM     23  C   UNL     1       7.344   4.489  16.467  0.00  0.00    +0.000 A 
ATOM     24  C   UNL     1       7.125   4.910  17.774  0.00  0.00    +0.000 A 
ATOM     25  C   UNL     1       5.820   5.045  18.256  0.00  0.00    +0.000 A 
ENDBRANCH  19  20
ENDBRANCH  18  19
ENDBRANCH   5  18
TORSDOF 7
ENDMDL
MODEL 9
REMARK VINA RESULT:      -6.9      2.819      7.725
REMARK  Name = 
REMARK  8 active torsions:
REMARK  status: ('A' for Active; 'I' for Inactive)
REMARK    1  A    between atoms: C_1  and  C_2
REMARK    2  A    between atoms: C_2  and  O_3
REMARK    3  A    between atoms: O_3  and  C_4
REMARK    4  A    between atoms: C_4  and  C_6
REMARK    5  A    between atoms: C_7  and  C_8
REMARK    6  A    between atoms: N_16  and  C_17
REMARK    7  A    between atoms: C_17  and  C_18
REMARK    8  A    between atoms: C_18  and  C_19
REMARK                            x       y       z     vdW  Elec       q    Type
REMARK                         _______ _______ _______ _____ _____    ______ ____
ROOT
ATOM      1  C   UNL     1       3.717   5.529  19.065  0.00  0.00    +0.000 C 
ATOM      2  C   UNL     1       4.104   6.210  17.964  0.00  0.00    +0.000 C 
ATOM      3  C   UNL     1       3.561   7.587  17.685  0.00  0.00    +0.000 C 
ATOM      4  C   UNL     1       2.238   7.851  18.424  0.00  0.00    +0.000 C 
ATOM      5  N   UNL     1       2.340   7.518  19.855  0.00  0.00    +0.000 NA
ATOM      6  C   UNL     1       2.715   6.102  20.037  0.00  0.00    +0.000 C 
ENDROOT
BRANCH   2   7
ATOM      7  C   UNL     1       4.991   5.638  16.942  0.00  0.00    +0.000 A 
ATOM      8  C   UNL     1       4.514   4.649  16.070  0.00  0.00    +0.000 A 
ATOM      9  C   UNL     1       5.393   3.989  15.210  0.00  0.00    +0.000 A 
ATOM     10  C   UNL     1       6.749   4.317  15.214  0.00  0.00    +0.000 A 
ATOM     11  C   UNL     1       7.222   5.323  16.055  0.00  0.00    +0.000 A 
ATOM     12  C   UNL     1       6.346   5.987  16.913  0.00  0.00    +0.000 A 
ENDBRANCH   2   7
BRANCH   1  13
ATOM     13  C   UNL     1       4.172   4.138  19.373  0.00  0.00    +0.000 C 
ATOM     14  O   UNL     1       5.320   3.730  19.363  0.00  0.00    +0.000 OA
BRANCH  13  15
ATOM     15  O   UNL     1       3.077   3.353  19.572  0.00  0.00    +0.000 OA
BRANCH  15  17
ATOM     16  C   UNL     1       1.079   2.423  18.692  0.00  0.00    +0.000 C 
ATOM     17  C   UNL     1       2.523   2.776  18.384  0.00  0.00    +0.000 C 
ENDBRANCH  15  17
ENDBRANCH  13  15
ENDBRANCH   1  13
BRANCH   5  18
ATOM     18  C   UNL     1       1.053   7.801  20.529  0.00  0.00    +0.000 C 
BRANCH  18  19
ATOM     19  C   UNL     1       1.194   8.587  21.847  0.00  0.00    +0.000 C 
BRANCH  19  20
ATOM     20  C   UNL     1       0.247   9.759  21.883  0.00  0.00    +0.000 A 
ATOM     21  C   UNL     1      -0.455  10.070  23.059  0.00  0.00    +0.000 A 
ATOM     22  C   UNL     1      -1.363  11.126  23.074  0.00  0.00    +0.000 A 
ATOM     23  C   UNL     1      -1.580  11.878  21.924  0.00  0.00    +0.000 A 
ATOM     24  C   UNL     1      -0.888  11.581  20.755  0.00  0.00    +0.000 A 
ATOM     25  C   UNL     1       0.024  10.522  20.732  0.00  0.00    +0.000 A 
ENDBRANCH  19  20
ENDBRANCH  18  19
ENDBRANCH   5  18
TORSDOF 7
ENDMDL
