MODEL 1
REMARK VINA RESULT:      -5.1      0.000      0.000
REMARK  Name = 
REMARK  4 active torsions:
REMARK  status: ('A' for Active; 'I' for Inactive)
REMARK    1  A    between atoms: C_1  and  C_2
REMARK    2  A    between atoms: C_2  and  C_3
REMARK    3  A    between atoms: C_8  and  C_9
REMARK    4  A    between atoms: C_8  and  O_10
REMARK                            x       y       z     vdW  Elec       q    Type
REMARK                         _______ _______ _______ _____ _____    ______ ____
ROOT
ATOM      1  C   UNL     1       1.692   4.631  17.750  0.00  0.00    +0.000 C 
ATOM      2  C   UNL     1       2.148   3.480  18.660  0.00  0.00    +0.000 C 
ATOM      3  C   UNL     1       1.503   2.178  18.145  0.00  0.00    +0.000 C 
ATOM      4  S   UNL     1       3.966   3.354  18.504  0.00  0.00    +0.000 S 
ATOM      5  S   UNL     1       4.290   2.382  20.266  0.00  0.00    +0.000 S 
ATOM      6  C   UNL     1       2.810   2.901  21.062  0.00  0.00    +0.000 C 
ATOM      7  O   UNL     1       2.555   2.578  22.217  0.00  0.00    +0.000 OA
ATOM      8  C   UNL     1       1.843   3.720  20.176  0.00  0.00    +0.000 C 
ATOM      9  C   UNL     1       1.955   5.183  20.629  0.00  0.00    +0.000 C 
ENDROOT
BRANCH   8  10
ATOM     10  O   UNL     1       0.481   3.342  20.451  0.00  0.00    +0.000 OA
ATOM     11  H   UNL     1       0.026   4.120  20.835  0.00  0.00    +0.000 HD
ENDBRANCH   8  10
TORSDOF 1
ENDMDL
MODEL 2
REMARK VINA RESULT:      -5.0      2.435      3.137
REMARK  Name = 
REMARK  4 active torsions:
REMARK  status: ('A' for Active; 'I' for Inactive)
REMARK    1  A    between atoms: C_1  and  C_2
REMARK    2  A    between atoms: C_2  and  C_3
REMARK    3  A    between atoms: C_8  and  C_9
REMARK    4  A    between atoms: C_8  and  O_10
REMARK                            x       y       z     vdW  Elec       q    Type
REMARK                         _______ _______ _______ _____ _____    ______ ____
ROOT
ATOM      1  C   UNL     1       4.451   4.000  17.045  0.00  0.00    +0.000 C 
ATOM      2  C   UNL     1       4.050   4.246  18.508  0.00  0.00    +0.000 C 
ATOM      3  C   UNL     1       5.123   5.143  19.155  0.00  0.00    +0.000 C 
ATOM      4  S   UNL     1       2.452   5.135  18.489  0.00  0.00    +0.000 S 
ATOM      5  S   UNL     1       1.875   4.631  20.377  0.00  0.00    +0.000 S 
ATOM      6  C   UNL     1       2.873   3.189  20.518  0.00  0.00    +0.000 C 
ATOM      7  O   UNL     1       2.846   2.486  21.522  0.00  0.00    +0.000 OA
ATOM      8  C   UNL     1       3.822   2.930  19.324  0.00  0.00    +0.000 C 
ATOM      9  C   UNL     1       3.217   1.772  18.519  0.00  0.00    +0.000 C 
ENDROOT
BRANCH   8  10
ATOM     10  O   UNL     1       5.089   2.440  19.799  0.00  0.00    +0.000 OA
ATOM     11  H   UNL     1       5.343   2.974  20.580  0.00  0.00    +0.000 HD
ENDBRANCH   8  10
TORSDOF 1
ENDMDL
MODEL 3
REMARK VINA RESULT:      -5.0      2.399      3.043
REMARK  Name = 
REMARK  4 active torsions:
REMARK  status: ('A' for Active; 'I' for Inactive)
REMARK    1  A    between atoms: C_1  and  C_2
REMARK    2  A    between atoms: C_2  and  C_3
REMARK    3  A    between atoms: C_8  and  C_9
REMARK    4  A    between atoms: C_8  and  O_10
REMARK                            x       y       z     vdW  Elec       q    Type
REMARK                         _______ _______ _______ _____ _____    ______ ____
ROOT
ATOM      1  C   UNL     1       2.414   4.268  17.534  0.00  0.00    +0.000 C 
ATOM      2  C   UNL     1       2.911   4.091  18.977  0.00  0.00    +0.000 C 
ATOM      3  C   UNL     1       3.517   5.428  19.443  0.00  0.00    +0.000 C 
ATOM      4  S   UNL     1       1.450   3.701  20.008  0.00  0.00    +0.000 S 
ATOM      5  S   UNL     1       2.466   2.818  21.538  0.00  0.00    +0.000 S 
ATOM      6  C   UNL     1       3.900   2.391  20.613  0.00  0.00    +0.000 C 
ATOM      7  O   UNL     1       4.835   1.782  21.122  0.00  0.00    +0.000 OA
ATOM      8  C   UNL     1       3.914   2.903  19.153  0.00  0.00    +0.000 C 
ATOM      9  C   UNL     1       3.637   1.690  18.255  0.00  0.00    +0.000 C 
ENDROOT
BRANCH   8  10
ATOM     10  O   UNL     1       5.238   3.343  18.798  0.00  0.00    +0.000 OA
ATOM     11  H   UNL     1       5.159   4.234  18.397  0.00  0.00    +0.000 HD
ENDBRANCH   8  10
TORSDOF 1
ENDMDL
MODEL 4
REMARK VINA RESULT:      -4.8      2.529      3.390
REMARK  Name = 
REMARK  4 active torsions:
REMARK  status: ('A' for Active; 'I' for Inactive)
REMARK    1  A    between atoms: C_1  and  C_2
REMARK    2  A    between atoms: C_2  and  C_3
REMARK    3  A    between atoms: C_8  and  C_9
REMARK    4  A    between atoms: C_8  and  O_10
REMARK                            x       y       z     vdW  Elec       q    Type
REMARK                         _______ _______ _______ _____ _____    ______ ____
ROOT
ATOM      1  C   UNL     1       1.773   2.545  21.379  0.00  0.00    +0.000 C 
ATOM      2  C   UNL     1       1.908   3.140  19.968  0.00  0.00    +0.000 C 
ATOM      3  C   UNL     1       0.596   2.873  19.208  0.00  0.00    +0.000 C 
ATOM      4  S   UNL     1       2.135   4.945  20.162  0.00  0.00    +0.000 S 
ATOM      5  S   UNL     1       3.005   5.273  18.349  0.00  0.00    +0.000 S 
ATOM      6  C   UNL     1       3.585   3.631  18.100  0.00  0.00    +0.000 C 
ATOM      7  O   UNL     1       4.232   3.323  17.105  0.00  0.00    +0.000 OA
ATOM      8  C   UNL     1       3.155   2.613  19.183  0.00  0.00    +0.000 C 
ATOM      9  C   UNL     1       4.392   2.338  20.050  0.00  0.00    +0.000 C 
ENDROOT
BRANCH   8  10
ATOM     10  O   UNL     1       2.832   1.350  18.572  0.00  0.00    +0.000 OA
ATOM     11  H   UNL     1       2.532   1.528  17.657  0.00  0.00    +0.000 HD
ENDBRANCH   8  10
TORSDOF 1
ENDMDL
MODEL 5
REMARK VINA RESULT:      -4.8      5.026      5.695
REMARK  Name = 
REMARK  4 active torsions:
REMARK  status: ('A' for Active; 'I' for Inactive)
REMARK    1  A    between atoms: C_1  and  C_2
REMARK    2  A    between atoms: C_2  and  C_3
REMARK    3  A    between atoms: C_8  and  C_9
REMARK    4  A    between atoms: C_8  and  O_10
REMARK                            x       y       z     vdW  Elec       q    Type
REMARK                         _______ _______ _______ _____ _____    ______ ____
ROOT
ATOM      1  C   UNL     1       3.534   4.285  17.097  0.00  0.00    +0.000 C 
ATOM      2  C   UNL     1       4.593   5.334  17.471  0.00  0.00    +0.000 C 
ATOM      3  C   UNL     1       3.865   6.641  17.836  0.00  0.00    +0.000 C 
ATOM      4  S   UNL     1       5.478   4.706  18.944  0.00  0.00    +0.000 S 
ATOM      5  S   UNL     1       7.164   5.825  18.705  0.00  0.00    +0.000 S 
ATOM      6  C   UNL     1       6.982   6.105  16.978  0.00  0.00    +0.000 C 
ATOM      7  O   UNL     1       7.814   6.738  16.339  0.00  0.00    +0.000 OA
ATOM      8  C   UNL     1       5.673   5.558  16.361  0.00  0.00    +0.000 C 
ATOM      9  C   UNL     1       6.048   4.299  15.566  0.00  0.00    +0.000 C 
ENDROOT
BRANCH   8  10
ATOM     10  O   UNL     1       5.163   6.485  15.384  0.00  0.00    +0.000 OA
ATOM     11  H   UNL     1       4.589   7.126  15.851  0.00  0.00    +0.000 HD
ENDBRANCH   8  10
TORSDOF 1
ENDMDL
MODEL 6
REMARK VINA RESULT:      -4.7      4.493      4.939
REMARK  Name = 
REMARK  4 active torsions:
REMARK  status: ('A' for Active; 'I' for Inactive)
REMARK    1  A    between atoms: C_1  and  C_2
REMARK    2  A    between atoms: C_2  and  C_3
REMARK    3  A    between atoms: C_8  and  C_9
REMARK    4  A    between atoms: C_8  and  O_10
REMARK                            x       y       z     vdW  Elec       q    Type
REMARK                         _______ _______ _______ _____ _____    ______ ____
ROOT
ATOM      1  C   UNL     1       3.569   5.618  18.111  0.00  0.00    +0.000 C 
ATOM      2  C   UNL     1       4.704   4.917  17.347  0.00  0.00    +0.000 C 
ATOM      3  C   UNL     1       4.155   3.593  16.782  0.00  0.00    +0.000 C 
ATOM      4  S   UNL     1       5.181   6.012  15.962  0.00  0.00    +0.000 S 
ATOM      5  S   UNL     1       7.048   5.244  15.682  0.00  0.00    +0.000 S 
ATOM      6  C   UNL     1       7.239   4.575  17.297  0.00  0.00    +0.000 C 
ATOM      7  O   UNL     1       8.271   4.008  17.640  0.00  0.00    +0.000 OA
ATOM      8  C   UNL     1       5.993   4.693  18.207  0.00  0.00    +0.000 C 
ATOM      9  C   UNL     1       6.288   5.806  19.222  0.00  0.00    +0.000 C 
ENDROOT
BRANCH   8  10
ATOM     10  O   UNL     1       5.839   3.496  18.991  0.00  0.00    +0.000 OA
ATOM     11  H   UNL     1       6.596   2.908  18.792  0.00  0.00    +0.000 HD
ENDBRANCH   8  10
TORSDOF 1
ENDMDL
MODEL 7
REMARK VINA RESULT:      -4.7      4.955      5.442
REMARK  Name = 
REMARK  4 active torsions:
REMARK  status: ('A' for Active; 'I' for Inactive)
REMARK    1  A    between atoms: C_1  and  C_2
REMARK    2  A    between atoms: C_2  and  C_3
REMARK    3  A    between atoms: C_8  and  C_9
REMARK    4  A    between atoms: C_8  and  O_10
REMARK                            x       y       z     vdW  Elec       q    Type
REMARK                         _______ _______ _______ _____ _____    ______ ____
ROOT
ATOM      1  C   UNL     1       4.366   7.103  17.406  0.00  0.00    +0.000 C 
ATOM      2  C   UNL     1       5.081   5.758  17.202  0.00  0.00    +0.000 C 
ATOM      3  C   UNL     1       4.149   4.639  17.703  0.00  0.00    +0.000 C 
ATOM      4  S   UNL     1       5.350   5.557  15.404  0.00  0.00    +0.000 S 
ATOM      5  S   UNL     1       6.876   4.214  15.539  0.00  0.00    +0.000 S 
ATOM      6  C   UNL     1       7.382   4.641  17.168  0.00  0.00    +0.000 C 
ATOM      7  O   UNL     1       8.339   4.095  17.708  0.00  0.00    +0.000 OA
ATOM      8  C   UNL     1       6.491   5.689  17.877  0.00  0.00    +0.000 C 
ATOM      9  C   UNL     1       7.271   7.011  17.873  0.00  0.00    +0.000 C 
ENDROOT
BRANCH   8  10
ATOM     10  O   UNL     1       6.335   5.345  19.266  0.00  0.00    +0.000 OA
ATOM     11  H   UNL     1       6.270   6.179  19.775  0.00  0.00    +0.000 HD
ENDBRANCH   8  10
TORSDOF 1
ENDMDL
MODEL 8
REMARK VINA RESULT:      -4.7      2.105      3.503
REMARK  Name = 
REMARK  4 active torsions:
REMARK  status: ('A' for Active; 'I' for Inactive)
REMARK    1  A    between atoms: C_1  and  C_2
REMARK    2  A    between atoms: C_2  and  C_3
REMARK    3  A    between atoms: C_8  and  C_9
REMARK    4  A    between atoms: C_8  and  O_10
REMARK                            x       y       z     vdW  Elec       q    Type
REMARK                         _______ _______ _______ _____ _____    ______ ____
ROOT
ATOM      1  C   UNL     1       2.654   2.708  21.394  0.00  0.00    +0.000 C 
ATOM      2  C   UNL     1       2.215   3.451  20.122  0.00  0.00    +0.000 C 
ATOM      3  C   UNL     1       0.756   3.909  20.315  0.00  0.00    +0.000 C 
ATOM      4  S   UNL     1       3.291   4.921  19.955  0.00  0.00    +0.000 S 
ATOM      5  S   UNL     1       3.011   5.196  17.955  0.00  0.00    +0.000 S 
ATOM      6  C   UNL     1       2.533   3.544  17.586  0.00  0.00    +0.000 C 
ATOM      7  O   UNL     1       2.278   3.190  16.440  0.00  0.00    +0.000 OA
ATOM      8  C   UNL     1       2.394   2.612  18.813  0.00  0.00    +0.000 C 
ATOM      9  C   UNL     1       3.616   1.684  18.807  0.00  0.00    +0.000 C 
ENDROOT
BRANCH   8  10
ATOM     10  O   UNL     1       1.258   1.744  18.647  0.00  0.00    +0.000 OA
ATOM     11  H   UNL     1       1.531   0.841  18.908  0.00  0.00    +0.000 HD
ENDBRANCH   8  10
TORSDOF 1
ENDMDL
MODEL 9
REMARK VINA RESULT:      -4.7      4.717      5.230
REMARK  Name = 
REMARK  4 active torsions:
REMARK  status: ('A' for Active; 'I' for Inactive)
REMARK    1  A    between atoms: C_1  and  C_2
REMARK    2  A    between atoms: C_2  and  C_3
REMARK    3  A    between atoms: C_8  and  C_9
REMARK    4  A    between atoms: C_8  and  O_10
REMARK                            x       y       z     vdW  Elec       q    Type
REMARK                         _______ _______ _______ _____ _____    ______ ____
ROOT
ATOM      1  C   UNL     1       5.419   5.528  15.216  0.00  0.00    +0.000 C 
ATOM      2  C   UNL     1       5.191   5.676  16.728  0.00  0.00    +0.000 C 
ATOM      3  C   UNL     1       4.460   7.009  16.975  0.00  0.00    +0.000 C 
ATOM      4  S   UNL     1       4.113   4.293  17.250  0.00  0.00    +0.000 S 
ATOM      5  S   UNL     1       4.626   4.320  19.222  0.00  0.00    +0.000 S 
ATOM      6  C   UNL     1       6.183   5.113  19.018  0.00  0.00    +0.000 C 
ATOM      7  O   UNL     1       6.922   5.333  19.972  0.00  0.00    +0.000 OA
ATOM      8  C   UNL     1       6.504   5.565  17.574  0.00  0.00    +0.000 C 
ATOM      9  C   UNL     1       7.543   4.581  17.020  0.00  0.00    +0.000 C 
ENDROOT
BRANCH   8  10
ATOM     10  O   UNL     1       7.165   6.844  17.593  0.00  0.00    +0.000 OA
ATOM     11  H   UNL     1       6.476   7.536  17.667  0.00  0.00    +0.000 HD
ENDBRANCH   8  10
TORSDOF 1
ENDMDL
