MODEL 1
REMARK VINA RESULT:      -9.0      0.000      0.000
REMARK  Name = 
REMARK  4 active torsions:
REMARK  status: ('A' for Active; 'I' for Inactive)
REMARK    1  A    between atoms: C_1  and  O_2
REMARK    2  A    between atoms: O_2  and  C_3
REMARK    3  A    between atoms: C_3  and  C_5
REMARK    4  A    between atoms: C_17  and  C_18
REMARK                            x       y       z     vdW  Elec       q    Type
REMARK                         _______ _______ _______ _____ _____    ______ ____
ROOT
ATOM      1  C   UNL     1       5.046   5.826  16.287  0.00  0.00    +0.000 C 
ATOM      2  C   UNL     1       4.109   4.727  16.796  0.00  0.00    +0.000 C 
ATOM      3  C   UNL     1       4.189   4.824  18.316  0.00  0.00    +0.000 C 
ATOM      4  C   UNL     1       5.411   4.014  18.845  0.00  0.00    +0.000 C 
ATOM      5  O   UNL     1       6.589   4.170  18.562  0.00  0.00    +0.000 OA
ATOM      6  N   UNL     1       4.944   3.059  19.730  0.00  0.00    +0.000 N 
ATOM      7  C   UNL     1       3.575   3.146  19.886  0.00  0.00    +0.000 A 
ATOM      8  C   UNL     1       2.800   2.393  20.744  0.00  0.00    +0.000 A 
ATOM      9  C   UNL     1       1.434   2.667  20.777  0.00  0.00    +0.000 A 
ATOM     10  C   UNL     1       0.882   3.639  19.926  0.00  0.00    +0.000 A 
ATOM     11  C   UNL     1       1.689   4.365  19.042  0.00  0.00    +0.000 A 
ATOM     12  C   UNL     1       3.058   4.142  19.057  0.00  0.00    +0.000 A 
ATOM     13  C   UNL     1       4.466   6.324  18.565  0.00  0.00    +0.000 C 
ATOM     14  N   UNL     1       5.337   6.741  17.434  0.00  0.00    +0.000 NA
ATOM     15  H   UNL     1       5.553   2.415  20.211  0.00  0.00    +0.000 HD
ATOM     16  H   UNL     1       6.311   6.550  17.709  0.00  0.00    +0.000 HD
ENDROOT
BRANCH  13  17
ATOM     17  C   UNL     1       3.227   7.209  18.690  0.00  0.00    +0.000 A 
ATOM     18  C   UNL     1       2.837   7.999  17.591  0.00  0.00    +0.000 A 
ATOM     19  C   UNL     1       1.789   8.916  17.695  0.00  0.00    +0.000 A 
ATOM     20  C   UNL     1       1.092   9.047  18.893  0.00  0.00    +0.000 A 
ATOM     21  C   UNL     1       1.429   8.242  19.978  0.00  0.00    +0.000 A 
ATOM     22  C   UNL     1       2.482   7.330  19.877  0.00  0.00    +0.000 A 
ENDBRANCH  13  17
BRANCH   1  23
ATOM     23  C   UNL     1       6.307   5.225  15.647  0.00  0.00    +0.000 C 
ATOM     24  O   UNL     1       7.385   5.815  15.612  0.00  0.00    +0.000 OA
BRANCH  23  26
ATOM     25  C   UNL     1       6.237   3.917  13.712  0.00  0.00    +0.000 C 
ATOM     26  O   UNL     1       6.089   3.984  15.130  0.00  0.00    +0.000 OA
ENDBRANCH  23  26
ENDBRANCH   1  23
TORSDOF 3
ENDMDL
MODEL 2
REMARK VINA RESULT:      -8.4      1.533      4.380
REMARK  Name = 
REMARK  4 active torsions:
REMARK  status: ('A' for Active; 'I' for Inactive)
REMARK    1  A    between atoms: C_1  and  O_2
REMARK    2  A    between atoms: O_2  and  C_3
REMARK    3  A    between atoms: C_3  and  C_5
REMARK    4  A    between atoms: C_17  and  C_18
REMARK                            x       y       z     vdW  Elec       q    Type
REMARK                         _______ _______ _______ _____ _____    ______ ____
ROOT
ATOM      1  C   UNL     1       5.955   4.605  18.589  0.00  0.00    +0.000 C 
ATOM      2  C   UNL     1       5.296   5.844  19.203  0.00  0.00    +0.000 C 
ATOM      3  C   UNL     1       3.973   5.988  18.459  0.00  0.00    +0.000 C 
ATOM      4  C   UNL     1       4.183   6.770  17.128  0.00  0.00    +0.000 C 
ATOM      5  O   UNL     1       4.917   6.477  16.198  0.00  0.00    +0.000 OA
ATOM      6  N   UNL     1       3.372   7.890  17.156  0.00  0.00    +0.000 N 
ATOM      7  C   UNL     1       2.622   7.940  18.313  0.00  0.00    +0.000 A 
ATOM      8  C   UNL     1       1.665   8.882  18.629  0.00  0.00    +0.000 A 
ATOM      9  C   UNL     1       0.991   8.728  19.839  0.00  0.00    +0.000 A 
ATOM     10  C   UNL     1       1.327   7.679  20.711  0.00  0.00    +0.000 A 
ATOM     11  C   UNL     1       2.328   6.758  20.380  0.00  0.00    +0.000 A 
ATOM     12  C   UNL     1       2.949   6.869  19.145  0.00  0.00    +0.000 A 
ATOM     13  C   UNL     1       3.603   4.530  18.102  0.00  0.00    +0.000 C 
ATOM     14  N   UNL     1       4.904   3.867  17.822  0.00  0.00    +0.000 NA
ATOM     15  H   UNL     1       3.329   8.552  16.395  0.00  0.00    +0.000 HD
ATOM     16  H   UNL     1       5.119   4.020  16.826  0.00  0.00    +0.000 HD
ENDROOT
BRANCH  13  17
ATOM     17  C   UNL     1       2.794   3.779  19.160  0.00  0.00    +0.000 A 
ATOM     18  C   UNL     1       1.399   3.665  19.000  0.00  0.00    +0.000 A 
ATOM     19  C   UNL     1       0.601   3.100  19.998  0.00  0.00    +0.000 A 
ATOM     20  C   UNL     1       1.184   2.614  21.165  0.00  0.00    +0.000 A 
ATOM     21  C   UNL     1       2.564   2.672  21.323  0.00  0.00    +0.000 A 
ATOM     22  C   UNL     1       3.362   3.245  20.330  0.00  0.00    +0.000 A 
ENDBRANCH  13  17
BRANCH   1  23
ATOM     23  C   UNL     1       7.176   4.991  17.741  0.00  0.00    +0.000 C 
ATOM     24  O   UNL     1       7.473   4.416  16.696  0.00  0.00    +0.000 OA
BRANCH  23  26
ATOM     25  C   UNL     1       7.785   7.237  17.527  0.00  0.00    +0.000 C 
ATOM     26  O   UNL     1       7.878   6.027  18.279  0.00  0.00    +0.000 OA
ENDBRANCH  23  26
ENDBRANCH   1  23
TORSDOF 3
ENDMDL
MODEL 3
REMARK VINA RESULT:      -8.3      1.308      4.190
REMARK  Name = 
REMARK  4 active torsions:
REMARK  status: ('A' for Active; 'I' for Inactive)
REMARK    1  A    between atoms: C_1  and  O_2
REMARK    2  A    between atoms: O_2  and  C_3
REMARK    3  A    between atoms: C_3  and  C_5
REMARK    4  A    between atoms: C_17  and  C_18
REMARK                            x       y       z     vdW  Elec       q    Type
REMARK                         _______ _______ _______ _____ _____    ______ ____
ROOT
ATOM      1  C   UNL     1       5.919   4.574  18.248  0.00  0.00    +0.000 C 
ATOM      2  C   UNL     1       5.320   5.797  18.950  0.00  0.00    +0.000 C 
ATOM      3  C   UNL     1       3.958   5.991  18.293  0.00  0.00    +0.000 C 
ATOM      4  C   UNL     1       4.103   6.825  16.985  0.00  0.00    +0.000 C 
ATOM      5  O   UNL     1       4.774   6.559  16.000  0.00  0.00    +0.000 OA
ATOM      6  N   UNL     1       3.314   7.955  17.106  0.00  0.00    +0.000 N 
ATOM      7  C   UNL     1       2.636   7.968  18.308  0.00  0.00    +0.000 A 
ATOM      8  C   UNL     1       1.716   8.911  18.718  0.00  0.00    +0.000 A 
ATOM      9  C   UNL     1       1.113   8.717  19.960  0.00  0.00    +0.000 A 
ATOM     10  C   UNL     1       1.481   7.628  20.767  0.00  0.00    +0.000 A 
ATOM     11  C   UNL     1       2.444   6.706  20.339  0.00  0.00    +0.000 A 
ATOM     12  C   UNL     1       2.993   6.859  19.074  0.00  0.00    +0.000 A 
ATOM     13  C   UNL     1       3.541   4.555  17.901  0.00  0.00    +0.000 C 
ATOM     14  N   UNL     1       4.812   3.885  17.515  0.00  0.00    +0.000 NA
ATOM     15  H   UNL     1       3.238   8.649  16.377  0.00  0.00    +0.000 HD
ATOM     16  H   UNL     1       4.970   4.076  16.516  0.00  0.00    +0.000 HD
ENDROOT
BRANCH  13  17
ATOM     17  C   UNL     1       2.783   3.773  18.973  0.00  0.00    +0.000 A 
ATOM     18  C   UNL     1       1.387   3.632  18.857  0.00  0.00    +0.000 A 
ATOM     19  C   UNL     1       0.634   3.037  19.873  0.00  0.00    +0.000 A 
ATOM     20  C   UNL     1       1.265   2.549  21.014  0.00  0.00    +0.000 A 
ATOM     21  C   UNL     1       2.648   2.634  21.128  0.00  0.00    +0.000 A 
ATOM     22  C   UNL     1       3.401   3.237  20.117  0.00  0.00    +0.000 A 
ENDBRANCH  13  17
BRANCH   1  23
ATOM     23  C   UNL     1       7.094   4.976  17.344  0.00  0.00    +0.000 C 
ATOM     24  O   UNL     1       7.775   5.981  17.540  0.00  0.00    +0.000 OA
BRANCH  23  26
ATOM     25  C   UNL     1       7.157   4.695  15.025  0.00  0.00    +0.000 C 
ATOM     26  O   UNL     1       7.285   4.102  16.317  0.00  0.00    +0.000 OA
ENDBRANCH  23  26
ENDBRANCH   1  23
TORSDOF 3
ENDMDL
MODEL 4
REMARK VINA RESULT:      -7.9      1.508      4.491
REMARK  Name = 
REMARK  4 active torsions:
REMARK  status: ('A' for Active; 'I' for Inactive)
REMARK    1  A    between atoms: C_1  and  O_2
REMARK    2  A    between atoms: O_2  and  C_3
REMARK    3  A    between atoms: C_3  and  C_5
REMARK    4  A    between atoms: C_17  and  C_18
REMARK                            x       y       z     vdW  Elec       q    Type
REMARK                         _______ _______ _______ _____ _____    ______ ____
ROOT
ATOM      1  C   UNL     1       5.909   4.638  18.610  0.00  0.00    +0.000 C 
ATOM      2  C   UNL     1       5.273   5.928  19.140  0.00  0.00    +0.000 C 
ATOM      3  C   UNL     1       3.973   6.068  18.356  0.00  0.00    +0.000 C 
ATOM      4  C   UNL     1       4.239   6.771  16.991  0.00  0.00    +0.000 C 
ATOM      5  O   UNL     1       4.986   6.406  16.096  0.00  0.00    +0.000 OA
ATOM      6  N   UNL     1       3.461   7.913  16.938  0.00  0.00    +0.000 N 
ATOM      7  C   UNL     1       2.686   8.047  18.072  0.00  0.00    +0.000 A 
ATOM      8  C   UNL     1       1.749   9.032  18.311  0.00  0.00    +0.000 A 
ATOM      9  C   UNL     1       1.043   8.963  19.511  0.00  0.00    +0.000 A 
ATOM     10  C   UNL     1       1.326   7.954  20.446  0.00  0.00    +0.000 A 
ATOM     11  C   UNL     1       2.306   6.988  20.190  0.00  0.00    +0.000 A 
ATOM     12  C   UNL     1       2.960   7.014  18.967  0.00  0.00    +0.000 A 
ATOM     13  C   UNL     1       3.569   4.604  18.068  0.00  0.00    +0.000 C 
ATOM     14  N   UNL     1       4.856   3.890  17.857  0.00  0.00    +0.000 NA
ATOM     15  H   UNL     1       3.456   8.534  16.142  0.00  0.00    +0.000 HD
ATOM     16  H   UNL     1       5.099   3.983  16.861  0.00  0.00    +0.000 HD
ENDROOT
BRANCH  13  17
ATOM     17  C   UNL     1       2.713   3.935  19.143  0.00  0.00    +0.000 A 
ATOM     18  C   UNL     1       3.327   3.497  20.332  0.00  0.00    +0.000 A 
ATOM     19  C   UNL     1       2.615   2.769  21.288  0.00  0.00    +0.000 A 
ATOM     20  C   UNL     1       1.267   2.486  21.088  0.00  0.00    +0.000 A 
ATOM     21  C   UNL     1       0.627   2.950  19.943  0.00  0.00    +0.000 A 
ATOM     22  C   UNL     1       1.341   3.671  18.982  0.00  0.00    +0.000 A 
ENDBRANCH  13  17
BRANCH   1  23
ATOM     23  C   UNL     1       7.162   4.943  17.774  0.00  0.00    +0.000 C 
ATOM     24  O   UNL     1       7.417   4.368  16.718  0.00  0.00    +0.000 OA
BRANCH  23  26
ATOM     25  C   UNL     1       7.808   7.188  17.718  0.00  0.00    +0.000 C 
ATOM     26  O   UNL     1       7.942   5.908  18.336  0.00  0.00    +0.000 OA
ENDBRANCH  23  26
ENDBRANCH   1  23
TORSDOF 3
ENDMDL
MODEL 5
REMARK VINA RESULT:      -7.9      0.516      1.275
REMARK  Name = 
REMARK  4 active torsions:
REMARK  status: ('A' for Active; 'I' for Inactive)
REMARK    1  A    between atoms: C_1  and  O_2
REMARK    2  A    between atoms: O_2  and  C_3
REMARK    3  A    between atoms: C_3  and  C_5
REMARK    4  A    between atoms: C_17  and  C_18
REMARK                            x       y       z     vdW  Elec       q    Type
REMARK                         _______ _______ _______ _____ _____    ______ ____
ROOT
ATOM      1  C   UNL     1       4.810   5.474  16.246  0.00  0.00    +0.000 C 
ATOM      2  C   UNL     1       3.829   4.501  16.910  0.00  0.00    +0.000 C 
ATOM      3  C   UNL     1       4.033   4.708  18.407  0.00  0.00    +0.000 C 
ATOM      4  C   UNL     1       5.223   3.840  18.915  0.00  0.00    +0.000 C 
ATOM      5  O   UNL     1       6.384   3.872  18.538  0.00  0.00    +0.000 OA
ATOM      6  N   UNL     1       4.749   3.000  19.907  0.00  0.00    +0.000 N 
ATOM      7  C   UNL     1       3.409   3.217  20.151  0.00  0.00    +0.000 A 
ATOM      8  C   UNL     1       2.643   2.601  21.120  0.00  0.00    +0.000 A 
ATOM      9  C   UNL     1       1.310   2.994  21.226  0.00  0.00    +0.000 A 
ATOM     10  C   UNL     1       0.775   3.941  20.338  0.00  0.00    +0.000 A 
ATOM     11  C   UNL     1       1.567   4.524  19.341  0.00  0.00    +0.000 A 
ATOM     12  C   UNL     1       2.911   4.186  19.280  0.00  0.00    +0.000 A 
ATOM     13  C   UNL     1       4.447   6.194  18.510  0.00  0.00    +0.000 C 
ATOM     14  N   UNL     1       5.260   6.445  17.290  0.00  0.00    +0.000 NA
ATOM     15  H   UNL     1       5.341   2.345  20.396  0.00  0.00    +0.000 HD
ATOM     16  H   UNL     1       6.234   6.194  17.512  0.00  0.00    +0.000 HD
ENDROOT
BRANCH  13  17
ATOM     17  C   UNL     1       3.296   7.190  18.647  0.00  0.00    +0.000 A 
ATOM     18  C   UNL     1       2.659   7.330  19.894  0.00  0.00    +0.000 A 
ATOM     19  C   UNL     1       1.524   8.131  20.040  0.00  0.00    +0.000 A 
ATOM     20  C   UNL     1       1.017   8.829  18.947  0.00  0.00    +0.000 A 
ATOM     21  C   UNL     1       1.659   8.744  17.716  0.00  0.00    +0.000 A 
ATOM     22  C   UNL     1       2.789   7.936  17.567  0.00  0.00    +0.000 A 
ENDBRANCH  13  17
BRANCH   1  23
ATOM     23  C   UNL     1       5.965   4.719  15.572  0.00  0.00    +0.000 C 
ATOM     24  O   UNL     1       6.006   3.493  15.492  0.00  0.00    +0.000 OA
BRANCH  23  26
ATOM     25  C   UNL     1       7.451   5.155  13.821  0.00  0.00    +0.000 C 
ATOM     26  O   UNL     1       6.922   5.557  15.086  0.00  0.00    +0.000 OA
ENDBRANCH  23  26
ENDBRANCH   1  23
TORSDOF 3
ENDMDL
MODEL 6
REMARK VINA RESULT:      -7.6      1.359      4.291
REMARK  Name = 
REMARK  4 active torsions:
REMARK  status: ('A' for Active; 'I' for Inactive)
REMARK    1  A    between atoms: C_1  and  O_2
REMARK    2  A    between atoms: O_2  and  C_3
REMARK    3  A    between atoms: C_3  and  C_5
REMARK    4  A    between atoms: C_17  and  C_18
REMARK                            x       y       z     vdW  Elec       q    Type
REMARK                         _______ _______ _______ _____ _____    ______ ____
ROOT
ATOM      1  C   UNL     1       5.864   4.715  17.999  0.00  0.00    +0.000 C 
ATOM      2  C   UNL     1       5.270   5.901  18.765  0.00  0.00    +0.000 C 
ATOM      3  C   UNL     1       3.925   6.160  18.094  0.00  0.00    +0.000 C 
ATOM      4  C   UNL     1       4.112   7.072  16.845  0.00  0.00    +0.000 C 
ATOM      5  O   UNL     1       4.800   6.857  15.859  0.00  0.00    +0.000 OA
ATOM      6  N   UNL     1       3.339   8.206  17.021  0.00  0.00    +0.000 N 
ATOM      7  C   UNL     1       2.635   8.155  18.207  0.00  0.00    +0.000 A 
ATOM      8  C   UNL     1       1.721   9.086  18.657  0.00  0.00    +0.000 A 
ATOM      9  C   UNL     1       1.089   8.824  19.871  0.00  0.00    +0.000 A 
ATOM     10  C   UNL     1       1.422   7.680  20.615  0.00  0.00    +0.000 A 
ATOM     11  C   UNL     1       2.379   6.770  20.149  0.00  0.00    +0.000 A 
ATOM     12  C   UNL     1       2.957   6.993  18.909  0.00  0.00    +0.000 A 
ATOM     13  C   UNL     1       3.495   4.759  17.602  0.00  0.00    +0.000 C 
ATOM     14  N   UNL     1       4.763   4.093  17.202  0.00  0.00    +0.000 NA
ATOM     15  H   UNL     1       3.290   8.946  16.336  0.00  0.00    +0.000 HD
ATOM     16  H   UNL     1       4.945   4.344  16.220  0.00  0.00    +0.000 HD
ENDROOT
BRANCH  13  17
ATOM     17  C   UNL     1       2.701   3.925  18.607  0.00  0.00    +0.000 A 
ATOM     18  C   UNL     1       3.367   3.385  19.725  0.00  0.00    +0.000 A 
ATOM     19  C   UNL     1       2.717   2.514  20.602  0.00  0.00    +0.000 A 
ATOM     20  C   UNL     1       1.381   2.183  20.395  0.00  0.00    +0.000 A 
ATOM     21  C   UNL     1       0.690   2.742  19.325  0.00  0.00    +0.000 A 
ATOM     22  C   UNL     1       1.341   3.607  18.442  0.00  0.00    +0.000 A 
ENDBRANCH  13  17
BRANCH   1  23
ATOM     23  C   UNL     1       7.065   5.153  17.147  0.00  0.00    +0.000 C 
ATOM     24  O   UNL     1       7.668   6.208  17.334  0.00  0.00    +0.000 OA
BRANCH  23  26
ATOM     25  C   UNL     1       7.154   4.730  14.850  0.00  0.00    +0.000 C 
ATOM     26  O   UNL     1       7.374   4.249  16.177  0.00  0.00    +0.000 OA
ENDBRANCH  23  26
ENDBRANCH   1  23
TORSDOF 3
ENDMDL
MODEL 7
REMARK VINA RESULT:      -7.3      1.204      1.668
REMARK  Name = 
REMARK  4 active torsions:
REMARK  status: ('A' for Active; 'I' for Inactive)
REMARK    1  A    between atoms: C_1  and  O_2
REMARK    2  A    between atoms: O_2  and  C_3
REMARK    3  A    between atoms: C_3  and  C_5
REMARK    4  A    between atoms: C_17  and  C_18
REMARK                            x       y       z     vdW  Elec       q    Type
REMARK                         _______ _______ _______ _____ _____    ______ ____
ROOT
ATOM      1  C   UNL     1       5.560   6.523  16.791  0.00  0.00    +0.000 C 
ATOM      2  C   UNL     1       4.567   5.366  16.638  0.00  0.00    +0.000 C 
ATOM      3  C   UNL     1       4.208   4.973  18.066  0.00  0.00    +0.000 C 
ATOM      4  C   UNL     1       5.264   3.978  18.635  0.00  0.00    +0.000 C 
ATOM      5  O   UNL     1       6.465   4.157  18.762  0.00  0.00    +0.000 OA
ATOM      6  N   UNL     1       4.608   2.816  19.000  0.00  0.00    +0.000 N 
ATOM      7  C   UNL     1       3.249   2.917  18.782  0.00  0.00    +0.000 A 
ATOM      8  C   UNL     1       2.296   1.970  19.099  0.00  0.00    +0.000 A 
ATOM      9  C   UNL     1       0.966   2.287  18.829  0.00  0.00    +0.000 A 
ATOM     10  C   UNL     1       0.636   3.504  18.211  0.00  0.00    +0.000 A 
ATOM     11  C   UNL     1       1.628   4.432  17.869  0.00  0.00    +0.000 A 
ATOM     12  C   UNL     1       2.944   4.148  18.201  0.00  0.00    +0.000 A 
ATOM     13  C   UNL     1       4.334   6.301  18.846  0.00  0.00    +0.000 C 
ATOM     14  N   UNL     1       5.472   7.011  18.202  0.00  0.00    +0.000 NA
ATOM     15  H   UNL     1       5.084   2.023  19.403  0.00  0.00    +0.000 HD
ATOM     16  H   UNL     1       6.335   6.695  18.667  0.00  0.00    +0.000 HD
ENDROOT
BRANCH  13  17
ATOM     17  C   UNL     1       3.072   7.162  18.889  0.00  0.00    +0.000 A 
ATOM     18  C   UNL     1       2.756   7.967  17.778  0.00  0.00    +0.000 A 
ATOM     19  C   UNL     1       1.686   8.864  17.817  0.00  0.00    +0.000 A 
ATOM     20  C   UNL     1       0.894   8.956  18.958  0.00  0.00    +0.000 A 
ATOM     21  C   UNL     1       1.158   8.135  20.049  0.00  0.00    +0.000 A 
ATOM     22  C   UNL     1       2.233   7.244  20.015  0.00  0.00    +0.000 A 
ENDBRANCH  13  17
BRANCH   1  23
ATOM     23  C   UNL     1       6.976   6.094  16.379  0.00  0.00    +0.000 C 
ATOM     24  O   UNL     1       7.208   5.442  15.362  0.00  0.00    +0.000 OA
BRANCH  23  26
ATOM     25  C   UNL     1       7.960   7.928  17.441  0.00  0.00    +0.000 C 
ATOM     26  O   UNL     1       7.926   6.512  17.261  0.00  0.00    +0.000 OA
ENDBRANCH  23  26
ENDBRANCH   1  23
TORSDOF 3
ENDMDL
MODEL 8
REMARK VINA RESULT:      -7.1      1.630      4.162
REMARK  Name = 
REMARK  4 active torsions:
REMARK  status: ('A' for Active; 'I' for Inactive)
REMARK    1  A    between atoms: C_1  and  O_2
REMARK    2  A    between atoms: O_2  and  C_3
REMARK    3  A    between atoms: C_3  and  C_5
REMARK    4  A    between atoms: C_17  and  C_18
REMARK                            x       y       z     vdW  Elec       q    Type
REMARK                         _______ _______ _______ _____ _____    ______ ____
ROOT
ATOM      1  C   UNL     1       5.744   4.888  17.283  0.00  0.00    +0.000 C 
ATOM      2  C   UNL     1       5.191   5.734  18.435  0.00  0.00    +0.000 C 
ATOM      3  C   UNL     1       3.765   6.073  18.015  0.00  0.00    +0.000 C 
ATOM      4  C   UNL     1       3.758   7.333  17.098  0.00  0.00    +0.000 C 
ATOM      5  O   UNL     1       4.332   7.484  16.032  0.00  0.00    +0.000 OA
ATOM      6  N   UNL     1       2.959   8.293  17.694  0.00  0.00    +0.000 N 
ATOM      7  C   UNL     1       2.406   7.828  18.870  0.00  0.00    +0.000 A 
ATOM      8  C   UNL     1       1.510   8.501  19.675  0.00  0.00    +0.000 A 
ATOM      9  C   UNL     1       1.041   7.833  20.805  0.00  0.00    +0.000 A 
ATOM     10  C   UNL     1       1.514   6.548  21.120  0.00  0.00    +0.000 A 
ATOM     11  C   UNL     1       2.450   5.904  20.301  0.00  0.00    +0.000 A 
ATOM     12  C   UNL     1       2.864   6.539  19.140  0.00  0.00    +0.000 A 
ATOM     13  C   UNL     1       3.345   4.857  17.158  0.00  0.00    +0.000 C 
ATOM     14  N   UNL     1       4.586   4.449  16.447  0.00  0.00    +0.000 NA
ATOM     15  H   UNL     1       2.793   9.199  17.281  0.00  0.00    +0.000 HD
ATOM     16  H   UNL     1       4.637   5.000  15.578  0.00  0.00    +0.000 HD
ENDROOT
BRANCH  13  17
ATOM     17  C   UNL     1       2.718   3.696  17.929  0.00  0.00    +0.000 A 
ATOM     18  C   UNL     1       1.316   3.618  18.026  0.00  0.00    +0.000 A 
ATOM     19  C   UNL     1       0.699   2.650  18.822  0.00  0.00    +0.000 A 
ATOM     20  C   UNL     1       1.470   1.723  19.517  0.00  0.00    +0.000 A 
ATOM     21  C   UNL     1       2.856   1.751  19.397  0.00  0.00    +0.000 A 
ATOM     22  C   UNL     1       3.474   2.724  18.608  0.00  0.00    +0.000 A 
ENDBRANCH  13  17
BRANCH   1  23
ATOM     23  C   UNL     1       6.813   5.661  16.494  0.00  0.00    +0.000 C 
ATOM     24  O   UNL     1       7.791   6.182  17.027  0.00  0.00    +0.000 OA
BRANCH  23  26
ATOM     25  C   UNL     1       7.278   4.735  14.399  0.00  0.00    +0.000 C 
ATOM     26  O   UNL     1       6.548   5.699  15.159  0.00  0.00    +0.000 OA
ENDBRANCH  23  26
ENDBRANCH   1  23
TORSDOF 3
ENDMDL
MODEL 9
REMARK VINA RESULT:      -6.9      2.615      4.916
REMARK  Name = 
REMARK  4 active torsions:
REMARK  status: ('A' for Active; 'I' for Inactive)
REMARK    1  A    between atoms: C_1  and  O_2
REMARK    2  A    between atoms: O_2  and  C_3
REMARK    3  A    between atoms: C_3  and  C_5
REMARK    4  A    between atoms: C_17  and  C_18
REMARK                            x       y       z     vdW  Elec       q    Type
REMARK                         _______ _______ _______ _____ _____    ______ ____
ROOT
ATOM      1  C   UNL     1       3.973   3.025  17.870  0.00  0.00    +0.000 C 
ATOM      2  C   UNL     1       3.051   4.241  17.728  0.00  0.00    +0.000 C 
ATOM      3  C   UNL     1       3.411   5.138  18.908  0.00  0.00    +0.000 C 
ATOM      4  C   UNL     1       2.623   4.700  20.179  0.00  0.00    +0.000 C 
ATOM      5  O   UNL     1       2.640   3.611  20.731  0.00  0.00    +0.000 OA
ATOM      6  N   UNL     1       1.876   5.780  20.615  0.00  0.00    +0.000 N 
ATOM      7  C   UNL     1       2.088   6.890  19.823  0.00  0.00    +0.000 A 
ATOM      8  C   UNL     1       1.557   8.149  20.017  0.00  0.00    +0.000 A 
ATOM      9  C   UNL     1       1.931   9.146  19.118  0.00  0.00    +0.000 A 
ATOM     10  C   UNL     1       2.773   8.847  18.035  0.00  0.00    +0.000 A 
ATOM     11  C   UNL     1       3.270   7.552  17.842  0.00  0.00    +0.000 A 
ATOM     12  C   UNL     1       2.955   6.576  18.776  0.00  0.00    +0.000 A 
ATOM     13  C   UNL     1       4.908   4.833  19.146  0.00  0.00    +0.000 C 
ATOM     14  N   UNL     1       5.053   3.385  18.839  0.00  0.00    +0.000 NA
ATOM     15  H   UNL     1       1.285   5.742  21.432  0.00  0.00    +0.000 HD
ATOM     16  H   UNL     1       4.845   2.865  19.703  0.00  0.00    +0.000 HD
ENDROOT
BRANCH  13  17
ATOM     17  C   UNL     1       5.888   5.690  18.346  0.00  0.00    +0.000 A 
ATOM     18  C   UNL     1       7.048   6.174  18.980  0.00  0.00    +0.000 A 
ATOM     19  C   UNL     1       7.909   7.062  18.331  0.00  0.00    +0.000 A 
ATOM     20  C   UNL     1       7.643   7.465  17.025  0.00  0.00    +0.000 A 
ATOM     21  C   UNL     1       6.528   6.960  16.362  0.00  0.00    +0.000 A 
ATOM     22  C   UNL     1       5.662   6.079  17.013  0.00  0.00    +0.000 A 
ENDBRANCH  13  17
BRANCH   1  23
ATOM     23  C   UNL     1       3.178   1.774  18.275  0.00  0.00    +0.000 C 
ATOM     24  O   UNL     1       3.662   0.861  18.942  0.00  0.00    +0.000 OA
BRANCH  23  26
ATOM     25  C   UNL     1       0.912   1.808  18.846  0.00  0.00    +0.000 C 
ATOM     26  O   UNL     1       1.897   1.797  17.812  0.00  0.00    +0.000 OA
ENDBRANCH  23  26
ENDBRANCH   1  23
TORSDOF 3
ENDMDL
