MODEL 1
REMARK VINA RESULT:      -7.9      0.000      0.000
REMARK  Name = 
REMARK  5 active torsions:
REMARK  status: ('A' for Active; 'I' for Inactive)
REMARK    1  A    between atoms: C_2  and  C_3
REMARK    2  A    between atoms: C_3  and  C_4
REMARK    3  A    between atoms: C_4  and  C_5
REMARK    4  A    between atoms: C_5  and  N_6
REMARK    5  A    between atoms: N_17  and  C_18
REMARK                            x       y       z     vdW  Elec       q    Type
REMARK                         _______ _______ _______ _____ _____    ______ ____
ROOT
ATOM      1  C   UNL     1       7.186   6.761  17.079  0.00  0.00    +0.000 C 
ENDROOT
BRANCH   1   2
ATOM      2  N   UNL     1       6.269   5.814  17.698  0.00  0.00    +0.000 N 
ATOM      3  C   UNL     1       6.805   4.632  18.211  0.00  0.00    +0.000 A 
ATOM      4  O   UNL     1       8.000   4.343  18.152  0.00  0.00    +0.000 OA
ATOM      5  N   UNL     1       5.938   3.759  18.819  0.00  0.00    +0.000 N 
ATOM      6  C   UNL     1       4.585   3.986  18.874  0.00  0.00    +0.000 A 
ATOM      7  C   UNL     1       3.581   3.153  19.426  0.00  0.00    +0.000 A 
ATOM      8  C   UNL     1       2.327   3.711  19.266  0.00  0.00    +0.000 A 
ATOM      9  S   UNL     1       2.392   5.232  18.472  0.00  0.00    +0.000 S 
ATOM     10  C   UNL     1       4.079   5.139  18.339  0.00  0.00    +0.000 A 
ATOM     11  C   UNL     1       4.903   6.148  17.727  0.00  0.00    +0.000 A 
ATOM     12  O   UNL     1       4.469   7.204  17.269  0.00  0.00    +0.000 OA
ATOM     13  H   UNL     1       6.335   2.911  19.206  0.00  0.00    +0.000 HD
ENDBRANCH   1   2
BRANCH   1  14
ATOM     14  C   UNL     1       7.868   7.665  18.113  0.00  0.00    +0.000 C 
BRANCH  14  15
ATOM     15  C   UNL     1       8.110   9.054  17.536  0.00  0.00    +0.000 C 
BRANCH  15  17
ATOM     16  O   UNL     1       9.154   9.582  19.640  0.00  0.00    +0.000 OA
ATOM     17  C   UNL     1       8.795   9.980  18.531  0.00  0.00    +0.000 C 
ATOM     18  N   UNL     1       8.958  11.270  18.128  0.00  0.00    +0.000 N 
ATOM     19  H   UNL     1       8.844  11.416  17.134  0.00  0.00    +0.000 HD
BRANCH  18  20
ATOM     20  C   UNL     1       9.627  12.319  18.906  0.00  0.00    +0.000 C 
ATOM     21  C   UNL     1      11.015  11.888  19.408  0.00  0.00    +0.000 C 
ATOM     22  C   UNL     1      12.027  11.755  18.271  0.00  0.00    +0.000 C 
ATOM     23  C   UNL     1      12.118  13.036  17.447  0.00  0.00    +0.000 C 
ATOM     24  C   UNL     1      10.753  13.471  16.923  0.00  0.00    +0.000 C 
ATOM     25  C   UNL     1       9.728  13.595  18.053  0.00  0.00    +0.000 C 
ENDBRANCH  18  20
ENDBRANCH  15  17
ENDBRANCH  14  15
ENDBRANCH   1  14
TORSDOF 5
ENDMDL
MODEL 2
REMARK VINA RESULT:      -7.9      1.723      2.194
REMARK  Name = 
REMARK  5 active torsions:
REMARK  status: ('A' for Active; 'I' for Inactive)
REMARK    1  A    between atoms: C_2  and  C_3
REMARK    2  A    between atoms: C_3  and  C_4
REMARK    3  A    between atoms: C_4  and  C_5
REMARK    4  A    between atoms: C_5  and  N_6
REMARK    5  A    between atoms: N_17  and  C_18
REMARK                            x       y       z     vdW  Elec       q    Type
REMARK                         _______ _______ _______ _____ _____    ______ ____
ROOT
ATOM      1  C   UNL     1       7.541   5.460  17.645  0.00  0.00    +0.000 C 
ENDROOT
BRANCH   1   2
ATOM      2  N   UNL     1       6.265   4.760  17.592  0.00  0.00    +0.000 N 
ATOM      3  C   UNL     1       5.812   4.334  16.343  0.00  0.00    +0.000 A 
ATOM      4  O   UNL     1       6.419   4.534  15.291  0.00  0.00    +0.000 OA
ATOM      5  N   UNL     1       4.622   3.649  16.305  0.00  0.00    +0.000 N 
ATOM      6  C   UNL     1       3.861   3.437  17.427  0.00  0.00    +0.000 A 
ATOM      7  C   UNL     1       2.603   2.791  17.521  0.00  0.00    +0.000 A 
ATOM      8  C   UNL     1       2.136   2.797  18.821  0.00  0.00    +0.000 A 
ATOM      9  S   UNL     1       3.230   3.563  19.900  0.00  0.00    +0.000 S 
ATOM     10  C   UNL     1       4.314   3.888  18.637  0.00  0.00    +0.000 A 
ATOM     11  C   UNL     1       5.571   4.570  18.800  0.00  0.00    +0.000 A 
ATOM     12  O   UNL     1       6.008   4.955  19.884  0.00  0.00    +0.000 OA
ATOM     13  H   UNL     1       4.306   3.327  15.398  0.00  0.00    +0.000 HD
ENDBRANCH   1   2
BRANCH   1  14
ATOM     14  C   UNL     1       7.385   6.967  17.415  0.00  0.00    +0.000 C 
BRANCH  14  15
ATOM     15  C   UNL     1       8.262   7.752  18.383  0.00  0.00    +0.000 C 
BRANCH  15  17
ATOM     16  O   UNL     1       7.407   9.755  17.354  0.00  0.00    +0.000 OA
ATOM     17  C   UNL     1       8.263   9.244  18.078  0.00  0.00    +0.000 C 
ATOM     18  N   UNL     1       9.276   9.964  18.633  0.00  0.00    +0.000 N 
ATOM     19  H   UNL     1       9.764   9.491  19.382  0.00  0.00    +0.000 HD
BRANCH  18  20
ATOM     20  C   UNL     1       9.447  11.416  18.508  0.00  0.00    +0.000 C 
ATOM     21  C   UNL     1       9.324  12.144  19.856  0.00  0.00    +0.000 C 
ATOM     22  C   UNL     1      10.499  11.847  20.786  0.00  0.00    +0.000 C 
ATOM     23  C   UNL     1      11.835  12.157  20.120  0.00  0.00    +0.000 C 
ATOM     24  C   UNL     1      11.987  11.429  18.788  0.00  0.00    +0.000 C 
ATOM     25  C   UNL     1      10.808  11.710  17.854  0.00  0.00    +0.000 C 
ENDBRANCH  18  20
ENDBRANCH  15  17
ENDBRANCH  14  15
ENDBRANCH   1  14
TORSDOF 5
ENDMDL
MODEL 3
REMARK VINA RESULT:      -7.6      5.482      8.460
REMARK  Name = 
REMARK  5 active torsions:
REMARK  status: ('A' for Active; 'I' for Inactive)
REMARK    1  A    between atoms: C_2  and  C_3
REMARK    2  A    between atoms: C_3  and  C_4
REMARK    3  A    between atoms: C_4  and  C_5
REMARK    4  A    between atoms: C_5  and  N_6
REMARK    5  A    between atoms: N_17  and  C_18
REMARK                            x       y       z     vdW  Elec       q    Type
REMARK                         _______ _______ _______ _____ _____    ______ ____
ROOT
ATOM      1  C   UNL     1       2.898   6.875  17.579  0.00  0.00    +0.000 C 
ENDROOT
BRANCH   1   2
ATOM      2  N   UNL     1       2.295   7.561  18.714  0.00  0.00    +0.000 N 
ATOM      3  C   UNL     1       2.313   6.912  19.948  0.00  0.00    +0.000 A 
ATOM      4  O   UNL     1       2.790   5.790  20.123  0.00  0.00    +0.000 OA
ATOM      5  N   UNL     1       1.769   7.578  21.019  0.00  0.00    +0.000 N 
ATOM      6  C   UNL     1       1.169   8.806  20.892  0.00  0.00    +0.000 A 
ATOM      7  C   UNL     1       0.534   9.577  21.896  0.00  0.00    +0.000 A 
ATOM      8  C   UNL     1       0.022  10.750  21.376  0.00  0.00    +0.000 A 
ATOM      9  S   UNL     1       0.334  10.902  19.694  0.00  0.00    +0.000 S 
ATOM     10  C   UNL     1       1.140   9.411  19.665  0.00  0.00    +0.000 A 
ATOM     11  C   UNL     1       1.726   8.828  18.487  0.00  0.00    +0.000 A 
ATOM     12  O   UNL     1       1.736   9.371  17.383  0.00  0.00    +0.000 OA
ATOM     13  H   UNL     1       1.801   7.110  21.916  0.00  0.00    +0.000 HD
ENDBRANCH   1   2
BRANCH   1  14
ATOM     14  C   UNL     1       4.334   7.344  17.316  0.00  0.00    +0.000 C 
BRANCH  14  15
ATOM     15  C   UNL     1       5.329   6.244  17.663  0.00  0.00    +0.000 C 
BRANCH  15  17
ATOM     16  O   UNL     1       4.933   4.482  16.071  0.00  0.00    +0.000 OA
ATOM     17  C   UNL     1       4.839   4.867  17.237  0.00  0.00    +0.000 C 
ATOM     18  N   UNL     1       4.272   4.109  18.215  0.00  0.00    +0.000 N 
ATOM     19  H   UNL     1       4.462   4.427  19.156  0.00  0.00    +0.000 HD
BRANCH  18  20
ATOM     20  C   UNL     1       3.770   2.741  18.040  0.00  0.00    +0.000 C 
ATOM     21  C   UNL     1       3.737   1.951  19.358  0.00  0.00    +0.000 C 
ATOM     22  C   UNL     1       2.671   2.471  20.320  0.00  0.00    +0.000 C 
ATOM     23  C   UNL     1       1.292   2.502  19.667  0.00  0.00    +0.000 C 
ATOM     24  C   UNL     1       1.299   3.298  18.366  0.00  0.00    +0.000 C 
ATOM     25  C   UNL     1       2.373   2.792  17.401  0.00  0.00    +0.000 C 
ENDBRANCH  18  20
ENDBRANCH  15  17
ENDBRANCH  14  15
ENDBRANCH   1  14
TORSDOF 5
ENDMDL
MODEL 4
REMARK VINA RESULT:      -7.6      5.495      7.338
REMARK  Name = 
REMARK  5 active torsions:
REMARK  status: ('A' for Active; 'I' for Inactive)
REMARK    1  A    between atoms: C_2  and  C_3
REMARK    2  A    between atoms: C_3  and  C_4
REMARK    3  A    between atoms: C_4  and  C_5
REMARK    4  A    between atoms: C_5  and  N_6
REMARK    5  A    between atoms: N_17  and  C_18
REMARK                            x       y       z     vdW  Elec       q    Type
REMARK                         _______ _______ _______ _____ _____    ______ ____
ROOT
ATOM      1  C   UNL     1       2.227   2.128  18.632  0.00  0.00    +0.000 C 
ENDROOT
BRANCH   1   2
ATOM      2  N   UNL     1       3.458   2.878  18.424  0.00  0.00    +0.000 N 
ATOM      3  C   UNL     1       4.424   2.830  19.430  0.00  0.00    +0.000 A 
ATOM      4  O   UNL     1       4.283   2.207  20.483  0.00  0.00    +0.000 OA
ATOM      5  N   UNL     1       5.594   3.515  19.214  0.00  0.00    +0.000 N 
ATOM      6  C   UNL     1       5.802   4.277  18.090  0.00  0.00    +0.000 A 
ATOM      7  C   UNL     1       6.934   5.065  17.766  0.00  0.00    +0.000 A 
ATOM      8  C   UNL     1       6.760   5.712  16.558  0.00  0.00    +0.000 A 
ATOM      9  S   UNL     1       5.247   5.341  15.835  0.00  0.00    +0.000 S 
ATOM     10  C   UNL     1       4.828   4.331  17.131  0.00  0.00    +0.000 A 
ATOM     11  C   UNL     1       3.587   3.610  17.229  0.00  0.00    +0.000 A 
ATOM     12  O   UNL     1       2.714   3.621  16.362  0.00  0.00    +0.000 OA
ATOM     13  H   UNL     1       6.298   3.462  19.939  0.00  0.00    +0.000 HD
ENDBRANCH   1   2
BRANCH   1  14
ATOM     14  C   UNL     1       0.993   3.038  18.664  0.00  0.00    +0.000 C 
BRANCH  14  15
ATOM     15  C   UNL     1       0.729   3.535  20.079  0.00  0.00    +0.000 C 
BRANCH  15  17
ATOM     16  O   UNL     1       2.284   4.641  21.548  0.00  0.00    +0.000 OA
ATOM     17  C   UNL     1       1.671   4.662  20.480  0.00  0.00    +0.000 C 
ATOM     18  N   UNL     1       1.770   5.696  19.600  0.00  0.00    +0.000 N 
ATOM     19  H   UNL     1       1.415   5.494  18.675  0.00  0.00    +0.000 HD
BRANCH  18  20
ATOM     20  C   UNL     1       2.646   6.862  19.762  0.00  0.00    +0.000 C 
ATOM     21  C   UNL     1       3.120   7.436  18.416  0.00  0.00    +0.000 C 
ATOM     22  C   UNL     1       1.985   8.099  17.637  0.00  0.00    +0.000 C 
ATOM     23  C   UNL     1       1.281   9.167  18.469  0.00  0.00    +0.000 C 
ATOM     24  C   UNL     1       0.787   8.613  19.801  0.00  0.00    +0.000 C 
ATOM     25  C   UNL     1       1.913   7.935  20.584  0.00  0.00    +0.000 C 
ENDBRANCH  18  20
ENDBRANCH  15  17
ENDBRANCH  14  15
ENDBRANCH   1  14
TORSDOF 5
ENDMDL
MODEL 5
REMARK VINA RESULT:      -7.4      0.729      1.102
REMARK  Name = 
REMARK  5 active torsions:
REMARK  status: ('A' for Active; 'I' for Inactive)
REMARK    1  A    between atoms: C_2  and  C_3
REMARK    2  A    between atoms: C_3  and  C_4
REMARK    3  A    between atoms: C_4  and  C_5
REMARK    4  A    between atoms: C_5  and  N_6
REMARK    5  A    between atoms: N_17  and  C_18
REMARK                            x       y       z     vdW  Elec       q    Type
REMARK                         _______ _______ _______ _____ _____    ______ ____
ROOT
ATOM      1  C   UNL     1       6.375   6.841  16.976  0.00  0.00    +0.000 C 
ENDROOT
BRANCH   1   2
ATOM      2  N   UNL     1       5.735   5.769  17.725  0.00  0.00    +0.000 N 
ATOM      3  C   UNL     1       6.471   4.605  17.948  0.00  0.00    +0.000 A 
ATOM      4  O   UNL     1       7.617   4.431  17.530  0.00  0.00    +0.000 OA
ATOM      5  N   UNL     1       5.872   3.610  18.680  0.00  0.00    +0.000 N 
ATOM      6  C   UNL     1       4.579   3.708  19.130  0.00  0.00    +0.000 A 
ATOM      7  C   UNL     1       3.830   2.745  19.851  0.00  0.00    +0.000 A 
ATOM      8  C   UNL     1       2.548   3.197  20.102  0.00  0.00    +0.000 A 
ATOM      9  S   UNL     1       2.284   4.776  19.479  0.00  0.00    +0.000 S 
ATOM     10  C   UNL     1       3.867   4.848  18.876  0.00  0.00    +0.000 A 
ATOM     11  C   UNL     1       4.414   5.973  18.165  0.00  0.00    +0.000 A 
ATOM     12  O   UNL     1       3.800   7.018  17.954  0.00  0.00    +0.000 OA
ATOM     13  H   UNL     1       6.418   2.775  18.854  0.00  0.00    +0.000 HD
ENDBRANCH   1   2
BRANCH   1  14
ATOM     14  C   UNL     1       7.599   7.406  17.706  0.00  0.00    +0.000 C 
BRANCH  14  15
ATOM     15  C   UNL     1       7.656   8.922  17.567  0.00  0.00    +0.000 C 
BRANCH  15  17
ATOM     16  O   UNL     1       8.960   9.044  19.587  0.00  0.00    +0.000 OA
ATOM     17  C   UNL     1       8.685   9.548  18.497  0.00  0.00    +0.000 C 
ATOM     18  N   UNL     1       9.258  10.703  18.061  0.00  0.00    +0.000 N 
ATOM     19  H   UNL     1       9.133  10.886  17.074  0.00  0.00    +0.000 HD
BRANCH  18  20
ATOM     20  C   UNL     1      10.300  11.451  18.773  0.00  0.00    +0.000 C 
ATOM     21  C   UNL     1      11.451  11.885  17.850  0.00  0.00    +0.000 C 
ATOM     22  C   UNL     1      11.022  12.964  16.856  0.00  0.00    +0.000 C 
ATOM     23  C   UNL     1      10.408  14.167  17.564  0.00  0.00    +0.000 C 
ATOM     24  C   UNL     1       9.250  13.761  18.472  0.00  0.00    +0.000 C 
ATOM     25  C   UNL     1       9.666  12.671  19.462  0.00  0.00    +0.000 C 
ENDBRANCH  18  20
ENDBRANCH  15  17
ENDBRANCH  14  15
ENDBRANCH   1  14
TORSDOF 5
ENDMDL
MODEL 6
REMARK VINA RESULT:      -7.4      1.398      1.757
REMARK  Name = 
REMARK  5 active torsions:
REMARK  status: ('A' for Active; 'I' for Inactive)
REMARK    1  A    between atoms: C_2  and  C_3
REMARK    2  A    between atoms: C_3  and  C_4
REMARK    3  A    between atoms: C_4  and  C_5
REMARK    4  A    between atoms: C_5  and  N_6
REMARK    5  A    between atoms: N_17  and  C_18
REMARK                            x       y       z     vdW  Elec       q    Type
REMARK                         _______ _______ _______ _____ _____    ______ ____
ROOT
ATOM      1  C   UNL     1       7.510   6.366  17.479  0.00  0.00    +0.000 C 
ENDROOT
BRANCH   1   2
ATOM      2  N   UNL     1       6.366   5.466  17.435  0.00  0.00    +0.000 N 
ATOM      3  C   UNL     1       5.723   5.294  16.209  0.00  0.00    +0.000 A 
ATOM      4  O   UNL     1       6.057   5.874  15.176  0.00  0.00    +0.000 OA
ATOM      5  N   UNL     1       4.665   4.420  16.170  0.00  0.00    +0.000 N 
ATOM      6  C   UNL     1       4.199   3.780  17.291  0.00  0.00    +0.000 A 
ATOM      7  C   UNL     1       3.097   2.896  17.399  0.00  0.00    +0.000 A 
ATOM      8  C   UNL     1       2.922   2.474  18.703  0.00  0.00    +0.000 A 
ATOM      9  S   UNL     1       4.099   3.139  19.762  0.00  0.00    +0.000 S 
ATOM     10  C   UNL     1       4.829   3.985  18.488  0.00  0.00    +0.000 A 
ATOM     11  C   UNL     1       5.980   4.837  18.633  0.00  0.00    +0.000 A 
ATOM     12  O   UNL     1       6.578   5.009  19.695  0.00  0.00    +0.000 OA
ATOM     13  H   UNL     1       4.213   4.286  15.273  0.00  0.00    +0.000 HD
ENDBRANCH   1   2
BRANCH   1  14
ATOM     14  C   UNL     1       7.109   7.790  17.882  0.00  0.00    +0.000 C 
BRANCH  14  15
ATOM     15  C   UNL     1       8.107   8.804  17.335  0.00  0.00    +0.000 C 
BRANCH  15  17
ATOM     16  O   UNL     1       8.956   9.211  19.551  0.00  0.00    +0.000 OA
ATOM     17  C   UNL     1       8.710   9.668  18.434  0.00  0.00    +0.000 C 
ATOM     18  N   UNL     1       8.935  10.971  18.110  0.00  0.00    +0.000 N 
ATOM     19  H   UNL     1       8.918  11.165  17.118  0.00  0.00    +0.000 HD
BRANCH  18  20
ATOM     20  C   UNL     1       9.545  11.969  18.997  0.00  0.00    +0.000 C 
ATOM     21  C   UNL     1      10.964  11.575  19.439  0.00  0.00    +0.000 C 
ATOM     22  C   UNL     1      11.968  11.634  18.290  0.00  0.00    +0.000 C 
ATOM     23  C   UNL     1      11.967  13.002  17.613  0.00  0.00    +0.000 C 
ATOM     24  C   UNL     1      10.571  13.403  17.149  0.00  0.00    +0.000 C 
ATOM     25  C   UNL     1       9.555  13.335  18.290  0.00  0.00    +0.000 C 
ENDBRANCH  18  20
ENDBRANCH  15  17
ENDBRANCH  14  15
ENDBRANCH   1  14
TORSDOF 5
ENDMDL
MODEL 7
REMARK VINA RESULT:      -7.3      4.388      7.177
REMARK  Name = 
REMARK  5 active torsions:
REMARK  status: ('A' for Active; 'I' for Inactive)
REMARK    1  A    between atoms: C_2  and  C_3
REMARK    2  A    between atoms: C_3  and  C_4
REMARK    3  A    between atoms: C_4  and  C_5
REMARK    4  A    between atoms: C_5  and  N_6
REMARK    5  A    between atoms: N_17  and  C_18
REMARK                            x       y       z     vdW  Elec       q    Type
REMARK                         _______ _______ _______ _____ _____    ______ ____
ROOT
ATOM      1  C   UNL     1       2.786   6.558  19.695  0.00  0.00    +0.000 C 
ENDROOT
BRANCH   1   2
ATOM      2  N   UNL     1       2.117   7.816  19.395  0.00  0.00    +0.000 N 
ATOM      3  C   UNL     1       2.299   8.360  18.123  0.00  0.00    +0.000 A 
ATOM      4  O   UNL     1       3.006   7.847  17.255  0.00  0.00    +0.000 OA
ATOM      5  N   UNL     1       1.641   9.531  17.839  0.00  0.00    +0.000 N 
ATOM      6  C   UNL     1       0.880  10.192  18.771  0.00  0.00    +0.000 A 
ATOM      7  C   UNL     1       0.191  11.420  18.625  0.00  0.00    +0.000 A 
ATOM      8  C   UNL     1      -0.443  11.779  19.800  0.00  0.00    +0.000 A 
ATOM      9  S   UNL     1      -0.206  10.619  21.044  0.00  0.00    +0.000 S 
ATOM     10  C   UNL     1       0.739   9.652  20.020  0.00  0.00    +0.000 A 
ATOM     11  C   UNL     1       1.340   8.403  20.410  0.00  0.00    +0.000 A 
ATOM     12  O   UNL     1       1.198   7.888  21.518  0.00  0.00    +0.000 OA
ATOM     13  H   UNL     1       1.762   9.912  16.908  0.00  0.00    +0.000 HD
ENDBRANCH   1   2
BRANCH   1  14
ATOM     14  C   UNL     1       2.089   5.361  19.037  0.00  0.00    +0.000 C 
BRANCH  14  15
ATOM     15  C   UNL     1       2.986   4.130  19.074  0.00  0.00    +0.000 C 
BRANCH  15  17
ATOM     16  O   UNL     1       3.735   3.737  16.820  0.00  0.00    +0.000 OA
ATOM     17  C   UNL     1       4.015   4.133  17.952  0.00  0.00    +0.000 C 
ATOM     18  N   UNL     1       5.259   4.574  18.287  0.00  0.00    +0.000 N 
ATOM     19  H   UNL     1       5.302   5.084  19.159  0.00  0.00    +0.000 HD
BRANCH  18  20
ATOM     20  C   UNL     1       6.388   4.701  17.358  0.00  0.00    +0.000 C 
ATOM     21  C   UNL     1       6.278   5.945  16.461  0.00  0.00    +0.000 C 
ATOM     22  C   UNL     1       6.468   7.243  17.243  0.00  0.00    +0.000 C 
ATOM     23  C   UNL     1       7.782   7.244  18.019  0.00  0.00    +0.000 C 
ATOM     24  C   UNL     1       7.903   6.027  18.930  0.00  0.00    +0.000 C 
ATOM     25  C   UNL     1       7.701   4.722  18.158  0.00  0.00    +0.000 C 
ENDBRANCH  18  20
ENDBRANCH  15  17
ENDBRANCH  14  15
ENDBRANCH   1  14
TORSDOF 5
ENDMDL
MODEL 8
REMARK VINA RESULT:      -7.3      4.489      6.734
REMARK  Name = 
REMARK  5 active torsions:
REMARK  status: ('A' for Active; 'I' for Inactive)
REMARK    1  A    between atoms: C_2  and  C_3
REMARK    2  A    between atoms: C_3  and  C_4
REMARK    3  A    between atoms: C_4  and  C_5
REMARK    4  A    between atoms: C_5  and  N_6
REMARK    5  A    between atoms: N_17  and  C_18
REMARK                            x       y       z     vdW  Elec       q    Type
REMARK                         _______ _______ _______ _____ _____    ______ ____
ROOT
ATOM      1  C   UNL     1       3.319   5.950  18.403  0.00  0.00    +0.000 C 
ENDROOT
BRANCH   1   2
ATOM      2  N   UNL     1       2.513   6.912  19.141  0.00  0.00    +0.000 N 
ATOM      3  C   UNL     1       2.060   6.541  20.408  0.00  0.00    +0.000 A 
ATOM      4  O   UNL     1       2.289   5.445  20.922  0.00  0.00    +0.000 OA
ATOM      5  N   UNL     1       1.326   7.465  21.110  0.00  0.00    +0.000 N 
ATOM      6  C   UNL     1       0.983   8.685  20.583  0.00  0.00    +0.000 A 
ATOM      7  C   UNL     1       0.198   9.704  21.176  0.00  0.00    +0.000 A 
ATOM      8  C   UNL     1       0.049  10.779  20.321  0.00  0.00    +0.000 A 
ATOM      9  S   UNL     1       0.872  10.542  18.832  0.00  0.00    +0.000 S 
ATOM     10  C   UNL     1       1.416   9.015  19.327  0.00  0.00    +0.000 A 
ATOM     11  C   UNL     1       2.235   8.145  18.525  0.00  0.00    +0.000 A 
ATOM     12  O   UNL     1       2.659   8.438  17.407  0.00  0.00    +0.000 OA
ATOM     13  H   UNL     1       1.015   7.197  22.036  0.00  0.00    +0.000 HD
ENDBRANCH   1   2
BRANCH   1  14
ATOM     14  C   UNL     1       2.464   4.855  17.754  0.00  0.00    +0.000 C 
BRANCH  14  15
ATOM     15  C   UNL     1       3.317   3.641  17.409  0.00  0.00    +0.000 C 
BRANCH  15  17
ATOM     16  O   UNL     1       4.580   4.185  15.433  0.00  0.00    +0.000 OA
ATOM     17  C   UNL     1       4.583   4.023  16.654  0.00  0.00    +0.000 C 
ATOM     18  N   UNL     1       5.710   4.147  17.406  0.00  0.00    +0.000 N 
ATOM     19  H   UNL     1       5.543   4.223  18.401  0.00  0.00    +0.000 HD
BRANCH  18  20
ATOM     20  C   UNL     1       7.027   4.545  16.896  0.00  0.00    +0.000 C 
ATOM     21  C   UNL     1       6.999   5.916  16.199  0.00  0.00    +0.000 C 
ATOM     22  C   UNL     1       6.770   7.062  17.182  0.00  0.00    +0.000 C 
ATOM     23  C   UNL     1       7.794   7.046  18.314  0.00  0.00    +0.000 C 
ATOM     24  C   UNL     1       7.823   5.700  19.031  0.00  0.00    +0.000 C 
ATOM     25  C   UNL     1       8.040   4.544  18.053  0.00  0.00    +0.000 C 
ENDBRANCH  18  20
ENDBRANCH  15  17
ENDBRANCH  14  15
ENDBRANCH   1  14
TORSDOF 5
ENDMDL
MODEL 9
REMARK VINA RESULT:      -7.3      5.876      7.753
REMARK  Name = 
REMARK  5 active torsions:
REMARK  status: ('A' for Active; 'I' for Inactive)
REMARK    1  A    between atoms: C_2  and  C_3
REMARK    2  A    between atoms: C_3  and  C_4
REMARK    3  A    between atoms: C_4  and  C_5
REMARK    4  A    between atoms: C_5  and  N_6
REMARK    5  A    between atoms: N_17  and  C_18
REMARK                            x       y       z     vdW  Elec       q    Type
REMARK                         _______ _______ _______ _____ _____    ______ ____
ROOT
ATOM      1  C   UNL     1       4.493   4.694  16.416  0.00  0.00    +0.000 C 
ENDROOT
BRANCH   1   2
ATOM      2  N   UNL     1       3.906   4.522  17.738  0.00  0.00    +0.000 N 
ATOM      3  C   UNL     1       4.489   5.212  18.801  0.00  0.00    +0.000 A 
ATOM      4  O   UNL     1       5.477   5.938  18.684  0.00  0.00    +0.000 OA
ATOM      5  N   UNL     1       3.912   5.068  20.038  0.00  0.00    +0.000 N 
ATOM      6  C   UNL     1       2.844   4.233  20.258  0.00  0.00    +0.000 A 
ATOM      7  C   UNL     1       2.186   3.958  21.482  0.00  0.00    +0.000 A 
ATOM      8  C   UNL     1       1.169   3.040  21.306  0.00  0.00    +0.000 A 
ATOM      9  S   UNL     1       1.020   2.545  19.669  0.00  0.00    +0.000 S 
ATOM     10  C   UNL     1       2.307   3.546  19.204  0.00  0.00    +0.000 A 
ATOM     11  C   UNL     1       2.798   3.663  17.856  0.00  0.00    +0.000 A 
ATOM     12  O   UNL     1       2.308   3.077  16.892  0.00  0.00    +0.000 OA
ATOM     13  H   UNL     1       4.328   5.585  20.803  0.00  0.00    +0.000 HD
ENDBRANCH   1   2
BRANCH   1  14
ATOM     14  C   UNL     1       5.549   3.627  16.109  0.00  0.00    +0.000 C 
BRANCH  14  15
ATOM     15  C   UNL     1       6.905   4.272  15.848  0.00  0.00    +0.000 C 
BRANCH  15  17
ATOM     16  O   UNL     1       7.696   5.602  14.003  0.00  0.00    +0.000 OA
ATOM     17  C   UNL     1       7.125   4.574  14.372  0.00  0.00    +0.000 C 
ATOM     18  N   UNL     1       6.632   3.656  13.497  0.00  0.00    +0.000 N 
ATOM     19  H   UNL     1       6.402   2.763  13.911  0.00  0.00    +0.000 HD
BRANCH  18  20
ATOM     20  C   UNL     1       6.766   3.724  12.037  0.00  0.00    +0.000 C 
ATOM     21  C   UNL     1       7.163   2.374  11.418  0.00  0.00    +0.000 C 
ATOM     22  C   UNL     1       6.039   1.342  11.504  0.00  0.00    +0.000 C 
ATOM     23  C   UNL     1       4.747   1.867  10.886  0.00  0.00    +0.000 C 
ATOM     24  C   UNL     1       4.325   3.198  11.500  0.00  0.00    +0.000 C 
ATOM     25  C   UNL     1       5.448   4.234  11.431  0.00  0.00    +0.000 C 
ENDBRANCH  18  20
ENDBRANCH  15  17
ENDBRANCH  14  15
ENDBRANCH   1  14
TORSDOF 5
ENDMDL
