MODEL 1
REMARK VINA RESULT:     -10.0      0.000      0.000
REMARK  Name = 
REMARK  7 active torsions:
REMARK  status: ('A' for Active; 'I' for Inactive)
REMARK    1  A    between atoms: C_1  and  C_2
REMARK    2  A    between atoms: C_2  and  N_3
REMARK    3  A    between atoms: C_2  and  C_17
REMARK    4  A    between atoms: C_9  and  C_10
REMARK    5  A    between atoms: C_21  and  N_22
REMARK    6  A    between atoms: C_23  and  C_25
REMARK    7  A    between atoms: C_28  and  N_29
REMARK                            x       y       z     vdW  Elec       q    Type
REMARK                         _______ _______ _______ _____ _____    ______ ____
ROOT
ATOM      1  C   UNL     1      -2.633  11.429  18.698  0.00  0.00    +0.000 A 
ATOM      2  C   UNL     1      -2.610  12.364  19.746  0.00  0.00    +0.000 A 
ATOM      3  C   UNL     1      -1.616  12.324  20.714  0.00  0.00    +0.000 A 
ATOM      4  C   UNL     1      -0.637  11.334  20.664  0.00  0.00    +0.000 A 
ATOM      5  C   UNL     1      -0.617  10.380  19.640  0.00  0.00    +0.000 A 
ATOM      6  C   UNL     1      -1.596  10.465  18.632  0.00  0.00    +0.000 A 
ENDROOT
BRANCH   5   7
ATOM      7  N   UNL     1       0.367   9.347  19.584  0.00  0.00    +0.000 N 
ATOM      8  C   UNL     1       1.387   9.292  18.639  0.00  0.00    +0.000 C 
ATOM      9  O   UNL     1       1.618  10.165  17.802  0.00  0.00    +0.000 OA
ATOM     10  H   UNL     1       0.348   8.667  20.324  0.00  0.00    +0.000 HD
BRANCH   8  11
ATOM     11  C   UNL     1       2.299   8.109  18.604  0.00  0.00    +0.000 A 
ATOM     12  C   UNL     1       3.222   8.052  17.547  0.00  0.00    +0.000 A 
ATOM     13  C   UNL     1       4.146   7.006  17.438  0.00  0.00    +0.000 A 
ATOM     14  C   UNL     1       4.184   5.973  18.374  0.00  0.00    +0.000 A 
ATOM     15  C   UNL     1       3.262   6.053  19.437  0.00  0.00    +0.000 A 
ATOM     16  C   UNL     1       2.331   7.102  19.563  0.00  0.00    +0.000 A 
BRANCH  14  17
ATOM     17  N   UNL     1       5.104   4.937  18.314  0.00  0.00    +0.000 N 
ATOM     18  C   UNL     1       6.339   4.918  19.123  0.00  0.00    +0.000 C 
ATOM     19  C   UNL     1       7.578   5.239  18.272  0.00  0.00    +0.000 C 
ATOM     20  O   UNL     1       7.666   4.382  17.122  0.00  0.00    +0.000 OA
ATOM     21  C   UNL     1       6.495   4.534  16.304  0.00  0.00    +0.000 C 
ATOM     22  C   UNL     1       5.214   4.153  17.067  0.00  0.00    +0.000 C 
ENDBRANCH  14  17
ENDBRANCH   8  11
ENDBRANCH   5   7
BRANCH   1  24
ATOM     23  C   UNL     1      -4.181  10.124  17.171  0.00  0.00    +0.000 C 
ATOM     24  C   UNL     1      -3.773  11.506  17.686  0.00  0.00    +0.000 C 
BRANCH  24  25
ATOM     25  N   UNL     1      -4.853  12.419  18.132  0.00  0.00    +0.000 N 
ATOM     26  C   UNL     1      -5.895  12.081  18.971  0.00  0.00    +0.000 C 
ATOM     27  N   UNL     1      -6.290  10.841  19.010  0.00  0.00    +0.000 NA
ATOM     28  C   UNL     1      -7.206  10.531  19.945  0.00  0.00    +0.000 C 
ATOM     29  N   UNL     1      -7.043  10.981  21.149  0.00  0.00    +0.000 NA
ATOM     30  C   UNL     1      -7.351  12.416  21.028  0.00  0.00    +0.000 C 
ATOM     31  C   UNL     1      -7.253  13.216  22.296  0.00  0.00    +0.000 C 
ATOM     32  C   UNL     1      -7.322  14.562  22.192  0.00  0.00    +0.000 C 
ATOM     33  C   UNL     1      -7.367  15.248  20.844  0.00  0.00    +0.000 C 
ATOM     34  C   UNL     1      -6.722  14.410  19.742  0.00  0.00    +0.000 C 
ATOM     35  C   UNL     1      -6.606  13.072  19.879  0.00  0.00    +0.000 C 
ATOM     36  H   UNL     1      -4.485  13.350  18.292  0.00  0.00    +0.000 HD
BRANCH  31  37
ATOM     37  C   UNL     1      -7.216  12.623  23.660  0.00  0.00    +0.000 C 
ATOM     38  N   UNL     1      -7.219  13.491  24.700  0.00  0.00    +0.000 N 
ATOM     39  O   UNL     1      -7.183  11.413  23.855  0.00  0.00    +0.000 OA
ATOM     40  H   UNL     1      -7.208  14.493  24.532  0.00  0.00    +0.000 HD
ATOM     41  H   UNL     1      -7.151  13.130  25.640  0.00  0.00    +0.000 HD
ENDBRANCH  31  37
ENDBRANCH  24  25
ENDBRANCH   1  24
TORSDOF 6
ENDMDL
MODEL 2
REMARK VINA RESULT:      -9.8      5.012      9.107
REMARK  Name = 
REMARK  7 active torsions:
REMARK  status: ('A' for Active; 'I' for Inactive)
REMARK    1  A    between atoms: C_1  and  C_2
REMARK    2  A    between atoms: C_2  and  N_3
REMARK    3  A    between atoms: C_2  and  C_17
REMARK    4  A    between atoms: C_9  and  C_10
REMARK    5  A    between atoms: C_21  and  N_22
REMARK    6  A    between atoms: C_23  and  C_25
REMARK    7  A    between atoms: C_28  and  N_29
REMARK                            x       y       z     vdW  Elec       q    Type
REMARK                         _______ _______ _______ _____ _____    ______ ____
ROOT
ATOM      1  C   UNL     1       4.309   5.687  17.364  0.00  0.00    +0.000 A 
ATOM      2  C   UNL     1       4.862   4.636  16.614  0.00  0.00    +0.000 A 
ATOM      3  C   UNL     1       6.148   4.731  16.098  0.00  0.00    +0.000 A 
ATOM      4  C   UNL     1       6.896   5.888  16.306  0.00  0.00    +0.000 A 
ATOM      5  C   UNL     1       6.388   6.961  17.047  0.00  0.00    +0.000 A 
ATOM      6  C   UNL     1       5.106   6.831  17.613  0.00  0.00    +0.000 A 
ENDROOT
BRANCH   5   7
ATOM      7  N   UNL     1       7.134   8.161  17.253  0.00  0.00    +0.000 N 
ATOM      8  C   UNL     1       8.113   8.313  18.230  0.00  0.00    +0.000 C 
ATOM      9  O   UNL     1       8.514   7.414  18.969  0.00  0.00    +0.000 OA
ATOM     10  H   UNL     1       6.978   8.906  16.596  0.00  0.00    +0.000 HD
BRANCH   8  11
ATOM     11  C   UNL     1       8.756   9.647  18.430  0.00  0.00    +0.000 A 
ATOM     12  C   UNL     1       8.358  10.677  17.562  0.00  0.00    +0.000 A 
ATOM     13  C   UNL     1       8.871  11.975  17.684  0.00  0.00    +0.000 A 
ATOM     14  C   UNL     1       9.804  12.295  18.671  0.00  0.00    +0.000 A 
ATOM     15  C   UNL     1      10.181  11.253  19.542  0.00  0.00    +0.000 A 
ATOM     16  C   UNL     1       9.668   9.946  19.436  0.00  0.00    +0.000 A 
BRANCH  14  17
ATOM     17  N   UNL     1      10.312  13.574  18.839  0.00  0.00    +0.000 N 
ATOM     18  C   UNL     1      10.456  14.207  20.166  0.00  0.00    +0.000 C 
ATOM     19  C   UNL     1       9.376  15.275  20.404  0.00  0.00    +0.000 C 
ATOM     20  O   UNL     1       9.342  16.240  19.340  0.00  0.00    +0.000 OA
ATOM     21  C   UNL     1       9.072  15.585  18.089  0.00  0.00    +0.000 C 
ATOM     22  C   UNL     1      10.159  14.552  17.743  0.00  0.00    +0.000 C 
ENDBRANCH  14  17
ENDBRANCH   8  11
ENDBRANCH   5   7
BRANCH   1  24
ATOM     23  C   UNL     1       2.462   4.067  17.993  0.00  0.00    +0.000 C 
ATOM     24  C   UNL     1       2.877   5.534  17.873  0.00  0.00    +0.000 C 
BRANCH  24  25
ATOM     25  N   UNL     1       2.598   6.422  19.027  0.00  0.00    +0.000 N 
ATOM     26  C   UNL     1       2.289   7.765  18.951  0.00  0.00    +0.000 C 
ATOM     27  N   UNL     1       2.722   8.450  17.932  0.00  0.00    +0.000 NA
ATOM     28  C   UNL     1       2.276   9.715  17.824  0.00  0.00    +0.000 C 
ATOM     29  N   UNL     1       1.015   9.947  18.010  0.00  0.00    +0.000 NA
ATOM     30  C   UNL     1       0.843   9.793  19.463  0.00  0.00    +0.000 C 
ATOM     31  C   UNL     1      -0.547  10.017  19.986  0.00  0.00    +0.000 C 
ATOM     32  C   UNL     1      -0.792   9.684  21.274  0.00  0.00    +0.000 C 
ATOM     33  C   UNL     1       0.254   8.992  22.122  0.00  0.00    +0.000 C 
ATOM     34  C   UNL     1       1.251   8.196  21.283  0.00  0.00    +0.000 C 
ATOM     35  C   UNL     1       1.448   8.499  19.983  0.00  0.00    +0.000 C 
ATOM     36  H   UNL     1       2.078   5.923  19.740  0.00  0.00    +0.000 HD
BRANCH  31  37
ATOM     37  C   UNL     1      -1.629  10.698  19.226  0.00  0.00    +0.000 C 
ATOM     38  N   UNL     1      -2.027  10.107  18.074  0.00  0.00    +0.000 N 
ATOM     39  O   UNL     1      -2.146  11.744  19.603  0.00  0.00    +0.000 OA
ATOM     40  H   UNL     1      -1.568   9.262  17.746  0.00  0.00    +0.000 HD
ATOM     41  H   UNL     1      -2.728  10.561  17.507  0.00  0.00    +0.000 HD
ENDBRANCH  31  37
ENDBRANCH  24  25
ENDBRANCH   1  24
TORSDOF 6
ENDMDL
MODEL 3
REMARK VINA RESULT:      -9.7      6.194      9.902
REMARK  Name = 
REMARK  7 active torsions:
REMARK  status: ('A' for Active; 'I' for Inactive)
REMARK    1  A    between atoms: C_1  and  C_2
REMARK    2  A    between atoms: C_2  and  N_3
REMARK    3  A    between atoms: C_2  and  C_17
REMARK    4  A    between atoms: C_9  and  C_10
REMARK    5  A    between atoms: C_21  and  N_22
REMARK    6  A    between atoms: C_23  and  C_25
REMARK    7  A    between atoms: C_28  and  N_29
REMARK                            x       y       z     vdW  Elec       q    Type
REMARK                         _______ _______ _______ _____ _____    ______ ____
ROOT
ATOM      1  C   UNL     1       0.483  11.874  18.760  0.00  0.00    +0.000 A 
ATOM      2  C   UNL     1      -0.603  12.761  18.843  0.00  0.00    +0.000 A 
ATOM      3  C   UNL     1      -0.397  14.128  18.973  0.00  0.00    +0.000 A 
ATOM      4  C   UNL     1       0.899  14.632  19.042  0.00  0.00    +0.000 A 
ATOM      5  C   UNL     1       2.014  13.789  18.963  0.00  0.00    +0.000 A 
ATOM      6  C   UNL     1       1.794  12.411  18.776  0.00  0.00    +0.000 A 
ENDROOT
BRANCH   5   7
ATOM      7  N   UNL     1       3.350  14.286  19.052  0.00  0.00    +0.000 N 
ATOM      8  C   UNL     1       3.935  15.122  18.107  0.00  0.00    +0.000 C 
ATOM      9  O   UNL     1       3.350  15.603  17.136  0.00  0.00    +0.000 OA
ATOM     10  H   UNL     1       3.857  14.065  19.892  0.00  0.00    +0.000 HD
BRANCH   8  11
ATOM     11  C   UNL     1       5.375  15.496  18.242  0.00  0.00    +0.000 A 
ATOM     12  C   UNL     1       6.317  14.554  17.796  0.00  0.00    +0.000 A 
ATOM     13  C   UNL     1       7.693  14.817  17.843  0.00  0.00    +0.000 A 
ATOM     14  C   UNL     1       8.183  16.024  18.342  0.00  0.00    +0.000 A 
ATOM     15  C   UNL     1       7.223  16.963  18.771  0.00  0.00    +0.000 A 
ATOM     16  C   UNL     1       5.837  16.716  18.723  0.00  0.00    +0.000 A 
BRANCH  14  17
ATOM     17  N   UNL     1       9.535  16.330  18.377  0.00  0.00    +0.000 N 
ATOM     18  C   UNL     1      10.363  16.427  17.159  0.00  0.00    +0.000 C 
ATOM     19  C   UNL     1      11.279  15.203  16.998  0.00  0.00    +0.000 C 
ATOM     20  O   UNL     1      12.067  14.974  18.177  0.00  0.00    +0.000 OA
ATOM     21  C   UNL     1      11.208  14.759  19.310  0.00  0.00    +0.000 C 
ATOM     22  C   UNL     1      10.313  15.980  19.583  0.00  0.00    +0.000 C 
ENDBRANCH  14  17
ENDBRANCH   8  11
ENDBRANCH   5   7
BRANCH   1  24
ATOM     23  C   UNL     1      -1.007  10.091  17.746  0.00  0.00    +0.000 C 
ATOM     24  C   UNL     1       0.189  10.379  18.655  0.00  0.00    +0.000 C 
BRANCH  24  25
ATOM     25  N   UNL     1       1.421   9.583  18.442  0.00  0.00    +0.000 N 
ATOM     26  C   UNL     1       1.806   8.486  19.184  0.00  0.00    +0.000 C 
ATOM     27  N   UNL     1       1.399   8.390  20.417  0.00  0.00    +0.000 NA
ATOM     28  C   UNL     1       1.676   7.238  21.055  0.00  0.00    +0.000 C 
ATOM     29  N   UNL     1       1.472   6.119  20.433  0.00  0.00    +0.000 NA
ATOM     30  C   UNL     1       2.558   6.070  19.440  0.00  0.00    +0.000 C 
ATOM     31  C   UNL     1       2.585   4.853  18.559  0.00  0.00    +0.000 C 
ATOM     32  C   UNL     1       3.431   4.865  17.504  0.00  0.00    +0.000 C 
ATOM     33  C   UNL     1       4.227   6.101  17.145  0.00  0.00    +0.000 C 
ATOM     34  C   UNL     1       3.556   7.387  17.624  0.00  0.00    +0.000 C 
ATOM     35  C   UNL     1       2.669   7.357  18.641  0.00  0.00    +0.000 C 
ATOM     36  H   UNL     1       1.619   9.496  17.451  0.00  0.00    +0.000 HD
BRANCH  31  37
ATOM     37  C   UNL     1       1.844   3.596  18.843  0.00  0.00    +0.000 C 
ATOM     38  N   UNL     1       2.052   3.029  20.056  0.00  0.00    +0.000 N 
ATOM     39  O   UNL     1       1.081   3.079  18.034  0.00  0.00    +0.000 OA
ATOM     40  H   UNL     1       2.716   3.440  20.707  0.00  0.00    +0.000 HD
ATOM     41  H   UNL     1       1.602   2.151  20.271  0.00  0.00    +0.000 HD
ENDBRANCH  31  37
ENDBRANCH  24  25
ENDBRANCH   1  24
TORSDOF 6
ENDMDL
MODEL 4
REMARK VINA RESULT:      -9.7      2.631     12.742
REMARK  Name = 
REMARK  7 active torsions:
REMARK  status: ('A' for Active; 'I' for Inactive)
REMARK    1  A    between atoms: C_1  and  C_2
REMARK    2  A    between atoms: C_2  and  N_3
REMARK    3  A    between atoms: C_2  and  C_17
REMARK    4  A    between atoms: C_9  and  C_10
REMARK    5  A    between atoms: C_21  and  N_22
REMARK    6  A    between atoms: C_23  and  C_25
REMARK    7  A    between atoms: C_28  and  N_29
REMARK                            x       y       z     vdW  Elec       q    Type
REMARK                         _______ _______ _______ _____ _____    ______ ____
ROOT
ATOM      1  C   UNL     1       1.747   7.263  19.883  0.00  0.00    +0.000 A 
ATOM      2  C   UNL     1       2.412   7.613  18.696  0.00  0.00    +0.000 A 
ATOM      3  C   UNL     1       2.119   8.801  18.040  0.00  0.00    +0.000 A 
ATOM      4  C   UNL     1       1.141   9.653  18.549  0.00  0.00    +0.000 A 
ATOM      5  C   UNL     1       0.452   9.349  19.729  0.00  0.00    +0.000 A 
ATOM      6  C   UNL     1       0.797   8.169  20.416  0.00  0.00    +0.000 A 
ENDROOT
BRANCH   5   7
ATOM      7  N   UNL     1      -0.566  10.201  20.255  0.00  0.00    +0.000 N 
ATOM      8  C   UNL     1      -0.358  11.133  21.266  0.00  0.00    +0.000 C 
ATOM      9  O   UNL     1       0.737  11.397  21.764  0.00  0.00    +0.000 OA
ATOM     10  H   UNL     1      -1.464  10.159  19.803  0.00  0.00    +0.000 HD
BRANCH   8  11
ATOM     11  C   UNL     1      -1.518  11.897  21.817  0.00  0.00    +0.000 A 
ATOM     12  C   UNL     1      -2.256  12.669  20.905  0.00  0.00    +0.000 A 
ATOM     13  C   UNL     1      -3.384  13.396  21.307  0.00  0.00    +0.000 A 
ATOM     14  C   UNL     1      -3.816  13.388  22.633  0.00  0.00    +0.000 A 
ATOM     15  C   UNL     1      -3.073  12.596  23.532  0.00  0.00    +0.000 A 
ATOM     16  C   UNL     1      -1.941  11.854  23.140  0.00  0.00    +0.000 A 
BRANCH  14  17
ATOM     17  N   UNL     1      -4.943  14.072  23.062  0.00  0.00    +0.000 N 
ATOM     18  C   UNL     1      -6.275  13.440  23.149  0.00  0.00    +0.000 C 
ATOM     19  C   UNL     1      -7.195  13.895  22.005  0.00  0.00    +0.000 C 
ATOM     20  O   UNL     1      -7.274  15.328  21.929  0.00  0.00    +0.000 OA
ATOM     21  C   UNL     1      -5.966  15.883  21.715  0.00  0.00    +0.000 C 
ATOM     22  C   UNL     1      -5.006  15.535  22.866  0.00  0.00    +0.000 C 
ENDBRANCH  14  17
ENDBRANCH   8  11
ENDBRANCH   5   7
BRANCH   1  24
ATOM     23  C   UNL     1       1.042   4.853  20.236  0.00  0.00    +0.000 C 
ATOM     24  C   UNL     1       2.090   5.926  20.536  0.00  0.00    +0.000 C 
BRANCH  24  25
ATOM     25  N   UNL     1       3.516   5.564  20.348  0.00  0.00    +0.000 N 
ATOM     26  C   UNL     1       4.004   4.682  19.407  0.00  0.00    +0.000 C 
ATOM     27  N   UNL     1       3.224   3.733  18.975  0.00  0.00    +0.000 NA
ATOM     28  C   UNL     1       3.689   2.989  17.955  0.00  0.00    +0.000 C 
ATOM     29  N   UNL     1       4.251   3.590  16.954  0.00  0.00    +0.000 NA
ATOM     30  C   UNL     1       5.548   4.029  17.495  0.00  0.00    +0.000 C 
ATOM     31  C   UNL     1       6.443   4.763  16.537  0.00  0.00    +0.000 C 
ATOM     32  C   UNL     1       7.544   5.362  17.045  0.00  0.00    +0.000 C 
ATOM     33  C   UNL     1       7.802   5.405  18.535  0.00  0.00    +0.000 C 
ATOM     34  C   UNL     1       6.515   5.310  19.353  0.00  0.00    +0.000 C 
ATOM     35  C   UNL     1       5.404   4.761  18.818  0.00  0.00    +0.000 C 
ATOM     36  H   UNL     1       4.108   6.374  20.495  0.00  0.00    +0.000 HD
BRANCH  31  37
ATOM     37  C   UNL     1       6.269   4.763  15.060  0.00  0.00    +0.000 C 
ATOM     38  N   UNL     1       6.233   3.553  14.452  0.00  0.00    +0.000 N 
ATOM     39  O   UNL     1       6.164   5.795  14.406  0.00  0.00    +0.000 OA
ATOM     40  H   UNL     1       6.360   2.703  14.994  0.00  0.00    +0.000 HD
ATOM     41  H   UNL     1       6.160   3.512  13.446  0.00  0.00    +0.000 HD
ENDBRANCH  31  37
ENDBRANCH  24  25
ENDBRANCH   1  24
TORSDOF 6
ENDMDL
MODEL 5
REMARK VINA RESULT:      -9.6      3.146     12.755
REMARK  Name = 
REMARK  7 active torsions:
REMARK  status: ('A' for Active; 'I' for Inactive)
REMARK    1  A    between atoms: C_1  and  C_2
REMARK    2  A    between atoms: C_2  and  N_3
REMARK    3  A    between atoms: C_2  and  C_17
REMARK    4  A    between atoms: C_9  and  C_10
REMARK    5  A    between atoms: C_21  and  N_22
REMARK    6  A    between atoms: C_23  and  C_25
REMARK    7  A    between atoms: C_28  and  N_29
REMARK                            x       y       z     vdW  Elec       q    Type
REMARK                         _______ _______ _______ _____ _____    ______ ____
ROOT
ATOM      1  C   UNL     1       1.720   7.359  19.988  0.00  0.00    +0.000 A 
ATOM      2  C   UNL     1       2.286   7.689  18.745  0.00  0.00    +0.000 A 
ATOM      3  C   UNL     1       2.004   8.904  18.135  0.00  0.00    +0.000 A 
ATOM      4  C   UNL     1       1.134   9.803  18.747  0.00  0.00    +0.000 A 
ATOM      5  C   UNL     1       0.546   9.520  19.986  0.00  0.00    +0.000 A 
ATOM      6  C   UNL     1       0.883   8.310  20.621  0.00  0.00    +0.000 A 
ENDROOT
BRANCH   5   7
ATOM      7  N   UNL     1      -0.363  10.422  20.618  0.00  0.00    +0.000 N 
ATOM      8  C   UNL     1       0.028  11.557  21.322  0.00  0.00    +0.000 C 
ATOM      9  O   UNL     1       1.186  11.966  21.408  0.00  0.00    +0.000 OA
ATOM     10  H   UNL     1      -1.343  10.248  20.473  0.00  0.00    +0.000 HD
BRANCH   8  11
ATOM     11  C   UNL     1      -0.999  12.372  22.037  0.00  0.00    +0.000 A 
ATOM     12  C   UNL     1      -2.345  12.084  21.754  0.00  0.00    +0.000 A 
ATOM     13  C   UNL     1      -3.389  12.763  22.395  0.00  0.00    +0.000 A 
ATOM     14  C   UNL     1      -3.134  13.760  23.337  0.00  0.00    +0.000 A 
ATOM     15  C   UNL     1      -1.779  14.026  23.620  0.00  0.00    +0.000 A 
ATOM     16  C   UNL     1      -0.719  13.346  22.989  0.00  0.00    +0.000 A 
BRANCH  14  17
ATOM     17  N   UNL     1      -4.141  14.433  24.011  0.00  0.00    +0.000 N 
ATOM     18  C   UNL     1      -5.572  14.261  23.687  0.00  0.00    +0.000 C 
ATOM     19  C   UNL     1      -6.128  15.471  22.920  0.00  0.00    +0.000 C 
ATOM     20  O   UNL     1      -5.870  16.702  23.615  0.00  0.00    +0.000 OA
ATOM     21  C   UNL     1      -4.455  16.881  23.791  0.00  0.00    +0.000 C 
ATOM     22  C   UNL     1      -3.837  15.743  24.622  0.00  0.00    +0.000 C 
ENDBRANCH  14  17
ENDBRANCH   8  11
ENDBRANCH   5   7
BRANCH   1  24
ATOM     23  C   UNL     1       0.975   4.950  20.253  0.00  0.00    +0.000 C 
ATOM     24  C   UNL     1       2.043   5.992  20.588  0.00  0.00    +0.000 C 
BRANCH  24  25
ATOM     25  N   UNL     1       3.461   5.614  20.380  0.00  0.00    +0.000 N 
ATOM     26  C   UNL     1       3.925   4.728  19.430  0.00  0.00    +0.000 C 
ATOM     27  N   UNL     1       3.127   3.789  19.007  0.00  0.00    +0.000 NA
ATOM     28  C   UNL     1       3.569   3.042  17.979  0.00  0.00    +0.000 C 
ATOM     29  N   UNL     1       4.125   3.638  16.971  0.00  0.00    +0.000 NA
ATOM     30  C   UNL     1       5.434   4.060  17.495  0.00  0.00    +0.000 C 
ATOM     31  C   UNL     1       6.325   4.785  16.527  0.00  0.00    +0.000 C 
ATOM     32  C   UNL     1       7.440   5.370  17.021  0.00  0.00    +0.000 C 
ATOM     33  C   UNL     1       7.719   5.406  18.507  0.00  0.00    +0.000 C 
ATOM     34  C   UNL     1       6.443   5.325  19.342  0.00  0.00    +0.000 C 
ATOM     35  C   UNL     1       5.317   4.791  18.822  0.00  0.00    +0.000 C 
ATOM     36  H   UNL     1       4.065   6.416  20.520  0.00  0.00    +0.000 HD
BRANCH  31  37
ATOM     37  C   UNL     1       6.130   4.791  15.052  0.00  0.00    +0.000 C 
ATOM     38  N   UNL     1       6.240   3.598  14.420  0.00  0.00    +0.000 N 
ATOM     39  O   UNL     1       5.885   5.813  14.421  0.00  0.00    +0.000 OA
ATOM     40  H   UNL     1       6.482   2.761  14.943  0.00  0.00    +0.000 HD
ATOM     41  H   UNL     1       6.158   3.567  13.414  0.00  0.00    +0.000 HD
ENDBRANCH  31  37
ENDBRANCH  24  25
ENDBRANCH   1  24
TORSDOF 6
ENDMDL
MODEL 6
REMARK VINA RESULT:      -9.5      6.308      9.856
REMARK  Name = 
REMARK  7 active torsions:
REMARK  status: ('A' for Active; 'I' for Inactive)
REMARK    1  A    between atoms: C_1  and  C_2
REMARK    2  A    between atoms: C_2  and  N_3
REMARK    3  A    between atoms: C_2  and  C_17
REMARK    4  A    between atoms: C_9  and  C_10
REMARK    5  A    between atoms: C_21  and  N_22
REMARK    6  A    between atoms: C_23  and  C_25
REMARK    7  A    between atoms: C_28  and  N_29
REMARK                            x       y       z     vdW  Elec       q    Type
REMARK                         _______ _______ _______ _____ _____    ______ ____
ROOT
ATOM      1  C   UNL     1       0.115  12.129  18.770  0.00  0.00    +0.000 A 
ATOM      2  C   UNL     1      -0.971  13.002  18.945  0.00  0.00    +0.000 A 
ATOM      3  C   UNL     1      -0.764  14.352  19.199  0.00  0.00    +0.000 A 
ATOM      4  C   UNL     1       0.533  14.849  19.301  0.00  0.00    +0.000 A 
ATOM      5  C   UNL     1       1.647  14.018  19.134  0.00  0.00    +0.000 A 
ATOM      6  C   UNL     1       1.426  12.663  18.822  0.00  0.00    +0.000 A 
ENDROOT
BRANCH   5   7
ATOM      7  N   UNL     1       2.983  14.507  19.256  0.00  0.00    +0.000 N 
ATOM      8  C   UNL     1       3.689  15.112  18.221  0.00  0.00    +0.000 C 
ATOM      9  O   UNL     1       3.222  15.379  17.113  0.00  0.00    +0.000 OA
ATOM     10  H   UNL     1       3.396  14.466  20.172  0.00  0.00    +0.000 HD
BRANCH   8  11
ATOM     11  C   UNL     1       5.120  15.489  18.425  0.00  0.00    +0.000 A 
ATOM     12  C   UNL     1       6.084  14.666  17.818  0.00  0.00    +0.000 A 
ATOM     13  C   UNL     1       7.453  14.948  17.915  0.00  0.00    +0.000 A 
ATOM     14  C   UNL     1       7.915  16.056  18.625  0.00  0.00    +0.000 A 
ATOM     15  C   UNL     1       6.935  16.880  19.214  0.00  0.00    +0.000 A 
ATOM     16  C   UNL     1       5.555  16.613  19.119  0.00  0.00    +0.000 A 
BRANCH  14  17
ATOM     17  N   UNL     1       9.260  16.382  18.718  0.00  0.00    +0.000 N 
ATOM     18  C   UNL     1       9.732  17.764  18.941  0.00  0.00    +0.000 C 
ATOM     19  C   UNL     1      10.310  18.378  17.656  0.00  0.00    +0.000 C 
ATOM     20  O   UNL     1      11.325  17.540  17.080  0.00  0.00    +0.000 OA
ATOM     21  C   UNL     1      10.778  16.249  16.765  0.00  0.00    +0.000 C 
ATOM     22  C   UNL     1      10.248  15.535  18.021  0.00  0.00    +0.000 C 
ENDBRANCH  14  17
ENDBRANCH   8  11
ENDBRANCH   5   7
BRANCH   1  24
ATOM     23  C   UNL     1      -1.313  10.445  17.523  0.00  0.00    +0.000 C 
ATOM     24  C   UNL     1      -0.180  10.649  18.530  0.00  0.00    +0.000 C 
BRANCH  24  25
ATOM     25  N   UNL     1       1.059   9.859  18.339  0.00  0.00    +0.000 N 
ATOM     26  C   UNL     1       1.530   8.884  19.195  0.00  0.00    +0.000 C 
ATOM     27  N   UNL     1       1.212   8.951  20.456  0.00  0.00    +0.000 NA
ATOM     28  C   UNL     1       1.569   7.904  21.222  0.00  0.00    +0.000 C 
ATOM     29  N   UNL     1       1.358   6.706  20.776  0.00  0.00    +0.000 NA
ATOM     30  C   UNL     1       2.374   6.544  19.723  0.00  0.00    +0.000 C 
ATOM     31  C   UNL     1       2.379   5.218  19.016  0.00  0.00    +0.000 C 
ATOM     32  C   UNL     1       3.149   5.102  17.911  0.00  0.00    +0.000 C 
ATOM     33  C   UNL     1       3.879   6.293  17.330  0.00  0.00    +0.000 C 
ATOM     34  C   UNL     1       3.202   7.618  17.676  0.00  0.00    +0.000 C 
ATOM     35  C   UNL     1       2.389   7.710  18.750  0.00  0.00    +0.000 C 
ATOM     36  H   UNL     1       1.192   9.640  17.358  0.00  0.00    +0.000 HD
BRANCH  31  37
ATOM     37  C   UNL     1       1.700   3.996  19.524  0.00  0.00    +0.000 C 
ATOM     38  N   UNL     1       1.844   3.723  20.843  0.00  0.00    +0.000 N 
ATOM     39  O   UNL     1       1.041   3.256  18.801  0.00  0.00    +0.000 OA
ATOM     40  H   UNL     1       2.424   4.318  21.429  0.00  0.00    +0.000 HD
ATOM     41  H   UNL     1       1.435   2.879  21.216  0.00  0.00    +0.000 HD
ENDBRANCH  31  37
ENDBRANCH  24  25
ENDBRANCH   1  24
TORSDOF 6
ENDMDL
MODEL 7
REMARK VINA RESULT:      -9.3      3.154     12.700
REMARK  Name = 
REMARK  7 active torsions:
REMARK  status: ('A' for Active; 'I' for Inactive)
REMARK    1  A    between atoms: C_1  and  C_2
REMARK    2  A    between atoms: C_2  and  N_3
REMARK    3  A    between atoms: C_2  and  C_17
REMARK    4  A    between atoms: C_9  and  C_10
REMARK    5  A    between atoms: C_21  and  N_22
REMARK    6  A    between atoms: C_23  and  C_25
REMARK    7  A    between atoms: C_28  and  N_29
REMARK                            x       y       z     vdW  Elec       q    Type
REMARK                         _______ _______ _______ _____ _____    ______ ____
ROOT
ATOM      1  C   UNL     1       1.836   7.368  19.827  0.00  0.00    +0.000 A 
ATOM      2  C   UNL     1       2.265   7.526  18.499  0.00  0.00    +0.000 A 
ATOM      3  C   UNL     1       2.006   8.699  17.802  0.00  0.00    +0.000 A 
ATOM      4  C   UNL     1       1.295   9.728  18.415  0.00  0.00    +0.000 A 
ATOM      5  C   UNL     1       0.847   9.618  19.736  0.00  0.00    +0.000 A 
ATOM      6  C   UNL     1       1.163   8.448  20.451  0.00  0.00    +0.000 A 
ENDROOT
BRANCH   5   7
ATOM      7  N   UNL     1       0.100  10.656  20.373  0.00  0.00    +0.000 N 
ATOM      8  C   UNL     1      -1.100  11.165  19.885  0.00  0.00    +0.000 C 
ATOM      9  O   UNL     1      -1.702  10.726  18.905  0.00  0.00    +0.000 OA
ATOM     10  H   UNL     1       0.441  10.974  21.263  0.00  0.00    +0.000 HD
BRANCH   8  11
ATOM     11  C   UNL     1      -1.743  12.325  20.571  0.00  0.00    +0.000 A 
ATOM     12  C   UNL     1      -0.897  13.178  21.299  0.00  0.00    +0.000 A 
ATOM     13  C   UNL     1      -1.390  14.315  21.952  0.00  0.00    +0.000 A 
ATOM     14  C   UNL     1      -2.745  14.644  21.910  0.00  0.00    +0.000 A 
ATOM     15  C   UNL     1      -3.578  13.786  21.163  0.00  0.00    +0.000 A 
ATOM     16  C   UNL     1      -3.095  12.643  20.496  0.00  0.00    +0.000 A 
BRANCH  14  17
ATOM     17  N   UNL     1      -3.264  15.776  22.519  0.00  0.00    +0.000 N 
ATOM     18  C   UNL     1      -2.623  16.421  23.682  0.00  0.00    +0.000 C 
ATOM     19  C   UNL     1      -3.385  16.128  24.984  0.00  0.00    +0.000 C 
ATOM     20  O   UNL     1      -4.776  16.468  24.870  0.00  0.00    +0.000 OA
ATOM     21  C   UNL     1      -5.382  15.717  23.805  0.00  0.00    +0.000 C 
ATOM     22  C   UNL     1      -4.719  16.019  22.449  0.00  0.00    +0.000 C 
ENDBRANCH  14  17
ENDBRANCH   8  11
ENDBRANCH   5   7
BRANCH   1  24
ATOM     23  C   UNL     1       1.020   5.009  20.274  0.00  0.00    +0.000 C 
ATOM     24  C   UNL     1       2.122   6.040  20.525  0.00  0.00    +0.000 C 
BRANCH  24  25
ATOM     25  N   UNL     1       3.526   5.605  20.340  0.00  0.00    +0.000 N 
ATOM     26  C   UNL     1       3.970   4.707  19.390  0.00  0.00    +0.000 C 
ATOM     27  N   UNL     1       3.142   3.806  18.946  0.00  0.00    +0.000 NA
ATOM     28  C   UNL     1       3.571   3.049  17.919  0.00  0.00    +0.000 C 
ATOM     29  N   UNL     1       4.169   3.629  16.927  0.00  0.00    +0.000 NA
ATOM     30  C   UNL     1       5.485   3.992  17.477  0.00  0.00    +0.000 C 
ATOM     31  C   UNL     1       6.422   4.687  16.530  0.00  0.00    +0.000 C 
ATOM     32  C   UNL     1       7.551   5.220  17.049  0.00  0.00    +0.000 C 
ATOM     33  C   UNL     1       7.805   5.233  18.541  0.00  0.00    +0.000 C 
ATOM     34  C   UNL     1       6.511   5.199  19.352  0.00  0.00    +0.000 C 
ATOM     35  C   UNL     1       5.374   4.717  18.807  0.00  0.00    +0.000 C 
ATOM     36  H   UNL     1       4.161   6.380  20.497  0.00  0.00    +0.000 HD
BRANCH  31  37
ATOM     37  C   UNL     1       6.255   4.711  15.053  0.00  0.00    +0.000 C 
ATOM     38  N   UNL     1       6.224   3.512  14.425  0.00  0.00    +0.000 N 
ATOM     39  O   UNL     1       6.151   5.754  14.416  0.00  0.00    +0.000 OA
ATOM     40  H   UNL     1       6.349   2.653  14.953  0.00  0.00    +0.000 HD
ATOM     41  H   UNL     1       6.155   3.487  13.418  0.00  0.00    +0.000 HD
ENDBRANCH  31  37
ENDBRANCH  24  25
ENDBRANCH   1  24
TORSDOF 6
ENDMDL
MODEL 8
REMARK VINA RESULT:      -9.3      4.133     12.651
REMARK  Name = 
REMARK  7 active torsions:
REMARK  status: ('A' for Active; 'I' for Inactive)
REMARK    1  A    between atoms: C_1  and  C_2
REMARK    2  A    between atoms: C_2  and  N_3
REMARK    3  A    between atoms: C_2  and  C_17
REMARK    4  A    between atoms: C_9  and  C_10
REMARK    5  A    between atoms: C_21  and  N_22
REMARK    6  A    between atoms: C_23  and  C_25
REMARK    7  A    between atoms: C_28  and  N_29
REMARK                            x       y       z     vdW  Elec       q    Type
REMARK                         _______ _______ _______ _____ _____    ______ ____
ROOT
ATOM      1  C   UNL     1       1.884   7.286  19.845  0.00  0.00    +0.000 A 
ATOM      2  C   UNL     1       2.096   7.378  18.459  0.00  0.00    +0.000 A 
ATOM      3  C   UNL     1       1.840   8.561  17.778  0.00  0.00    +0.000 A 
ATOM      4  C   UNL     1       1.349   9.667  18.467  0.00  0.00    +0.000 A 
ATOM      5  C   UNL     1       1.123   9.624  19.848  0.00  0.00    +0.000 A 
ATOM      6  C   UNL     1       1.438   8.439  20.538  0.00  0.00    +0.000 A 
ENDROOT
BRANCH   5   7
ATOM      7  N   UNL     1       0.601  10.743  20.567  0.00  0.00    +0.000 N 
ATOM      8  C   UNL     1      -0.303  10.641  21.619  0.00  0.00    +0.000 C 
ATOM      9  O   UNL     1      -0.689   9.581  22.114  0.00  0.00    +0.000 OA
ATOM     10  H   UNL     1       0.977  11.645  20.329  0.00  0.00    +0.000 HD
BRANCH   8  11
ATOM     11  C   UNL     1      -0.868  11.881  22.231  0.00  0.00    +0.000 A 
ATOM     12  C   UNL     1      -2.039  11.734  22.992  0.00  0.00    +0.000 A 
ATOM     13  C   UNL     1      -2.633  12.825  23.639  0.00  0.00    +0.000 A 
ATOM     14  C   UNL     1      -2.089  14.106  23.547  0.00  0.00    +0.000 A 
ATOM     15  C   UNL     1      -0.905  14.233  22.792  0.00  0.00    +0.000 A 
ATOM     16  C   UNL     1      -0.293  13.144  22.142  0.00  0.00    +0.000 A 
BRANCH  14  17
ATOM     17  N   UNL     1      -2.633  15.203  24.197  0.00  0.00    +0.000 N 
ATOM     18  C   UNL     1      -2.753  16.529  23.558  0.00  0.00    +0.000 C 
ATOM     19  C   UNL     1      -1.702  17.514  24.095  0.00  0.00    +0.000 C 
ATOM     20  O   UNL     1      -1.737  17.594  25.529  0.00  0.00    +0.000 OA
ATOM     21  C   UNL     1      -1.487  16.299  26.101  0.00  0.00    +0.000 C 
ATOM     22  C   UNL     1      -2.550  15.273  25.669  0.00  0.00    +0.000 C 
ENDBRANCH  14  17
ENDBRANCH   8  11
ENDBRANCH   5   7
BRANCH   1  24
ATOM     23  C   UNL     1       1.021   4.943  20.289  0.00  0.00    +0.000 C 
ATOM     24  C   UNL     1       2.151   5.946  20.528  0.00  0.00    +0.000 C 
BRANCH  24  25
ATOM     25  N   UNL     1       3.541   5.479  20.314  0.00  0.00    +0.000 N 
ATOM     26  C   UNL     1       3.953   4.612  19.324  0.00  0.00    +0.000 C 
ATOM     27  N   UNL     1       3.097   3.755  18.845  0.00  0.00    +0.000 NA
ATOM     28  C   UNL     1       3.499   3.032  17.784  0.00  0.00    +0.000 C 
ATOM     29  N   UNL     1       4.108   3.638  16.814  0.00  0.00    +0.000 NA
ATOM     30  C   UNL     1       5.437   3.938  17.371  0.00  0.00    +0.000 C 
ATOM     31  C   UNL     1       6.389   4.647  16.449  0.00  0.00    +0.000 C 
ATOM     32  C   UNL     1       7.536   5.124  16.983  0.00  0.00    +0.000 C 
ATOM     33  C   UNL     1       7.797   5.065  18.472  0.00  0.00    +0.000 C 
ATOM     34  C   UNL     1       6.508   5.032  19.290  0.00  0.00    +0.000 C 
ATOM     35  C   UNL     1       5.355   4.607  18.732  0.00  0.00    +0.000 C 
ATOM     36  H   UNL     1       4.199   6.228  20.501  0.00  0.00    +0.000 HD
BRANCH  31  37
ATOM     37  C   UNL     1       6.214   4.741  14.976  0.00  0.00    +0.000 C 
ATOM     38  N   UNL     1       6.217   3.574  14.287  0.00  0.00    +0.000 N 
ATOM     39  O   UNL     1       6.075   5.811  14.392  0.00  0.00    +0.000 OA
ATOM     40  H   UNL     1       6.371   2.694  14.771  0.00  0.00    +0.000 HD
ATOM     41  H   UNL     1       6.145   3.599  13.280  0.00  0.00    +0.000 HD
ENDBRANCH  31  37
ENDBRANCH  24  25
ENDBRANCH   1  24
TORSDOF 6
ENDMDL
MODEL 9
REMARK VINA RESULT:      -9.3      2.112      3.084
REMARK  Name = 
REMARK  7 active torsions:
REMARK  status: ('A' for Active; 'I' for Inactive)
REMARK    1  A    between atoms: C_1  and  C_2
REMARK    2  A    between atoms: C_2  and  N_3
REMARK    3  A    between atoms: C_2  and  C_17
REMARK    4  A    between atoms: C_9  and  C_10
REMARK    5  A    between atoms: C_21  and  N_22
REMARK    6  A    between atoms: C_23  and  C_25
REMARK    7  A    between atoms: C_28  and  N_29
REMARK                            x       y       z     vdW  Elec       q    Type
REMARK                         _______ _______ _______ _____ _____    ______ ____
ROOT
ATOM      1  C   UNL     1      -1.346  12.272  21.027  0.00  0.00    +0.000 A 
ATOM      2  C   UNL     1      -1.918  12.194  22.308  0.00  0.00    +0.000 A 
ATOM      3  C   UNL     1      -1.614  11.140  23.159  0.00  0.00    +0.000 A 
ATOM      4  C   UNL     1      -0.747  10.135  22.738  0.00  0.00    +0.000 A 
ATOM      5  C   UNL     1      -0.151  10.169  21.472  0.00  0.00    +0.000 A 
ATOM      6  C   UNL     1      -0.423  11.270  20.638  0.00  0.00    +0.000 A 
ENDROOT
BRANCH   5   7
ATOM      7  N   UNL     1       0.724   9.137  21.017  0.00  0.00    +0.000 N 
ATOM      8  C   UNL     1       1.194   9.031  19.711  0.00  0.00    +0.000 C 
ATOM      9  O   UNL     1       0.987   9.856  18.821  0.00  0.00    +0.000 OA
ATOM     10  H   UNL     1       1.068   8.498  21.714  0.00  0.00    +0.000 HD
BRANCH   8  11
ATOM     11  C   UNL     1       2.018   7.850  19.316  0.00  0.00    +0.000 A 
ATOM     12  C   UNL     1       2.033   6.763  20.206  0.00  0.00    +0.000 A 
ATOM     13  C   UNL     1       2.745   5.591  19.917  0.00  0.00    +0.000 A 
ATOM     14  C   UNL     1       3.473   5.459  18.735  0.00  0.00    +0.000 A 
ATOM     15  C   UNL     1       3.435   6.553  17.847  0.00  0.00    +0.000 A 
ATOM     16  C   UNL     1       2.719   7.734  18.121  0.00  0.00    +0.000 A 
BRANCH  14  17
ATOM     17  N   UNL     1       4.165   4.304  18.403  0.00  0.00    +0.000 N 
ATOM     18  C   UNL     1       3.821   3.477  17.229  0.00  0.00    +0.000 C 
ATOM     19  C   UNL     1       3.099   2.184  17.639  0.00  0.00    +0.000 C 
ATOM     20  O   UNL     1       3.847   1.450  18.623  0.00  0.00    +0.000 OA
ATOM     21  C   UNL     1       4.043   2.258  19.795  0.00  0.00    +0.000 C 
ATOM     22  C   UNL     1       4.833   3.540  19.476  0.00  0.00    +0.000 C 
ENDBRANCH  14  17
ENDBRANCH   8  11
ENDBRANCH   5   7
BRANCH   1  24
ATOM     23  C   UNL     1      -1.044  13.387  18.770  0.00  0.00    +0.000 C 
ATOM     24  C   UNL     1      -1.750  13.437  20.126  0.00  0.00    +0.000 C 
BRANCH  24  25
ATOM     25  N   UNL     1      -3.215  13.662  20.130  0.00  0.00    +0.000 N 
ATOM     26  C   UNL     1      -4.150  12.876  19.491  0.00  0.00    +0.000 C 
ATOM     27  N   UNL     1      -3.788  12.204  18.436  0.00  0.00    +0.000 NA
ATOM     28  C   UNL     1      -4.688  11.340  17.934  0.00  0.00    +0.000 C 
ATOM     29  N   UNL     1      -5.332  10.567  18.752  0.00  0.00    +0.000 NA
ATOM     30  C   UNL     1      -6.273  11.478  19.423  0.00  0.00    +0.000 C 
ATOM     31  C   UNL     1      -7.179  10.848  20.443  0.00  0.00    +0.000 C 
ATOM     32  C   UNL     1      -7.908  11.675  21.226  0.00  0.00    +0.000 C 
ATOM     33  C   UNL     1      -7.727  13.177  21.171  0.00  0.00    +0.000 C 
ATOM     34  C   UNL     1      -6.334  13.579  20.692  0.00  0.00    +0.000 C 
ATOM     35  C   UNL     1      -5.590  12.724  19.957  0.00  0.00    +0.000 C 
ATOM     36  H   UNL     1      -3.518  14.003  21.037  0.00  0.00    +0.000 HD
BRANCH  31  37
ATOM     37  C   UNL     1      -7.424   9.386  20.557  0.00  0.00    +0.000 C 
ATOM     38  N   UNL     1      -7.902   8.940  21.744  0.00  0.00    +0.000 N 
ATOM     39  O   UNL     1      -7.207   8.604  19.637  0.00  0.00    +0.000 OA
ATOM     40  H   UNL     1      -8.043   9.586  22.515  0.00  0.00    +0.000 HD
ATOM     41  H   UNL     1      -8.040   7.949  21.875  0.00  0.00    +0.000 HD
ENDBRANCH  31  37
ENDBRANCH  24  25
ENDBRANCH   1  24
TORSDOF 6
ENDMDL
