MODEL 1
REMARK VINA RESULT:      -7.2      0.000      0.000
REMARK  Name = 
REMARK  7 active torsions:
REMARK  status: ('A' for Active; 'I' for Inactive)
REMARK    1  A    between atoms: C_1  and  C_2
REMARK    2  A    between atoms: C_2  and  C_3
REMARK    3  A    between atoms: C_8  and  N_9
REMARK    4  A    between atoms: C_10  and  C_12
REMARK    5  A    between atoms: C_12  and  N_13
REMARK    6  A    between atoms: N_16  and  C_17
REMARK    7  A    between atoms: C_17  and  N_18
REMARK                            x       y       z     vdW  Elec       q    Type
REMARK                         _______ _______ _______ _____ _____    ______ ____
ROOT
ATOM      1  C   UNL     1       1.480   8.555  20.911  0.00  0.00    +0.000 C 
ENDROOT
BRANCH   1   2
ATOM      2  N   UNL     1       0.039   8.913  20.881  0.00  0.00    +0.000 NA
ATOM      3  C   UNL     1      -0.521   8.718  22.249  0.00  0.00    +0.000 C 
ATOM      4  C   UNL     1      -0.094   9.783  23.304  0.00  0.00    +0.000 C 
ATOM      5  N   UNL     1      -0.323  11.187  22.895  0.00  0.00    +0.000 NA
ATOM      6  C   UNL     1       0.248  11.378  21.546  0.00  0.00    +0.000 C 
ATOM      7  C   UNL     1      -0.192  10.329  20.497  0.00  0.00    +0.000 C 
BRANCH   5   8
ATOM      8  C   UNL     1      -1.756  11.502  22.986  0.00  0.00    +0.000 C 
BRANCH   8   9
ATOM      9  N   UNL     1      -1.992  12.937  23.129  0.00  0.00    +0.000 N 
ATOM     10  N   UNL     1      -0.995  13.693  23.727  0.00  0.00    +0.000 NA
ATOM     11  C   UNL     1      -1.353  14.932  23.777  0.00  0.00    +0.000 A 
ATOM     12  S   UNL     1      -2.898  15.328  23.095  0.00  0.00    +0.000 S 
ATOM     13  C   UNL     1      -3.103  13.633  22.681  0.00  0.00    +0.000 A 
ATOM     14  S   UNL     1      -4.431  13.066  21.850  0.00  0.00    +0.000 S 
ENDBRANCH   8   9
ENDBRANCH   5   8
ENDBRANCH   1   2
BRANCH   1  16
ATOM     15  N   UNL     1       2.391   6.392  20.124  0.00  0.00    +0.000 N 
ATOM     16  C   UNL     1       1.948   7.649  19.771  0.00  0.00    +0.000 C 
ATOM     17  O   UNL     1       1.975   8.122  18.632  0.00  0.00    +0.000 OA
ATOM     18  H   UNL     1       2.439   6.219  21.119  0.00  0.00    +0.000 HD
BRANCH  15  24
ATOM     19  C   UNL     1       2.093   4.169  19.099  0.00  0.00    +0.000 A 
ATOM     20  C   UNL     1       2.557   3.172  18.211  0.00  0.00    +0.000 A 
ATOM     21  C   UNL     1       3.722   3.347  17.469  0.00  0.00    +0.000 A 
ATOM     22  C   UNL     1       4.435   4.529  17.594  0.00  0.00    +0.000 A 
ATOM     23  C   UNL     1       3.980   5.529  18.456  0.00  0.00    +0.000 A 
ATOM     24  C   UNL     1       2.822   5.371  19.232  0.00  0.00    +0.000 A 
BRANCH  19  26
ATOM     25  C   UNL     1       1.362   2.960  21.149  0.00  0.00    +0.000 C 
ATOM     26  C   UNL     1       0.911   3.805  19.966  0.00  0.00    +0.000 C 
ENDBRANCH  19  26
ENDBRANCH  15  24
ENDBRANCH   1  16
TORSDOF 6
ENDMDL
MODEL 2
REMARK VINA RESULT:      -6.8      7.577     10.514
REMARK  Name = 
REMARK  7 active torsions:
REMARK  status: ('A' for Active; 'I' for Inactive)
REMARK    1  A    between atoms: C_1  and  C_2
REMARK    2  A    between atoms: C_2  and  C_3
REMARK    3  A    between atoms: C_8  and  N_9
REMARK    4  A    between atoms: C_10  and  C_12
REMARK    5  A    between atoms: C_12  and  N_13
REMARK    6  A    between atoms: N_16  and  C_17
REMARK    7  A    between atoms: C_17  and  N_18
REMARK                            x       y       z     vdW  Elec       q    Type
REMARK                         _______ _______ _______ _____ _____    ______ ____
ROOT
ATOM      1  C   UNL     1       7.117   7.685  17.216  0.00  0.00    +0.000 C 
ENDROOT
BRANCH   1   2
ATOM      2  N   UNL     1       7.174   6.228  17.495  0.00  0.00    +0.000 NA
ATOM      3  C   UNL     1       6.124   5.903  18.503  0.00  0.00    +0.000 C 
ATOM      4  C   UNL     1       4.658   5.927  17.973  0.00  0.00    +0.000 C 
ATOM      5  N   UNL     1       4.422   5.107  16.763  0.00  0.00    +0.000 NA
ATOM      6  C   UNL     1       5.456   5.445  15.763  0.00  0.00    +0.000 C 
ATOM      7  C   UNL     1       6.911   5.403  16.288  0.00  0.00    +0.000 C 
BRANCH   5   8
ATOM      8  C   UNL     1       4.390   3.683  17.129  0.00  0.00    +0.000 C 
BRANCH   8   9
ATOM      9  N   UNL     1       3.221   3.355  17.942  0.00  0.00    +0.000 N 
ATOM     10  N   UNL     1       1.971   3.613  17.400  0.00  0.00    +0.000 NA
ATOM     11  C   UNL     1       1.049   3.270  18.235  0.00  0.00    +0.000 A 
ATOM     12  S   UNL     1       1.573   2.580  19.738  0.00  0.00    +0.000 S 
ATOM     13  C   UNL     1       3.234   2.763  19.194  0.00  0.00    +0.000 A 
ATOM     14  S   UNL     1       4.536   2.240  20.094  0.00  0.00    +0.000 S 
ENDBRANCH   8   9
ENDBRANCH   5   8
ENDBRANCH   1   2
BRANCH   1  16
ATOM     15  N   UNL     1       8.157   9.877  17.709  0.00  0.00    +0.000 N 
ATOM     16  C   UNL     1       8.069   8.544  18.049  0.00  0.00    +0.000 C 
ATOM     17  O   UNL     1       8.751   7.980  18.910  0.00  0.00    +0.000 OA
ATOM     18  H   UNL     1       7.639  10.142  16.882  0.00  0.00    +0.000 HD
BRANCH  15  24
ATOM     19  C   UNL     1       8.715  12.241  18.139  0.00  0.00    +0.000 A 
ATOM     20  C   UNL     1       9.513  13.194  18.811  0.00  0.00    +0.000 A 
ATOM     21  C   UNL     1      10.517  12.807  19.694  0.00  0.00    +0.000 A 
ATOM     22  C   UNL     1      10.729  11.458  19.930  0.00  0.00    +0.000 A 
ATOM     23  C   UNL     1       9.938  10.504  19.287  0.00  0.00    +0.000 A 
ATOM     24  C   UNL     1       8.934  10.866  18.374  0.00  0.00    +0.000 A 
BRANCH  19  26
ATOM     25  C   UNL     1       7.061  14.020  17.595  0.00  0.00    +0.000 C 
ATOM     26  C   UNL     1       7.768  12.770  17.088  0.00  0.00    +0.000 C 
ENDBRANCH  19  26
ENDBRANCH  15  24
ENDBRANCH   1  16
TORSDOF 6
ENDMDL
MODEL 3
REMARK VINA RESULT:      -6.7      7.508     10.648
REMARK  Name = 
REMARK  7 active torsions:
REMARK  status: ('A' for Active; 'I' for Inactive)
REMARK    1  A    between atoms: C_1  and  C_2
REMARK    2  A    between atoms: C_2  and  C_3
REMARK    3  A    between atoms: C_8  and  N_9
REMARK    4  A    between atoms: C_10  and  C_12
REMARK    5  A    between atoms: C_12  and  N_13
REMARK    6  A    between atoms: N_16  and  C_17
REMARK    7  A    between atoms: C_17  and  N_18
REMARK                            x       y       z     vdW  Elec       q    Type
REMARK                         _______ _______ _______ _____ _____    ______ ____
ROOT
ATOM      1  C   UNL     1       8.218   7.639  17.690  0.00  0.00    +0.000 C 
ENDROOT
BRANCH   1   2
ATOM      2  N   UNL     1       6.889   7.188  17.205  0.00  0.00    +0.000 NA
ATOM      3  C   UNL     1       7.081   5.946  16.402  0.00  0.00    +0.000 C 
ATOM      4  C   UNL     1       7.416   4.664  17.223  0.00  0.00    +0.000 C 
ATOM      5  N   UNL     1       6.476   4.372  18.328  0.00  0.00    +0.000 NA
ATOM      6  C   UNL     1       6.303   5.601  19.130  0.00  0.00    +0.000 C 
ATOM      7  C   UNL     1       5.953   6.868  18.312  0.00  0.00    +0.000 C 
BRANCH   5   8
ATOM      8  C   UNL     1       5.221   3.834  17.782  0.00  0.00    +0.000 C 
BRANCH   8   9
ATOM      9  N   UNL     1       4.273   3.483  18.837  0.00  0.00    +0.000 N 
ATOM     10  N   UNL     1       4.684   2.559  19.785  0.00  0.00    +0.000 NA
ATOM     11  C   UNL     1       3.740   2.358  20.642  0.00  0.00    +0.000 A 
ATOM     12  S   UNL     1       2.278   3.266  20.422  0.00  0.00    +0.000 S 
ATOM     13  C   UNL     1       3.008   4.019  19.012  0.00  0.00    +0.000 A 
ATOM     14  S   UNL     1       2.238   5.203  18.127  0.00  0.00    +0.000 S 
ENDBRANCH   8   9
ENDBRANCH   5   8
ENDBRANCH   1   2
BRANCH   1  16
ATOM     15  N   UNL     1       9.167   9.363  19.193  0.00  0.00    +0.000 N 
ATOM     16  C   UNL     1       8.273   9.087  18.180  0.00  0.00    +0.000 C 
ATOM     17  O   UNL     1       7.468   9.889  17.700  0.00  0.00    +0.000 OA
ATOM     18  H   UNL     1       9.646   8.556  19.572  0.00  0.00    +0.000 HD
BRANCH  15  24
ATOM     19  C   UNL     1      10.082  11.647  19.026  0.00  0.00    +0.000 A 
ATOM     20  C   UNL     1      10.328  12.900  19.630  0.00  0.00    +0.000 A 
ATOM     21  C   UNL     1       9.941  13.162  20.942  0.00  0.00    +0.000 A 
ATOM     22  C   UNL     1       9.288  12.177  21.666  0.00  0.00    +0.000 A 
ATOM     23  C   UNL     1       9.024  10.939  21.077  0.00  0.00    +0.000 A 
ATOM     24  C   UNL     1       9.422  10.640  19.765  0.00  0.00    +0.000 A 
BRANCH  19  26
ATOM     25  C   UNL     1      11.591  12.589  17.285  0.00  0.00    +0.000 C 
ATOM     26  C   UNL     1      10.685  11.424  17.659  0.00  0.00    +0.000 C 
ENDBRANCH  19  26
ENDBRANCH  15  24
ENDBRANCH   1  16
TORSDOF 6
ENDMDL
MODEL 4
REMARK VINA RESULT:      -6.7      0.910      1.433
REMARK  Name = 
REMARK  7 active torsions:
REMARK  status: ('A' for Active; 'I' for Inactive)
REMARK    1  A    between atoms: C_1  and  C_2
REMARK    2  A    between atoms: C_2  and  C_3
REMARK    3  A    between atoms: C_8  and  N_9
REMARK    4  A    between atoms: C_10  and  C_12
REMARK    5  A    between atoms: C_12  and  N_13
REMARK    6  A    between atoms: N_16  and  C_17
REMARK    7  A    between atoms: C_17  and  N_18
REMARK                            x       y       z     vdW  Elec       q    Type
REMARK                         _______ _______ _______ _____ _____    ______ ____
ROOT
ATOM      1  C   UNL     1       1.313   8.972  20.789  0.00  0.00    +0.000 C 
ENDROOT
BRANCH   1   2
ATOM      2  N   UNL     1      -0.149   9.229  20.823  0.00  0.00    +0.000 NA
ATOM      3  C   UNL     1      -0.641   8.953  22.204  0.00  0.00    +0.000 C 
ATOM      4  C   UNL     1      -0.247  10.012  23.278  0.00  0.00    +0.000 C 
ATOM      5  N   UNL     1      -0.588  11.409  22.926  0.00  0.00    +0.000 NA
ATOM      6  C   UNL     1      -0.085  11.681  21.563  0.00  0.00    +0.000 C 
ATOM      7  C   UNL     1      -0.492  10.636  20.497  0.00  0.00    +0.000 C 
BRANCH   5   8
ATOM      8  C   UNL     1      -2.035  11.619  23.080  0.00  0.00    +0.000 C 
BRANCH   8   9
ATOM      9  N   UNL     1      -2.484  12.838  22.410  0.00  0.00    +0.000 N 
ATOM     10  N   UNL     1      -3.308  12.696  21.305  0.00  0.00    +0.000 NA
ATOM     11  C   UNL     1      -3.615  13.856  20.831  0.00  0.00    +0.000 A 
ATOM     12  S   UNL     1      -2.977  15.235  21.669  0.00  0.00    +0.000 S 
ATOM     13  C   UNL     1      -2.204  14.137  22.801  0.00  0.00    +0.000 A 
ATOM     14  S   UNL     1      -1.334  14.672  24.118  0.00  0.00    +0.000 S 
ENDBRANCH   8   9
ENDBRANCH   5   8
ENDBRANCH   1   2
BRANCH   1  16
ATOM     15  N   UNL     1       2.287   6.816  20.059  0.00  0.00    +0.000 N 
ATOM     16  C   UNL     1       1.782   8.039  19.671  0.00  0.00    +0.000 C 
ATOM     17  O   UNL     1       1.754   8.466  18.514  0.00  0.00    +0.000 OA
ATOM     18  H   UNL     1       2.373   6.687  21.058  0.00  0.00    +0.000 HD
BRANCH  15  24
ATOM     19  C   UNL     1       2.094   4.517  19.189  0.00  0.00    +0.000 A 
ATOM     20  C   UNL     1       2.569   3.505  18.324  0.00  0.00    +0.000 A 
ATOM     21  C   UNL     1       3.657   3.722  17.483  0.00  0.00    +0.000 A 
ATOM     22  C   UNL     1       4.280   4.960  17.484  0.00  0.00    +0.000 A 
ATOM     23  C   UNL     1       3.811   5.975  18.321  0.00  0.00    +0.000 A 
ATOM     24  C   UNL     1       2.731   5.777  19.195  0.00  0.00    +0.000 A 
BRANCH  19  26
ATOM     25  C   UNL     1       1.374   2.808  20.850  0.00  0.00    +0.000 C 
ATOM     26  C   UNL     1       1.013   4.119  20.166  0.00  0.00    +0.000 C 
ENDBRANCH  19  26
ENDBRANCH  15  24
ENDBRANCH   1  16
TORSDOF 6
ENDMDL
MODEL 5
REMARK VINA RESULT:      -6.7      7.477     10.541
REMARK  Name = 
REMARK  7 active torsions:
REMARK  status: ('A' for Active; 'I' for Inactive)
REMARK    1  A    between atoms: C_1  and  C_2
REMARK    2  A    between atoms: C_2  and  C_3
REMARK    3  A    between atoms: C_8  and  N_9
REMARK    4  A    between atoms: C_10  and  C_12
REMARK    5  A    between atoms: C_12  and  N_13
REMARK    6  A    between atoms: N_16  and  C_17
REMARK    7  A    between atoms: C_17  and  N_18
REMARK                            x       y       z     vdW  Elec       q    Type
REMARK                         _______ _______ _______ _____ _____    ______ ____
ROOT
ATOM      1  C   UNL     1       7.990   7.537  18.213  0.00  0.00    +0.000 C 
ENDROOT
BRANCH   1   2
ATOM      2  N   UNL     1       6.923   7.087  17.284  0.00  0.00    +0.000 NA
ATOM      3  C   UNL     1       7.334   5.780  16.696  0.00  0.00    +0.000 C 
ATOM      4  C   UNL     1       7.257   4.558  17.661  0.00  0.00    +0.000 C 
ATOM      5  N   UNL     1       5.952   4.382  18.337  0.00  0.00    +0.000 NA
ATOM      6  C   UNL     1       5.558   5.676  18.931  0.00  0.00    +0.000 C 
ATOM      7  C   UNL     1       5.619   6.884  17.965  0.00  0.00    +0.000 C 
BRANCH   5   8
ATOM      8  C   UNL     1       4.972   3.839  17.385  0.00  0.00    +0.000 C 
BRANCH   8   9
ATOM      9  N   UNL     1       3.653   3.676  17.994  0.00  0.00    +0.000 N 
ATOM     10  N   UNL     1       2.576   4.273  17.358  0.00  0.00    +0.000 NA
ATOM     11  C   UNL     1       1.490   4.037  18.015  0.00  0.00    +0.000 A 
ATOM     12  S   UNL     1       1.637   3.058  19.441  0.00  0.00    +0.000 S 
ATOM     13  C   UNL     1       3.362   2.938  19.129  0.00  0.00    +0.000 A 
ATOM     14  S   UNL     1       4.384   2.026  20.079  0.00  0.00    +0.000 S 
ENDBRANCH   8   9
ENDBRANCH   5   8
ENDBRANCH   1   2
BRANCH   1  16
ATOM     15  N   UNL     1       9.278   9.487  19.030  0.00  0.00    +0.000 N 
ATOM     16  C   UNL     1       8.302   9.033  18.167  0.00  0.00    +0.000 C 
ATOM     17  O   UNL     1       7.615   9.743  17.429  0.00  0.00    +0.000 OA
ATOM     18  H   UNL     1       9.638   8.793  19.671  0.00  0.00    +0.000 HD
BRANCH  15  24
ATOM     19  C   UNL     1       9.657  11.549  20.327  0.00  0.00    +0.000 A 
ATOM     20  C   UNL     1      10.143  12.876  20.379  0.00  0.00    +0.000 A 
ATOM     21  C   UNL     1      10.718  13.482  19.265  0.00  0.00    +0.000 A 
ATOM     22  C   UNL     1      10.829  12.765  18.084  0.00  0.00    +0.000 A 
ATOM     23  C   UNL     1      10.369  11.448  18.022  0.00  0.00    +0.000 A 
ATOM     24  C   UNL     1       9.764  10.820  19.123  0.00  0.00    +0.000 A 
BRANCH  19  26
ATOM     25  C   UNL     1       8.658  12.200  22.512  0.00  0.00    +0.000 C 
ATOM     26  C   UNL     1       8.913  11.053  21.544  0.00  0.00    +0.000 C 
ENDBRANCH  19  26
ENDBRANCH  15  24
ENDBRANCH   1  16
TORSDOF 6
ENDMDL
MODEL 6
REMARK VINA RESULT:      -6.6      7.507     10.584
REMARK  Name = 
REMARK  7 active torsions:
REMARK  status: ('A' for Active; 'I' for Inactive)
REMARK    1  A    between atoms: C_1  and  C_2
REMARK    2  A    between atoms: C_2  and  C_3
REMARK    3  A    between atoms: C_8  and  N_9
REMARK    4  A    between atoms: C_10  and  C_12
REMARK    5  A    between atoms: C_12  and  N_13
REMARK    6  A    between atoms: N_16  and  C_17
REMARK    7  A    between atoms: C_17  and  N_18
REMARK                            x       y       z     vdW  Elec       q    Type
REMARK                         _______ _______ _______ _____ _____    ______ ____
ROOT
ATOM      1  C   UNL     1       7.952   7.565  18.135  0.00  0.00    +0.000 C 
ENDROOT
BRANCH   1   2
ATOM      2  N   UNL     1       6.883   7.200  17.172  0.00  0.00    +0.000 NA
ATOM      3  C   UNL     1       7.264   5.918  16.512  0.00  0.00    +0.000 C 
ATOM      4  C   UNL     1       7.143   4.645  17.404  0.00  0.00    +0.000 C 
ATOM      5  N   UNL     1       5.826   4.468  18.056  0.00  0.00    +0.000 NA
ATOM      6  C   UNL     1       5.462   5.736  18.721  0.00  0.00    +0.000 C 
ATOM      7  C   UNL     1       5.567   6.995  17.828  0.00  0.00    +0.000 C 
BRANCH   5   8
ATOM      8  C   UNL     1       4.841   4.010  17.065  0.00  0.00    +0.000 C 
BRANCH   8   9
ATOM      9  N   UNL     1       3.720   3.313  17.693  0.00  0.00    +0.000 N 
ATOM     10  N   UNL     1       3.876   1.963  17.963  0.00  0.00    +0.000 NA
ATOM     11  C   UNL     1       2.805   1.497  18.514  0.00  0.00    +0.000 A 
ATOM     12  S   UNL     1       1.515   2.624  18.790  0.00  0.00    +0.000 S 
ATOM     13  C   UNL     1       2.522   3.883  18.090  0.00  0.00    +0.000 A 
ATOM     14  S   UNL     1       2.037   5.475  18.004  0.00  0.00    +0.000 S 
ENDBRANCH   8   9
ENDBRANCH   5   8
ENDBRANCH   1   2
BRANCH   1  16
ATOM     15  N   UNL     1       9.270   9.430  19.091  0.00  0.00    +0.000 N 
ATOM     16  C   UNL     1       8.313   9.050  18.174  0.00  0.00    +0.000 C 
ATOM     17  O   UNL     1       7.676   9.818  17.447  0.00  0.00    +0.000 OA
ATOM     18  H   UNL     1       9.585   8.694  19.710  0.00  0.00    +0.000 HD
BRANCH  15  24
ATOM     19  C   UNL     1       9.649  11.422  20.494  0.00  0.00    +0.000 A 
ATOM     20  C   UNL     1      10.174  12.728  20.627  0.00  0.00    +0.000 A 
ATOM     21  C   UNL     1      10.826  13.359  19.571  0.00  0.00    +0.000 A 
ATOM     22  C   UNL     1      10.974  12.689  18.368  0.00  0.00    +0.000 A 
ATOM     23  C   UNL     1      10.475  11.393  18.225  0.00  0.00    +0.000 A 
ATOM     24  C   UNL     1       9.795  10.740  19.266  0.00  0.00    +0.000 A 
BRANCH  19  26
ATOM     25  C   UNL     1       8.431  12.045  22.574  0.00  0.00    +0.000 C 
ATOM     26  C   UNL     1       8.827  10.902  21.649  0.00  0.00    +0.000 C 
ENDBRANCH  19  26
ENDBRANCH  15  24
ENDBRANCH   1  16
TORSDOF 6
ENDMDL
MODEL 7
REMARK VINA RESULT:      -6.6      0.937      1.888
REMARK  Name = 
REMARK  7 active torsions:
REMARK  status: ('A' for Active; 'I' for Inactive)
REMARK    1  A    between atoms: C_1  and  C_2
REMARK    2  A    between atoms: C_2  and  C_3
REMARK    3  A    between atoms: C_8  and  N_9
REMARK    4  A    between atoms: C_10  and  C_12
REMARK    5  A    between atoms: C_12  and  N_13
REMARK    6  A    between atoms: N_16  and  C_17
REMARK    7  A    between atoms: C_17  and  N_18
REMARK                            x       y       z     vdW  Elec       q    Type
REMARK                         _______ _______ _______ _____ _____    ______ ____
ROOT
ATOM      1  C   UNL     1       1.488   8.510  20.819  0.00  0.00    +0.000 C 
ENDROOT
BRANCH   1   2
ATOM      2  N   UNL     1       0.061   8.917  20.770  0.00  0.00    +0.000 NA
ATOM      3  C   UNL     1      -0.522   8.745  22.132  0.00  0.00    +0.000 C 
ATOM      4  C   UNL     1      -0.071   9.798  23.190  0.00  0.00    +0.000 C 
ATOM      5  N   UNL     1      -0.247  11.208  22.775  0.00  0.00    +0.000 NA
ATOM      6  C   UNL     1       0.347  11.376  21.433  0.00  0.00    +0.000 C 
ATOM      7  C   UNL     1      -0.117  10.339  20.381  0.00  0.00    +0.000 C 
BRANCH   5   8
ATOM      8  C   UNL     1      -1.670  11.571  22.849  0.00  0.00    +0.000 C 
BRANCH   8   9
ATOM      9  N   UNL     1      -1.868  12.873  23.483  0.00  0.00    +0.000 N 
ATOM     10  N   UNL     1      -0.795  13.750  23.496  0.00  0.00    +0.000 NA
ATOM     11  C   UNL     1      -1.129  14.847  24.087  0.00  0.00    +0.000 A 
ATOM     12  S   UNL     1      -2.762  14.958  24.665  0.00  0.00    +0.000 S 
ATOM     13  C   UNL     1      -3.048  13.341  24.039  0.00  0.00    +0.000 A 
ATOM     14  S   UNL     1      -4.539  12.600  24.114  0.00  0.00    +0.000 S 
ENDBRANCH   8   9
ENDBRANCH   5   8
ENDBRANCH   1   2
BRANCH   1  16
ATOM     15  N   UNL     1       2.148   6.221  20.146  0.00  0.00    +0.000 N 
ATOM     16  C   UNL     1       1.918   7.517  19.738  0.00  0.00    +0.000 C 
ATOM     17  O   UNL     1       2.107   7.952  18.598  0.00  0.00    +0.000 OA
ATOM     18  H   UNL     1       2.087   6.070  21.144  0.00  0.00    +0.000 HD
BRANCH  15  24
ATOM     19  C   UNL     1       3.839   4.933  18.895  0.00  0.00    +0.000 A 
ATOM     20  C   UNL     1       4.153   3.840  18.056  0.00  0.00    +0.000 A 
ATOM     21  C   UNL     1       3.171   2.953  17.623  0.00  0.00    +0.000 A 
ATOM     22  C   UNL     1       1.861   3.138  18.034  0.00  0.00    +0.000 A 
ATOM     23  C   UNL     1       1.538   4.203  18.876  0.00  0.00    +0.000 A 
ATOM     24  C   UNL     1       2.503   5.126  19.310  0.00  0.00    +0.000 A 
BRANCH  19  26
ATOM     25  C   UNL     1       6.293   5.198  19.217  0.00  0.00    +0.000 C 
ATOM     26  C   UNL     1       4.952   5.917  19.170  0.00  0.00    +0.000 C 
ENDBRANCH  19  26
ENDBRANCH  15  24
ENDBRANCH   1  16
TORSDOF 6
ENDMDL
MODEL 8
REMARK VINA RESULT:      -6.4      3.186      4.079
REMARK  Name = 
REMARK  7 active torsions:
REMARK  status: ('A' for Active; 'I' for Inactive)
REMARK    1  A    between atoms: C_1  and  C_2
REMARK    2  A    between atoms: C_2  and  C_3
REMARK    3  A    between atoms: C_8  and  N_9
REMARK    4  A    between atoms: C_10  and  C_12
REMARK    5  A    between atoms: C_12  and  N_13
REMARK    6  A    between atoms: N_16  and  C_17
REMARK    7  A    between atoms: C_17  and  N_18
REMARK                            x       y       z     vdW  Elec       q    Type
REMARK                         _______ _______ _______ _____ _____    ______ ____
ROOT
ATOM      1  C   UNL     1       2.106   9.086  19.287  0.00  0.00    +0.000 C 
ENDROOT
BRANCH   1   2
ATOM      2  N   UNL     1       1.516   9.889  18.186  0.00  0.00    +0.000 NA
ATOM      3  C   UNL     1       0.068   9.549  18.082  0.00  0.00    +0.000 C 
ATOM      4  C   UNL     1      -0.835  10.114  19.220  0.00  0.00    +0.000 C 
ATOM      5  N   UNL     1      -0.707  11.571  19.447  0.00  0.00    +0.000 NA
ATOM      6  C   UNL     1       0.728  11.900  19.565  0.00  0.00    +0.000 C 
ATOM      7  C   UNL     1       1.619  11.351  18.424  0.00  0.00    +0.000 C 
BRANCH   5   8
ATOM      8  C   UNL     1      -1.400  12.301  18.375  0.00  0.00    +0.000 C 
BRANCH   8   9
ATOM      9  N   UNL     1      -2.827  11.989  18.336  0.00  0.00    +0.000 N 
ATOM     10  N   UNL     1      -3.598  12.378  19.420  0.00  0.00    +0.000 NA
ATOM     11  C   UNL     1      -4.827  12.033  19.234  0.00  0.00    +0.000 A 
ATOM     12  S   UNL     1      -5.196  11.235  17.738  0.00  0.00    +0.000 S 
ATOM     13  C   UNL     1      -3.503  11.378  17.293  0.00  0.00    +0.000 A 
ATOM     14  S   UNL     1      -2.917  10.869  15.818  0.00  0.00    +0.000 S 
ENDBRANCH   8   9
ENDBRANCH   5   8
ENDBRANCH   1   2
BRANCH   1  16
ATOM     15  N   UNL     1       2.279   6.767  20.136  0.00  0.00    +0.000 N 
ATOM     16  C   UNL     1       2.176   7.581  19.028  0.00  0.00    +0.000 C 
ATOM     17  O   UNL     1       2.217   7.199  17.855  0.00  0.00    +0.000 OA
ATOM     18  H   UNL     1       2.380   7.255  21.016  0.00  0.00    +0.000 HD
BRANCH  15  24
ATOM     19  C   UNL     1       3.487   4.642  19.812  0.00  0.00    +0.000 A 
ATOM     20  C   UNL     1       3.475   3.228  19.812  0.00  0.00    +0.000 A 
ATOM     21  C   UNL     1       2.320   2.514  20.118  0.00  0.00    +0.000 A 
ATOM     22  C   UNL     1       1.161   3.202  20.442  0.00  0.00    +0.000 A 
ATOM     23  C   UNL     1       1.163   4.599  20.462  0.00  0.00    +0.000 A 
ATOM     24  C   UNL     1       2.307   5.345  20.136  0.00  0.00    +0.000 A 
BRANCH  19  26
ATOM     25  C   UNL     1       5.024   4.901  17.871  0.00  0.00    +0.000 C 
ATOM     26  C   UNL     1       4.748   5.307  19.312  0.00  0.00    +0.000 C 
ENDBRANCH  19  26
ENDBRANCH  15  24
ENDBRANCH   1  16
TORSDOF 6
ENDMDL
MODEL 9
REMARK VINA RESULT:      -6.4      1.521      1.910
REMARK  Name = 
REMARK  7 active torsions:
REMARK  status: ('A' for Active; 'I' for Inactive)
REMARK    1  A    between atoms: C_1  and  C_2
REMARK    2  A    between atoms: C_2  and  C_3
REMARK    3  A    between atoms: C_8  and  N_9
REMARK    4  A    between atoms: C_10  and  C_12
REMARK    5  A    between atoms: C_12  and  N_13
REMARK    6  A    between atoms: N_16  and  C_17
REMARK    7  A    between atoms: C_17  and  N_18
REMARK                            x       y       z     vdW  Elec       q    Type
REMARK                         _______ _______ _______ _____ _____    ______ ____
ROOT
ATOM      1  C   UNL     1       1.057   7.298  20.962  0.00  0.00    +0.000 C 
ENDROOT
BRANCH   1   2
ATOM      2  N   UNL     1       1.652   8.655  21.058  0.00  0.00    +0.000 NA
ATOM      3  C   UNL     1       1.051   9.506  19.991  0.00  0.00    +0.000 C 
ATOM      4  C   UNL     1      -0.427   9.940  20.234  0.00  0.00    +0.000 C 
ATOM      5  N   UNL     1      -0.677  10.580  21.545  0.00  0.00    +0.000 NA
ATOM      6  C   UNL     1      -0.093   9.724  22.600  0.00  0.00    +0.000 C 
ATOM      7  C   UNL     1       1.379   9.310  22.362  0.00  0.00    +0.000 C 
BRANCH   5   8
ATOM      8  C   UNL     1      -0.153  11.954  21.534  0.00  0.00    +0.000 C 
BRANCH   8   9
ATOM      9  N   UNL     1      -1.038  12.881  22.235  0.00  0.00    +0.000 N 
ATOM     10  N   UNL     1      -0.554  13.481  23.388  0.00  0.00    +0.000 NA
ATOM     11  C   UNL     1      -1.448  14.267  23.885  0.00  0.00    +0.000 A 
ATOM     12  S   UNL     1      -2.946  14.394  23.017  0.00  0.00    +0.000 S 
ATOM     13  C   UNL     1      -2.308  13.261  21.835  0.00  0.00    +0.000 A 
ATOM     14  S   UNL     1      -3.156  12.816  20.471  0.00  0.00    +0.000 S 
ENDBRANCH   8   9
ENDBRANCH   5   8
ENDBRANCH   1   2
BRANCH   1  16
ATOM     15  N   UNL     1       2.426   6.451  19.082  0.00  0.00    +0.000 N 
ATOM     16  C   UNL     1       1.972   6.229  20.364  0.00  0.00    +0.000 C 
ATOM     17  O   UNL     1       2.179   5.209  21.029  0.00  0.00    +0.000 OA
ATOM     18  H   UNL     1       2.041   7.269  18.628  0.00  0.00    +0.000 HD
BRANCH  15  24
ATOM     19  C   UNL     1       2.852   4.500  17.634  0.00  0.00    +0.000 A 
ATOM     20  C   UNL     1       3.773   3.693  16.928  0.00  0.00    +0.000 A 
ATOM     21  C   UNL     1       5.136   3.977  16.930  0.00  0.00    +0.000 A 
ATOM     22  C   UNL     1       5.598   5.081  17.628  0.00  0.00    +0.000 A 
ATOM     23  C   UNL     1       4.698   5.897  18.317  0.00  0.00    +0.000 A 
ATOM     24  C   UNL     1       3.322   5.622  18.351  0.00  0.00    +0.000 A 
BRANCH  19  26
ATOM     25  C   UNL     1       1.333   2.753  18.550  0.00  0.00    +0.000 C 
ATOM     26  C   UNL     1       1.426   4.007  17.691  0.00  0.00    +0.000 C 
ENDBRANCH  19  26
ENDBRANCH  15  24
ENDBRANCH   1  16
TORSDOF 6
ENDMDL
