MODEL 1
REMARK VINA RESULT:      -8.3      0.000      0.000
REMARK  Name = 
REMARK  9 active torsions:
REMARK  status: ('A' for Active; 'I' for Inactive)
REMARK    1  A    between atoms: C_1  and  C_2
REMARK    2  A    between atoms: C_4  and  C_5
REMARK    3  A    between atoms: C_14  and  C_15
REMARK    4  A    between atoms: C_15  and  O_17
REMARK    5  A    between atoms: N_19  and  C_20
REMARK    6  A    between atoms: C_24  and  C_25
REMARK    7  A    between atoms: C_25  and  N_26
REMARK    8  A    between atoms: N_26  and  C_27
REMARK    9  A    between atoms: N_26  and  C_28
REMARK                            x       y       z     vdW  Elec       q    Type
REMARK                         _______ _______ _______ _____ _____    ______ ____
ROOT
ATOM      1  C   UNL     1       1.786   8.490  19.093  0.00  0.00    +0.000 A 
ATOM      2  C   UNL     1       2.122   7.187  19.527  0.00  0.00    +0.000 A 
ATOM      3  C   UNL     1       3.111   6.419  18.893  0.00  0.00    +0.000 A 
ATOM      4  C   UNL     1       3.750   6.971  17.770  0.00  0.00    +0.000 A 
ATOM      5  C   UNL     1       3.403   8.230  17.280  0.00  0.00    +0.000 A 
ATOM      6  C   UNL     1       2.442   8.974  17.946  0.00  0.00    +0.000 A 
ATOM      7  F   UNL     1       2.191  10.206  17.479  0.00  0.00    +0.000 F 
ATOM      8  C   UNL     1       4.853   6.237  17.121  0.00  0.00    +0.000 A 
ATOM      9  O   UNL     1       5.392   6.658  16.100  0.00  0.00    +0.000 OA
ATOM     10  C   UNL     1       5.340   4.999  17.763  0.00  0.00    +0.000 A 
ATOM     11  C   UNL     1       4.642   4.541  18.815  0.00  0.00    +0.000 A 
ATOM     12  N   UNL     1       3.504   5.127  19.350  0.00  0.00    +0.000 N 
ENDROOT
BRANCH   1  16
ATOM     13  C   UNL     1      -0.461   9.833  23.386  0.00  0.00    +0.000 C 
ATOM     14  C   UNL     1      -0.296   9.951  21.900  0.00  0.00    +0.000 A 
ATOM     15  C   UNL     1       0.666   9.198  21.236  0.00  0.00    +0.000 A 
ATOM     16  C   UNL     1       0.829   9.326  19.851  0.00  0.00    +0.000 A 
ATOM     17  C   UNL     1      -0.001  10.252  19.201  0.00  0.00    +0.000 A 
ATOM     18  C   UNL     1      -0.964  10.955  19.922  0.00  0.00    +0.000 A 
ATOM     19  N   UNL     1      -1.111  10.821  21.262  0.00  0.00    +0.000 NA
BRANCH  18  20
ATOM     20  C   UNL     1      -1.929  11.882  19.198  0.00  0.00    +0.000 C 
BRANCH  20  21
ATOM     21  N   UNL     1      -2.959  11.185  18.389  0.00  0.00    +0.000 NA
ATOM     22  C   UNL     1      -4.292  11.759  18.615  0.00  0.00    +0.000 C 
ATOM     23  C   UNL     1      -2.622  11.292  16.968  0.00  0.00    +0.000 C 
ENDBRANCH  20  21
ENDBRANCH  18  20
ENDBRANCH   1  16
BRANCH  12  24
ATOM     24  C   UNL     1       2.908   4.507  20.552  0.00  0.00    +0.000 C 
ATOM     25  C   UNL     1       1.447   4.135  20.631  0.00  0.00    +0.000 C 
ATOM     26  C   UNL     1       2.481   3.058  20.558  0.00  0.00    +0.000 C 
ENDBRANCH  12  24
BRANCH  10  27
ATOM     27  C   UNL     1       6.543   4.275  17.309  0.00  0.00    +0.000 C 
ATOM     28  O   UNL     1       7.613   4.317  17.900  0.00  0.00    +0.000 OA
BRANCH  27  29
ATOM     29  O   UNL     1       6.378   3.564  16.172  0.00  0.00    +0.000 OA
ATOM     30  H   UNL     1       5.554   3.786  15.671  0.00  0.00    +0.000 HD
ENDBRANCH  27  29
ENDBRANCH  10  27
TORSDOF 6
ENDMDL
MODEL 2
REMARK VINA RESULT:      -8.3      2.390      3.520
REMARK  Name = 
REMARK  9 active torsions:
REMARK  status: ('A' for Active; 'I' for Inactive)
REMARK    1  A    between atoms: C_1  and  C_2
REMARK    2  A    between atoms: C_4  and  C_5
REMARK    3  A    between atoms: C_14  and  C_15
REMARK    4  A    between atoms: C_15  and  O_17
REMARK    5  A    between atoms: N_19  and  C_20
REMARK    6  A    between atoms: C_24  and  C_25
REMARK    7  A    between atoms: C_25  and  N_26
REMARK    8  A    between atoms: N_26  and  C_27
REMARK    9  A    between atoms: N_26  and  C_28
REMARK                            x       y       z     vdW  Elec       q    Type
REMARK                         _______ _______ _______ _____ _____    ______ ____
ROOT
ATOM      1  C   UNL     1       1.414   8.455  19.775  0.00  0.00    +0.000 A 
ATOM      2  C   UNL     1       2.423   7.926  18.936  0.00  0.00    +0.000 A 
ATOM      3  C   UNL     1       2.895   6.612  19.071  0.00  0.00    +0.000 A 
ATOM      4  C   UNL     1       2.358   5.825  20.104  0.00  0.00    +0.000 A 
ATOM      5  C   UNL     1       1.403   6.333  20.986  0.00  0.00    +0.000 A 
ATOM      6  C   UNL     1       0.938   7.625  20.807  0.00  0.00    +0.000 A 
ATOM      7  F   UNL     1      -0.029   8.046  21.636  0.00  0.00    +0.000 F 
ATOM      8  C   UNL     1       2.761   4.411  20.233  0.00  0.00    +0.000 A 
ATOM      9  O   UNL     1       2.362   3.711  21.161  0.00  0.00    +0.000 OA
ATOM     10  C   UNL     1       3.621   3.832  19.181  0.00  0.00    +0.000 A 
ATOM     11  C   UNL     1       4.104   4.675  18.255  0.00  0.00    +0.000 A 
ATOM     12  N   UNL     1       3.868   6.042  18.200  0.00  0.00    +0.000 N 
ENDROOT
BRANCH   1  16
ATOM     13  C   UNL     1       1.050  13.347  20.876  0.00  0.00    +0.000 C 
ATOM     14  C   UNL     1       0.625  12.146  20.085  0.00  0.00    +0.000 A 
ATOM     15  C   UNL     1       1.234  10.914  20.291  0.00  0.00    +0.000 A 
ATOM     16  C   UNL     1       0.847   9.800  19.536  0.00  0.00    +0.000 A 
ATOM     17  C   UNL     1      -0.151  10.008  18.573  0.00  0.00    +0.000 A 
ATOM     18  C   UNL     1      -0.741  11.262  18.435  0.00  0.00    +0.000 A 
ATOM     19  N   UNL     1      -0.356  12.332  19.173  0.00  0.00    +0.000 NA
BRANCH  18  20
ATOM     20  C   UNL     1      -1.892  11.459  17.460  0.00  0.00    +0.000 C 
BRANCH  20  21
ATOM     21  N   UNL     1      -2.368  10.212  16.813  0.00  0.00    +0.000 NA
ATOM     22  C   UNL     1      -3.511   9.640  17.536  0.00  0.00    +0.000 C 
ATOM     23  C   UNL     1      -2.766  10.496  15.432  0.00  0.00    +0.000 C 
ENDBRANCH  20  21
ENDBRANCH  18  20
ENDBRANCH   1  16
BRANCH  12  24
ATOM     24  C   UNL     1       4.440   6.796  17.065  0.00  0.00    +0.000 C 
ATOM     25  C   UNL     1       5.928   6.963  16.872  0.00  0.00    +0.000 C 
ATOM     26  C   UNL     1       5.154   6.092  15.934  0.00  0.00    +0.000 C 
ENDBRANCH  12  24
BRANCH  10  27
ATOM     27  C   UNL     1       3.946   2.395  19.107  0.00  0.00    +0.000 C 
ATOM     28  O   UNL     1       3.390   1.621  18.341  0.00  0.00    +0.000 OA
BRANCH  27  29
ATOM     29  O   UNL     1       4.907   1.989  19.966  0.00  0.00    +0.000 OA
ATOM     30  H   UNL     1       5.826   2.047  19.603  0.00  0.00    +0.000 HD
ENDBRANCH  27  29
ENDBRANCH  10  27
TORSDOF 6
ENDMDL
MODEL 3
REMARK VINA RESULT:      -8.2      0.922      1.215
REMARK  Name = 
REMARK  9 active torsions:
REMARK  status: ('A' for Active; 'I' for Inactive)
REMARK    1  A    between atoms: C_1  and  C_2
REMARK    2  A    between atoms: C_4  and  C_5
REMARK    3  A    between atoms: C_14  and  C_15
REMARK    4  A    between atoms: C_15  and  O_17
REMARK    5  A    between atoms: N_19  and  C_20
REMARK    6  A    between atoms: C_24  and  C_25
REMARK    7  A    between atoms: C_25  and  N_26
REMARK    8  A    between atoms: N_26  and  C_27
REMARK    9  A    between atoms: N_26  and  C_28
REMARK                            x       y       z     vdW  Elec       q    Type
REMARK                         _______ _______ _______ _____ _____    ______ ____
ROOT
ATOM      1  C   UNL     1       1.909   8.362  19.093  0.00  0.00    +0.000 A 
ATOM      2  C   UNL     1       2.263   7.036  19.435  0.00  0.00    +0.000 A 
ATOM      3  C   UNL     1       3.194   6.295  18.691  0.00  0.00    +0.000 A 
ATOM      4  C   UNL     1       3.753   6.899  17.552  0.00  0.00    +0.000 A 
ATOM      5  C   UNL     1       3.384   8.184  17.153  0.00  0.00    +0.000 A 
ATOM      6  C   UNL     1       2.483   8.899  17.926  0.00  0.00    +0.000 A 
ATOM      7  F   UNL     1       2.210  10.154  17.542  0.00  0.00    +0.000 F 
ATOM      8  C   UNL     1       4.798   6.192  16.787  0.00  0.00    +0.000 A 
ATOM      9  O   UNL     1       5.264   6.661  15.751  0.00  0.00    +0.000 OA
ATOM     10  C   UNL     1       5.319   4.920  17.327  0.00  0.00    +0.000 A 
ATOM     11  C   UNL     1       4.697   4.414  18.403  0.00  0.00    +0.000 A 
ATOM     12  N   UNL     1       3.607   4.979  19.052  0.00  0.00    +0.000 N 
ENDROOT
BRANCH   1  16
ATOM     13  C   UNL     1      -0.020   9.479  23.599  0.00  0.00    +0.000 C 
ATOM     14  C   UNL     1       0.046   9.682  22.115  0.00  0.00    +0.000 A 
ATOM     15  C   UNL     1       0.947   8.957  21.344  0.00  0.00    +0.000 A 
ATOM     16  C   UNL     1       1.019   9.164  19.961  0.00  0.00    +0.000 A 
ATOM     17  C   UNL     1       0.163  10.137  19.425  0.00  0.00    +0.000 A 
ATOM     18  C   UNL     1      -0.737  10.809  20.248  0.00  0.00    +0.000 A 
ATOM     19  N   UNL     1      -0.796  10.598  21.586  0.00  0.00    +0.000 NA
BRANCH  18  20
ATOM     20  C   UNL     1      -1.733  11.789  19.647  0.00  0.00    +0.000 C 
BRANCH  20  21
ATOM     21  N   UNL     1      -2.362  12.705  20.630  0.00  0.00    +0.000 NA
ATOM     22  C   UNL     1      -1.729  14.030  20.604  0.00  0.00    +0.000 C 
ATOM     23  C   UNL     1      -3.788  12.846  20.327  0.00  0.00    +0.000 C 
ENDBRANCH  20  21
ENDBRANCH  18  20
ENDBRANCH   1  16
BRANCH  12  24
ATOM     24  C   UNL     1       3.097   4.302  20.262  0.00  0.00    +0.000 C 
ATOM     25  C   UNL     1       1.649   3.901  20.414  0.00  0.00    +0.000 C 
ATOM     26  C   UNL     1       2.694   2.846  20.237  0.00  0.00    +0.000 C 
ENDBRANCH  12  24
BRANCH  10  27
ATOM     27  C   UNL     1       6.478   4.213  16.748  0.00  0.00    +0.000 C 
ATOM     28  O   UNL     1       7.635   4.465  17.051  0.00  0.00    +0.000 OA
BRANCH  27  29
ATOM     29  O   UNL     1       6.163   3.264  15.840  0.00  0.00    +0.000 OA
ATOM     30  H   UNL     1       6.882   3.072  15.188  0.00  0.00    +0.000 HD
ENDBRANCH  27  29
ENDBRANCH  10  27
TORSDOF 6
ENDMDL
MODEL 4
REMARK VINA RESULT:      -7.8      2.881      4.375
REMARK  Name = 
REMARK  9 active torsions:
REMARK  status: ('A' for Active; 'I' for Inactive)
REMARK    1  A    between atoms: C_1  and  C_2
REMARK    2  A    between atoms: C_4  and  C_5
REMARK    3  A    between atoms: C_14  and  C_15
REMARK    4  A    between atoms: C_15  and  O_17
REMARK    5  A    between atoms: N_19  and  C_20
REMARK    6  A    between atoms: C_24  and  C_25
REMARK    7  A    between atoms: C_25  and  N_26
REMARK    8  A    between atoms: N_26  and  C_27
REMARK    9  A    between atoms: N_26  and  C_28
REMARK                            x       y       z     vdW  Elec       q    Type
REMARK                         _______ _______ _______ _____ _____    ______ ____
ROOT
ATOM      1  C   UNL     1       1.330   8.477  19.734  0.00  0.00    +0.000 A 
ATOM      2  C   UNL     1       2.353   7.945  18.914  0.00  0.00    +0.000 A 
ATOM      3  C   UNL     1       2.849   6.644  19.087  0.00  0.00    +0.000 A 
ATOM      4  C   UNL     1       2.322   5.875  20.138  0.00  0.00    +0.000 A 
ATOM      5  C   UNL     1       1.354   6.388  21.002  0.00  0.00    +0.000 A 
ATOM      6  C   UNL     1       0.865   7.666  20.786  0.00  0.00    +0.000 A 
ATOM      7  F   UNL     1      -0.114   8.091  21.599  0.00  0.00    +0.000 F 
ATOM      8  C   UNL     1       2.752   4.474  20.308  0.00  0.00    +0.000 A 
ATOM      9  O   UNL     1       2.362   3.792  21.253  0.00  0.00    +0.000 OA
ATOM     10  C   UNL     1       3.628   3.883  19.276  0.00  0.00    +0.000 A 
ATOM     11  C   UNL     1       4.099   4.710  18.329  0.00  0.00    +0.000 A 
ATOM     12  N   UNL     1       3.838   6.070  18.235  0.00  0.00    +0.000 N 
ENDROOT
BRANCH   1  16
ATOM     13  C   UNL     1      -2.073  11.398  17.462  0.00  0.00    +0.000 C 
ATOM     14  C   UNL     1      -0.863  11.228  18.331  0.00  0.00    +0.000 A 
ATOM     15  C   UNL     1      -0.380   9.958  18.626  0.00  0.00    +0.000 A 
ATOM     16  C   UNL     1       0.738   9.803  19.455  0.00  0.00    +0.000 A 
ATOM     17  C   UNL     1       1.309  10.977  19.969  0.00  0.00    +0.000 A 
ATOM     18  C   UNL     1       0.793  12.221  19.612  0.00  0.00    +0.000 A 
ATOM     19  N   UNL     1      -0.290  12.356  18.808  0.00  0.00    +0.000 NA
BRANCH  18  20
ATOM     20  C   UNL     1       1.477  13.494  20.089  0.00  0.00    +0.000 C 
BRANCH  20  21
ATOM     21  N   UNL     1       2.845  13.694  19.551  0.00  0.00    +0.000 NA
ATOM     22  C   UNL     1       2.816  14.446  18.290  0.00  0.00    +0.000 C 
ATOM     23  C   UNL     1       3.655  14.424  20.529  0.00  0.00    +0.000 C 
ENDBRANCH  20  21
ENDBRANCH  18  20
ENDBRANCH   1  16
BRANCH  12  24
ATOM     24  C   UNL     1       4.400   6.803  17.082  0.00  0.00    +0.000 C 
ATOM     25  C   UNL     1       5.886   6.994  16.892  0.00  0.00    +0.000 C 
ATOM     26  C   UNL     1       5.134   6.083  15.975  0.00  0.00    +0.000 C 
ENDBRANCH  12  24
BRANCH  10  27
ATOM     27  C   UNL     1       3.981   2.450  19.242  0.00  0.00    +0.000 C 
ATOM     28  O   UNL     1       3.409   1.636  18.532  0.00  0.00    +0.000 OA
BRANCH  27  29
ATOM     29  O   UNL     1       4.988   2.099  20.072  0.00  0.00    +0.000 OA
ATOM     30  H   UNL     1       5.851   1.938  19.617  0.00  0.00    +0.000 HD
ENDBRANCH  27  29
ENDBRANCH  10  27
TORSDOF 6
ENDMDL
MODEL 5
REMARK VINA RESULT:      -7.8      1.477      2.601
REMARK  Name = 
REMARK  9 active torsions:
REMARK  status: ('A' for Active; 'I' for Inactive)
REMARK    1  A    between atoms: C_1  and  C_2
REMARK    2  A    between atoms: C_4  and  C_5
REMARK    3  A    between atoms: C_14  and  C_15
REMARK    4  A    between atoms: C_15  and  O_17
REMARK    5  A    between atoms: N_19  and  C_20
REMARK    6  A    between atoms: C_24  and  C_25
REMARK    7  A    between atoms: C_25  and  N_26
REMARK    8  A    between atoms: N_26  and  C_27
REMARK    9  A    between atoms: N_26  and  C_28
REMARK                            x       y       z     vdW  Elec       q    Type
REMARK                         _______ _______ _______ _____ _____    ______ ____
ROOT
ATOM      1  C   UNL     1       1.233   8.989  18.868  0.00  0.00    +0.000 A 
ATOM      2  C   UNL     1       1.448   7.711  19.435  0.00  0.00    +0.000 A 
ATOM      3  C   UNL     1       2.531   6.900  19.063  0.00  0.00    +0.000 A 
ATOM      4  C   UNL     1       3.398   7.380  18.066  0.00  0.00    +0.000 A 
ATOM      5  C   UNL     1       3.183   8.611  17.445  0.00  0.00    +0.000 A 
ATOM      6  C   UNL     1       2.121   9.400  17.856  0.00  0.00    +0.000 A 
ATOM      7  F   UNL     1       1.995  10.604  17.279  0.00  0.00    +0.000 F 
ATOM      8  C   UNL     1       4.597   6.602  17.701  0.00  0.00    +0.000 A 
ATOM      9  O   UNL     1       5.342   6.958  16.791  0.00  0.00    +0.000 OA
ATOM     10  C   UNL     1       4.918   5.400  18.498  0.00  0.00    +0.000 A 
ATOM     11  C   UNL     1       4.011   5.011  19.407  0.00  0.00    +0.000 A 
ATOM     12  N   UNL     1       2.798   5.635  19.663  0.00  0.00    +0.000 N 
ENDROOT
BRANCH   1  16
ATOM     13  C   UNL     1      -2.955  11.672  18.139  0.00  0.00    +0.000 C 
ATOM     14  C   UNL     1      -1.831  11.210  19.017  0.00  0.00    +0.000 A 
ATOM     15  C   UNL     1      -0.879  10.320  18.533  0.00  0.00    +0.000 A 
ATOM     16  C   UNL     1       0.157   9.875  19.364  0.00  0.00    +0.000 A 
ATOM     17  C   UNL     1       0.159  10.356  20.681  0.00  0.00    +0.000 A 
ATOM     18  C   UNL     1      -0.808  11.268  21.095  0.00  0.00    +0.000 A 
ATOM     19  N   UNL     1      -1.806  11.690  20.281  0.00  0.00    +0.000 NA
BRANCH  18  20
ATOM     20  C   UNL     1      -0.743  11.865  22.493  0.00  0.00    +0.000 C 
BRANCH  20  21
ATOM     21  N   UNL     1      -1.823  12.835  22.797  0.00  0.00    +0.000 NA
ATOM     22  C   UNL     1      -2.904  12.206  23.567  0.00  0.00    +0.000 C 
ATOM     23  C   UNL     1      -1.274  13.956  23.564  0.00  0.00    +0.000 C 
ENDBRANCH  20  21
ENDBRANCH  18  20
ENDBRANCH   1  16
BRANCH  12  24
ATOM     24  C   UNL     1       1.956   5.091  20.749  0.00  0.00    +0.000 C 
ATOM     25  C   UNL     1       0.973   3.967  20.524  0.00  0.00    +0.000 C 
ATOM     26  C   UNL     1       2.210   3.718  21.327  0.00  0.00    +0.000 C 
ENDBRANCH  12  24
BRANCH  10  27
ATOM     27  C   UNL     1       6.175   4.643  18.343  0.00  0.00    +0.000 C 
ATOM     28  O   UNL     1       7.096   4.702  19.146  0.00  0.00    +0.000 OA
BRANCH  27  29
ATOM     29  O   UNL     1       6.239   3.878  17.231  0.00  0.00    +0.000 OA
ATOM     30  H   UNL     1       5.669   3.070  17.261  0.00  0.00    +0.000 HD
ENDBRANCH  27  29
ENDBRANCH  10  27
TORSDOF 6
ENDMDL
MODEL 6
REMARK VINA RESULT:      -7.8      3.428      7.959
REMARK  Name = 
REMARK  9 active torsions:
REMARK  status: ('A' for Active; 'I' for Inactive)
REMARK    1  A    between atoms: C_1  and  C_2
REMARK    2  A    between atoms: C_4  and  C_5
REMARK    3  A    between atoms: C_14  and  C_15
REMARK    4  A    between atoms: C_15  and  O_17
REMARK    5  A    between atoms: N_19  and  C_20
REMARK    6  A    between atoms: C_24  and  C_25
REMARK    7  A    between atoms: C_25  and  N_26
REMARK    8  A    between atoms: N_26  and  C_27
REMARK    9  A    between atoms: N_26  and  C_28
REMARK                            x       y       z     vdW  Elec       q    Type
REMARK                         _______ _______ _______ _____ _____    ______ ____
ROOT
ATOM      1  C   UNL     1       2.197   7.550  19.254  0.00  0.00    +0.000 A 
ATOM      2  C   UNL     1       1.374   8.206  20.200  0.00  0.00    +0.000 A 
ATOM      3  C   UNL     1       0.972   9.541  20.043  0.00  0.00    +0.000 A 
ATOM      4  C   UNL     1       1.444  10.241  18.919  0.00  0.00    +0.000 A 
ATOM      5  C   UNL     1       2.303   9.643  17.997  0.00  0.00    +0.000 A 
ATOM      6  C   UNL     1       2.658   8.314  18.166  0.00  0.00    +0.000 A 
ATOM      7  F   UNL     1       3.430   7.762  17.218  0.00  0.00    +0.000 F 
ATOM      8  C   UNL     1       0.982  11.619  18.667  0.00  0.00    +0.000 A 
ATOM      9  O   UNL     1       1.422  12.283  17.732  0.00  0.00    +0.000 OA
ATOM     10  C   UNL     1      -0.073  12.172  19.540  0.00  0.00    +0.000 A 
ATOM     11  C   UNL     1      -0.434  11.435  20.603  0.00  0.00    +0.000 A 
ATOM     12  N   UNL     1       0.097  10.202  20.954  0.00  0.00    +0.000 N 
ENDROOT
BRANCH   1  16
ATOM     13  C   UNL     1       1.373   3.021  21.275  0.00  0.00    +0.000 C 
ATOM     14  C   UNL     1       2.154   3.933  20.377  0.00  0.00    +0.000 A 
ATOM     15  C   UNL     1       1.786   5.266  20.234  0.00  0.00    +0.000 A 
ATOM     16  C   UNL     1       2.506   6.109  19.378  0.00  0.00    +0.000 A 
ATOM     17  C   UNL     1       3.577   5.532  18.680  0.00  0.00    +0.000 A 
ATOM     18  C   UNL     1       3.911   4.196  18.890  0.00  0.00    +0.000 A 
ATOM     19  N   UNL     1       3.205   3.392  19.721  0.00  0.00    +0.000 NA
BRANCH  18  20
ATOM     20  C   UNL     1       5.134   3.602  18.208  0.00  0.00    +0.000 C 
BRANCH  20  21
ATOM     21  N   UNL     1       5.834   4.529  17.286  0.00  0.00    +0.000 NA
ATOM     22  C   UNL     1       7.242   4.699  17.669  0.00  0.00    +0.000 C 
ATOM     23  C   UNL     1       5.766   4.006  15.919  0.00  0.00    +0.000 C 
ENDBRANCH  20  21
ENDBRANCH  18  20
ENDBRANCH   1  16
BRANCH  12  24
ATOM     24  C   UNL     1      -0.474   9.514  22.130  0.00  0.00    +0.000 C 
ATOM     25  C   UNL     1       0.233   9.466  23.463  0.00  0.00    +0.000 C 
ATOM     26  C   UNL     1      -1.007  10.288  23.313  0.00  0.00    +0.000 C 
ENDBRANCH  12  24
BRANCH  10  27
ATOM     27  C   UNL     1      -0.737  13.465  19.283  0.00  0.00    +0.000 C 
ATOM     28  O   UNL     1      -1.042  14.249  20.170  0.00  0.00    +0.000 OA
BRANCH  27  29
ATOM     29  O   UNL     1      -0.996  13.716  17.981  0.00  0.00    +0.000 OA
ATOM     30  H   UNL     1      -1.353  14.622  17.806  0.00  0.00    +0.000 HD
ENDBRANCH  27  29
ENDBRANCH  10  27
TORSDOF 6
ENDMDL
MODEL 7
REMARK VINA RESULT:      -7.8      4.223      8.594
REMARK  Name = 
REMARK  9 active torsions:
REMARK  status: ('A' for Active; 'I' for Inactive)
REMARK    1  A    between atoms: C_1  and  C_2
REMARK    2  A    between atoms: C_4  and  C_5
REMARK    3  A    between atoms: C_14  and  C_15
REMARK    4  A    between atoms: C_15  and  O_17
REMARK    5  A    between atoms: N_19  and  C_20
REMARK    6  A    between atoms: C_24  and  C_25
REMARK    7  A    between atoms: C_25  and  N_26
REMARK    8  A    between atoms: N_26  and  C_27
REMARK    9  A    between atoms: N_26  and  C_28
REMARK                            x       y       z     vdW  Elec       q    Type
REMARK                         _______ _______ _______ _____ _____    ______ ____
ROOT
ATOM      1  C   UNL     1       1.846   7.624  19.475  0.00  0.00    +0.000 A 
ATOM      2  C   UNL     1       1.545   8.958  19.111  0.00  0.00    +0.000 A 
ATOM      3  C   UNL     1       0.844   9.826  19.962  0.00  0.00    +0.000 A 
ATOM      4  C   UNL     1       0.405   9.320  21.197  0.00  0.00    +0.000 A 
ATOM      5  C   UNL     1       0.633   7.993  21.564  0.00  0.00    +0.000 A 
ATOM      6  C   UNL     1       1.353   7.171  20.713  0.00  0.00    +0.000 A 
ATOM      7  F   UNL     1       1.607   5.925  21.138  0.00  0.00    +0.000 F 
ATOM      8  C   UNL     1      -0.263  10.217  22.160  0.00  0.00    +0.000 A 
ATOM      9  O   UNL     1      -0.717   9.797  23.221  0.00  0.00    +0.000 OA
ATOM     10  C   UNL     1      -0.326  11.658  21.843  0.00  0.00    +0.000 A 
ATOM     11  C   UNL     1       0.095  12.034  20.625  0.00  0.00    +0.000 A 
ATOM     12  N   UNL     1       0.582  11.189  19.638  0.00  0.00    +0.000 N 
ENDROOT
BRANCH   1  16
ATOM     13  C   UNL     1       2.792   3.257  17.172  0.00  0.00    +0.000 C 
ATOM     14  C   UNL     1       3.184   4.657  17.539  0.00  0.00    +0.000 A 
ATOM     15  C   UNL     1       2.328   5.454  18.291  0.00  0.00    +0.000 A 
ATOM     16  C   UNL     1       2.690   6.768  18.614  0.00  0.00    +0.000 A 
ATOM     17  C   UNL     1       3.926   7.219  18.128  0.00  0.00    +0.000 A 
ATOM     18  C   UNL     1       4.749   6.360  17.403  0.00  0.00    +0.000 A 
ATOM     19  N   UNL     1       4.386   5.091  17.098  0.00  0.00    +0.000 NA
BRANCH  18  20
ATOM     20  C   UNL     1       6.131   6.820  16.964  0.00  0.00    +0.000 C 
BRANCH  20  21
ATOM     21  N   UNL     1       7.016   7.250  18.075  0.00  0.00    +0.000 NA
ATOM     22  C   UNL     1       7.784   6.119  18.611  0.00  0.00    +0.000 C 
ATOM     23  C   UNL     1       7.943   8.277  17.594  0.00  0.00    +0.000 C 
ENDBRANCH  20  21
ENDBRANCH  18  20
ENDBRANCH   1  16
BRANCH  12  24
ATOM     24  C   UNL     1       1.056  11.799  18.378  0.00  0.00    +0.000 C 
ATOM     25  C   UNL     1       1.267  13.287  18.229  0.00  0.00    +0.000 C 
ATOM     26  C   UNL     1       2.449  12.372  18.257  0.00  0.00    +0.000 C 
ENDBRANCH  12  24
BRANCH  10  27
ATOM     27  C   UNL     1      -0.809  12.673  22.799  0.00  0.00    +0.000 C 
ATOM     28  O   UNL     1      -0.157  13.657  23.118  0.00  0.00    +0.000 OA
BRANCH  27  29
ATOM     29  O   UNL     1      -2.035  12.427  23.311  0.00  0.00    +0.000 OA
ATOM     30  H   UNL     1      -2.025  12.077  24.236  0.00  0.00    +0.000 HD
ENDBRANCH  27  29
ENDBRANCH  10  27
TORSDOF 6
ENDMDL
MODEL 8
REMARK VINA RESULT:      -7.8      2.436      3.776
REMARK  Name = 
REMARK  9 active torsions:
REMARK  status: ('A' for Active; 'I' for Inactive)
REMARK    1  A    between atoms: C_1  and  C_2
REMARK    2  A    between atoms: C_4  and  C_5
REMARK    3  A    between atoms: C_14  and  C_15
REMARK    4  A    between atoms: C_15  and  O_17
REMARK    5  A    between atoms: N_19  and  C_20
REMARK    6  A    between atoms: C_24  and  C_25
REMARK    7  A    between atoms: C_25  and  N_26
REMARK    8  A    between atoms: N_26  and  C_27
REMARK    9  A    between atoms: N_26  and  C_28
REMARK                            x       y       z     vdW  Elec       q    Type
REMARK                         _______ _______ _______ _____ _____    ______ ____
ROOT
ATOM      1  C   UNL     1       1.679   8.405  19.400  0.00  0.00    +0.000 A 
ATOM      2  C   UNL     1       2.627   7.763  18.570  0.00  0.00    +0.000 A 
ATOM      3  C   UNL     1       3.057   6.448  18.805  0.00  0.00    +0.000 A 
ATOM      4  C   UNL     1       2.541   5.779  19.928  0.00  0.00    +0.000 A 
ATOM      5  C   UNL     1       1.648   6.403  20.800  0.00  0.00    +0.000 A 
ATOM      6  C   UNL     1       1.222   7.692  20.524  0.00  0.00    +0.000 A 
ATOM      7  F   UNL     1       0.311   8.224  21.352  0.00  0.00    +0.000 F 
ATOM      8  C   UNL     1       2.899   4.368  20.169  0.00  0.00    +0.000 A 
ATOM      9  O   UNL     1       2.519   3.771  21.173  0.00  0.00    +0.000 OA
ATOM     10  C   UNL     1       3.687   3.662  19.138  0.00  0.00    +0.000 A 
ATOM     11  C   UNL     1       4.156   4.399  18.118  0.00  0.00    +0.000 A 
ATOM     12  N   UNL     1       3.968   5.763  17.948  0.00  0.00    +0.000 N 
ENDROOT
BRANCH   1  16
ATOM     13  C   UNL     1       2.355  13.218  18.114  0.00  0.00    +0.000 C 
ATOM     14  C   UNL     1       1.461  12.075  18.491  0.00  0.00    +0.000 A 
ATOM     15  C   UNL     1       1.992  10.813  18.731  0.00  0.00    +0.000 A 
ATOM     16  C   UNL     1       1.150   9.745  19.063  0.00  0.00    +0.000 A 
ATOM     17  C   UNL     1      -0.225  10.019  19.116  0.00  0.00    +0.000 A 
ATOM     18  C   UNL     1      -0.690  11.312  18.893  0.00  0.00    +0.000 A 
ATOM     19  N   UNL     1       0.136  12.337  18.572  0.00  0.00    +0.000 NA
BRANCH  18  20
ATOM     20  C   UNL     1      -2.170  11.627  19.051  0.00  0.00    +0.000 C 
BRANCH  20  21
ATOM     21  N   UNL     1      -2.472  12.655  20.077  0.00  0.00    +0.000 NA
ATOM     22  C   UNL     1      -3.919  12.878  20.197  0.00  0.00    +0.000 C 
ATOM     23  C   UNL     1      -1.941  12.226  21.373  0.00  0.00    +0.000 C 
ENDBRANCH  20  21
ENDBRANCH  18  20
ENDBRANCH   1  16
BRANCH  12  24
ATOM     24  C   UNL     1       4.512   6.388  16.724  0.00  0.00    +0.000 C 
ATOM     25  C   UNL     1       5.938   6.877  16.631  0.00  0.00    +0.000 C 
ATOM     26  C   UNL     1       5.518   5.669  15.856  0.00  0.00    +0.000 C 
ENDBRANCH  12  24
BRANCH  10  27
ATOM     27  C   UNL     1       3.956   2.212  19.182  0.00  0.00    +0.000 C 
ATOM     28  O   UNL     1       3.348   1.397  18.503  0.00  0.00    +0.000 OA
BRANCH  27  29
ATOM     29  O   UNL     1       4.929   1.846  20.046  0.00  0.00    +0.000 OA
ATOM     30  H   UNL     1       5.244   2.575  20.635  0.00  0.00    +0.000 HD
ENDBRANCH  27  29
ENDBRANCH  10  27
TORSDOF 6
ENDMDL
MODEL 9
REMARK VINA RESULT:      -7.7      2.363      3.647
REMARK  Name = 
REMARK  9 active torsions:
REMARK  status: ('A' for Active; 'I' for Inactive)
REMARK    1  A    between atoms: C_1  and  C_2
REMARK    2  A    between atoms: C_4  and  C_5
REMARK    3  A    between atoms: C_14  and  C_15
REMARK    4  A    between atoms: C_15  and  O_17
REMARK    5  A    between atoms: N_19  and  C_20
REMARK    6  A    between atoms: C_24  and  C_25
REMARK    7  A    between atoms: C_25  and  N_26
REMARK    8  A    between atoms: N_26  and  C_27
REMARK    9  A    between atoms: N_26  and  C_28
REMARK                            x       y       z     vdW  Elec       q    Type
REMARK                         _______ _______ _______ _____ _____    ______ ____
ROOT
ATOM      1  C   UNL     1       1.540   8.718  19.315  0.00  0.00    +0.000 A 
ATOM      2  C   UNL     1       2.525   8.071  18.533  0.00  0.00    +0.000 A 
ATOM      3  C   UNL     1       2.962   6.766  18.809  0.00  0.00    +0.000 A 
ATOM      4  C   UNL     1       2.414   6.114  19.926  0.00  0.00    +0.000 A 
ATOM      5  C   UNL     1       1.483   6.743  20.754  0.00  0.00    +0.000 A 
ATOM      6  C   UNL     1       1.052   8.021  20.436  0.00  0.00    +0.000 A 
ATOM      7  F   UNL     1       0.106   8.558  21.220  0.00  0.00    +0.000 F 
ATOM      8  C   UNL     1       2.780   4.712  20.208  0.00  0.00    +0.000 A 
ATOM      9  O   UNL     1       2.371   4.131  21.211  0.00  0.00    +0.000 OA
ATOM     10  C   UNL     1       3.612   3.996  19.221  0.00  0.00    +0.000 A 
ATOM     11  C   UNL     1       4.109   4.718  18.204  0.00  0.00    +0.000 A 
ATOM     12  N   UNL     1       3.911   6.076  17.999  0.00  0.00    +0.000 N 
ENDROOT
BRANCH   1  16
ATOM     13  C   UNL     1       1.951  13.720  19.032  0.00  0.00    +0.000 C 
ATOM     14  C   UNL     1       1.170  12.456  18.833  0.00  0.00    +0.000 A 
ATOM     15  C   UNL     1       1.734  11.223  19.139  0.00  0.00    +0.000 A 
ATOM     16  C   UNL     1       1.008  10.043  18.932  0.00  0.00    +0.000 A 
ATOM     17  C   UNL     1      -0.279  10.183  18.393  0.00  0.00    +0.000 A 
ATOM     18  C   UNL     1      -0.797  11.450  18.135  0.00  0.00    +0.000 A 
ATOM     19  N   UNL     1      -0.083  12.583  18.339  0.00  0.00    +0.000 NA
BRANCH  18  20
ATOM     20  C   UNL     1      -2.230  11.601  17.646  0.00  0.00    +0.000 C 
BRANCH  20  21
ATOM     21  N   UNL     1      -3.260  11.404  18.695  0.00  0.00    +0.000 NA
ATOM     22  C   UNL     1      -3.123  12.396  19.769  0.00  0.00    +0.000 C 
ATOM     23  C   UNL     1      -4.594  11.519  18.100  0.00  0.00    +0.000 C 
ENDBRANCH  20  21
ENDBRANCH  18  20
ENDBRANCH   1  16
BRANCH  12  24
ATOM     24  C   UNL     1       4.491   6.683  16.783  0.00  0.00    +0.000 C 
ATOM     25  C   UNL     1       5.979   6.854  16.596  0.00  0.00    +0.000 C 
ATOM     26  C   UNL     1       5.240   5.850  15.770  0.00  0.00    +0.000 C 
ENDBRANCH  12  24
BRANCH  10  27
ATOM     27  C   UNL     1       3.897   2.551  19.304  0.00  0.00    +0.000 C 
ATOM     28  O   UNL     1       3.258   1.706  18.693  0.00  0.00    +0.000 OA
BRANCH  27  29
ATOM     29  O   UNL     1       4.921   2.224  20.123  0.00  0.00    +0.000 OA
ATOM     30  H   UNL     1       4.899   1.290  20.448  0.00  0.00    +0.000 HD
ENDBRANCH  27  29
ENDBRANCH  10  27
TORSDOF 6
ENDMDL
