MODEL 1
REMARK VINA RESULT:      -7.2      0.000      0.000
REMARK  Name = 
REMARK  5 active torsions:
REMARK  status: ('A' for Active; 'I' for Inactive)
REMARK    1  A    between atoms: C_1  and  O_2
REMARK    2  A    between atoms: O_2  and  C_3
REMARK    3  A    between atoms: C_5  and  C_6
REMARK    4  A    between atoms: C_13  and  C_14
REMARK    5  A    between atoms: N_16  and  C_17
REMARK                            x       y       z     vdW  Elec       q    Type
REMARK                         _______ _______ _______ _____ _____    ______ ____
ROOT
ATOM      1  C   UNL     1       2.395  14.222  20.374  0.00  0.00    +0.000 A 
ATOM      2  C   UNL     1       1.942  15.243  21.168  0.00  0.00    +0.000 A 
ATOM      3  C   UNL     1       0.886  14.925  21.985  0.00  0.00    +0.000 A 
ATOM      4  C   UNL     1       0.287  15.928  22.920  0.00  0.00    +0.000 C 
ATOM      5  N   UNL     1       0.326  13.696  21.986  0.00  0.00    +0.000 NA
ATOM      6  C   UNL     1       0.823  12.757  21.167  0.00  0.00    +0.000 A 
ATOM      7  N   UNL     1       0.241  11.515  21.134  0.00  0.00    +0.000 N 
ATOM      8  C   UNL     1      -0.881  11.186  21.996  0.00  0.00    +0.000 C 
ATOM      9  C   UNL     1      -0.473  10.043  22.922  0.00  0.00    +0.000 C 
ATOM     10  C   UNL     1       0.094   8.865  22.133  0.00  0.00    +0.000 C 
ATOM     11  C   UNL     1       1.236   9.287  21.185  0.00  0.00    +0.000 C 
ATOM     12  C   UNL     1       0.780  10.451  20.299  0.00  0.00    +0.000 C 
ATOM     13  N   UNL     1       1.869  12.989  20.367  0.00  0.00    +0.000 NA
ENDROOT
BRANCH  11  14
ATOM     14  C   UNL     1       1.655   8.109  20.310  0.00  0.00    +0.000 C 
ATOM     15  O   UNL     1       1.893   8.271  19.117  0.00  0.00    +0.000 OA
ATOM     16  N   UNL     1       1.703   6.891  20.974  0.00  0.00    +0.000 N 
ATOM     17  H   UNL     1       1.266   6.840  21.887  0.00  0.00    +0.000 HD
BRANCH  16  18
ATOM     18  C   UNL     1       2.133   5.670  20.408  0.00  0.00    +0.000 A 
ATOM     19  C   UNL     1       3.375   5.514  19.782  0.00  0.00    +0.000 A 
ATOM     20  C   UNL     1       3.727   4.305  19.176  0.00  0.00    +0.000 A 
ATOM     21  C   UNL     1       2.842   3.236  19.207  0.00  0.00    +0.000 A 
ATOM     22 BR   UNL     1       3.294   1.622  18.336  0.00  0.00    +0.000 Br
ATOM     23  C   UNL     1       1.622   3.356  19.869  0.00  0.00    +0.000 A 
ATOM     24  C   UNL     1       1.273   4.568  20.479  0.00  0.00    +0.000 A 
ENDBRANCH  16  18
ENDBRANCH  11  14
BRANCH   1  26
ATOM     25  C   UNL     1       3.577  15.908  19.268  0.00  0.00    +0.000 C 
ATOM     26  O   UNL     1       3.452  14.512  19.532  0.00  0.00    +0.000 OA
ENDBRANCH   1  26
TORSDOF 3
ENDMDL
MODEL 2
REMARK VINA RESULT:      -7.0      5.840      9.829
REMARK  Name = 
REMARK  5 active torsions:
REMARK  status: ('A' for Active; 'I' for Inactive)
REMARK    1  A    between atoms: C_1  and  O_2
REMARK    2  A    between atoms: O_2  and  C_3
REMARK    3  A    between atoms: C_5  and  C_6
REMARK    4  A    between atoms: C_13  and  C_14
REMARK    5  A    between atoms: N_16  and  C_17
REMARK                            x       y       z     vdW  Elec       q    Type
REMARK                         _______ _______ _______ _____ _____    ______ ____
ROOT
ATOM      1  C   UNL     1       2.362   5.592  19.663  0.00  0.00    +0.000 A 
ATOM      2  C   UNL     1       1.878   4.313  19.579  0.00  0.00    +0.000 A 
ATOM      3  C   UNL     1       2.524   3.500  18.682  0.00  0.00    +0.000 A 
ATOM      4  C   UNL     1       2.121   2.072  18.484  0.00  0.00    +0.000 C 
ATOM      5  N   UNL     1       3.552   3.942  17.925  0.00  0.00    +0.000 NA
ATOM      6  C   UNL     1       3.955   5.214  18.061  0.00  0.00    +0.000 A 
ATOM      7  N   UNL     1       4.975   5.685  17.273  0.00  0.00    +0.000 N 
ATOM      8  C   UNL     1       5.651   4.821  16.320  0.00  0.00    +0.000 C 
ATOM      9  C   UNL     1       7.125   4.719  16.705  0.00  0.00    +0.000 C 
ATOM     10  C   UNL     1       7.752   6.102  16.872  0.00  0.00    +0.000 C 
ATOM     11  C   UNL     1       6.953   6.997  17.843  0.00  0.00    +0.000 C 
ATOM     12  C   UNL     1       5.480   7.042  17.423  0.00  0.00    +0.000 C 
ATOM     13  N   UNL     1       3.391   6.053  18.937  0.00  0.00    +0.000 NA
ENDROOT
BRANCH  11  14
ATOM     14  C   UNL     1       7.529   8.410  17.848  0.00  0.00    +0.000 C 
ATOM     15  O   UNL     1       7.098   9.263  17.079  0.00  0.00    +0.000 OA
ATOM     16  N   UNL     1       8.564   8.602  18.753  0.00  0.00    +0.000 N 
ATOM     17  H   UNL     1       8.985   7.777  19.163  0.00  0.00    +0.000 HD
BRANCH  16  18
ATOM     18  C   UNL     1       9.209   9.834  19.004  0.00  0.00    +0.000 A 
ATOM     19  C   UNL     1       9.316  10.395  20.281  0.00  0.00    +0.000 A 
ATOM     20  C   UNL     1       9.903  11.650  20.469  0.00  0.00    +0.000 A 
ATOM     21  C   UNL     1      10.403  12.345  19.376  0.00  0.00    +0.000 A 
ATOM     22 BR   UNL     1      11.142  14.066  19.622  0.00  0.00    +0.000 Br
ATOM     23  C   UNL     1      10.352  11.781  18.103  0.00  0.00    +0.000 A 
ATOM     24  C   UNL     1       9.766  10.522  17.919  0.00  0.00    +0.000 A 
ENDBRANCH  16  18
ENDBRANCH  11  14
BRANCH   1  26
ATOM     25  C   UNL     1       1.886   7.815  20.204  0.00  0.00    +0.000 C 
ATOM     26  O   UNL     1       1.728   6.440  20.550  0.00  0.00    +0.000 OA
ENDBRANCH   1  26
TORSDOF 3
ENDMDL
MODEL 3
REMARK VINA RESULT:      -6.9      5.928      9.897
REMARK  Name = 
REMARK  5 active torsions:
REMARK  status: ('A' for Active; 'I' for Inactive)
REMARK    1  A    between atoms: C_1  and  O_2
REMARK    2  A    between atoms: O_2  and  C_3
REMARK    3  A    between atoms: C_5  and  C_6
REMARK    4  A    between atoms: C_13  and  C_14
REMARK    5  A    between atoms: N_16  and  C_17
REMARK                            x       y       z     vdW  Elec       q    Type
REMARK                         _______ _______ _______ _____ _____    ______ ____
ROOT
ATOM      1  C   UNL     1       2.632   5.254  20.020  0.00  0.00    +0.000 A 
ATOM      2  C   UNL     1       2.184   3.960  19.949  0.00  0.00    +0.000 A 
ATOM      3  C   UNL     1       2.763   3.193  18.970  0.00  0.00    +0.000 A 
ATOM      4  C   UNL     1       2.390   1.757  18.774  0.00  0.00    +0.000 C 
ATOM      5  N   UNL     1       3.694   3.690  18.126  0.00  0.00    +0.000 NA
ATOM      6  C   UNL     1       4.067   4.972  18.257  0.00  0.00    +0.000 A 
ATOM      7  N   UNL     1       4.985   5.498  17.384  0.00  0.00    +0.000 N 
ATOM      8  C   UNL     1       5.590   4.683  16.345  0.00  0.00    +0.000 C 
ATOM      9  C   UNL     1       7.098   4.624  16.577  0.00  0.00    +0.000 C 
ATOM     10  C   UNL     1       7.692   6.024  16.718  0.00  0.00    +0.000 C 
ATOM     11  C   UNL     1       6.966   6.866  17.789  0.00  0.00    +0.000 C 
ATOM     12  C   UNL     1       5.458   6.868  17.520  0.00  0.00    +0.000 C 
ATOM     13  N   UNL     1       3.566   5.768  19.208  0.00  0.00    +0.000 NA
ENDROOT
BRANCH  11  14
ATOM     14  C   UNL     1       7.493   8.298  17.777  0.00  0.00    +0.000 C 
ATOM     15  O   UNL     1       7.026   9.128  17.003  0.00  0.00    +0.000 OA
ATOM     16  N   UNL     1       8.528   8.535  18.670  0.00  0.00    +0.000 N 
ATOM     17  H   UNL     1       8.981   7.728  19.085  0.00  0.00    +0.000 HD
BRANCH  16  18
ATOM     18  C   UNL     1       9.132   9.791  18.903  0.00  0.00    +0.000 A 
ATOM     19  C   UNL     1       9.699  10.567  17.887  0.00  0.00    +0.000 A 
ATOM     20  C   UNL     1      10.348  11.770  18.177  0.00  0.00    +0.000 A 
ATOM     21  C   UNL     1      10.417  12.214  19.491  0.00  0.00    +0.000 A 
ATOM     22 BR   UNL     1      11.346  13.811  19.890  0.00  0.00    +0.000 Br
ATOM     23  C   UNL     1       9.815  11.482  20.511  0.00  0.00    +0.000 A 
ATOM     24  C   UNL     1       9.163  10.277  20.216  0.00  0.00    +0.000 A 
ENDBRANCH  16  18
ENDBRANCH  11  14
BRANCH   1  26
ATOM     25  C   UNL     1       1.701   7.344  20.493  0.00  0.00    +0.000 C 
ATOM     26  O   UNL     1       2.063   6.057  20.990  0.00  0.00    +0.000 OA
ENDBRANCH   1  26
TORSDOF 3
ENDMDL
MODEL 4
REMARK VINA RESULT:      -6.8      2.499      3.137
REMARK  Name = 
REMARK  5 active torsions:
REMARK  status: ('A' for Active; 'I' for Inactive)
REMARK    1  A    between atoms: C_1  and  O_2
REMARK    2  A    between atoms: O_2  and  C_3
REMARK    3  A    between atoms: C_5  and  C_6
REMARK    4  A    between atoms: C_13  and  C_14
REMARK    5  A    between atoms: N_16  and  C_17
REMARK                            x       y       z     vdW  Elec       q    Type
REMARK                         _______ _______ _______ _____ _____    ______ ____
ROOT
ATOM      1  C   UNL     1      -0.651  13.574  19.879  0.00  0.00    +0.000 A 
ATOM      2  C   UNL     1      -1.206  14.105  21.015  0.00  0.00    +0.000 A 
ATOM      3  C   UNL     1      -1.425  13.211  22.032  0.00  0.00    +0.000 A 
ATOM      4  C   UNL     1      -2.013  13.640  23.341  0.00  0.00    +0.000 C 
ATOM      5  N   UNL     1      -1.131  11.898  21.910  0.00  0.00    +0.000 NA
ATOM      6  C   UNL     1      -0.602  11.459  20.758  0.00  0.00    +0.000 A 
ATOM      7  N   UNL     1      -0.332  10.122  20.608  0.00  0.00    +0.000 N 
ATOM      8  C   UNL     1      -0.573   9.179  21.686  0.00  0.00    +0.000 C 
ATOM      9  C   UNL     1       0.754   8.541  22.091  0.00  0.00    +0.000 C 
ATOM     10  C   UNL     1       1.479   7.956  20.881  0.00  0.00    +0.000 C 
ATOM     11  C   UNL     1       1.646   8.984  19.741  0.00  0.00    +0.000 C 
ATOM     12  C   UNL     1       0.290   9.609  19.396  0.00  0.00    +0.000 C 
ATOM     13  N   UNL     1      -0.334  12.279  19.736  0.00  0.00    +0.000 NA
ENDROOT
BRANCH  11  14
ATOM     14  C   UNL     1       2.229   8.307  18.505  0.00  0.00    +0.000 C 
ATOM     15  O   UNL     1       2.013   8.759  17.385  0.00  0.00    +0.000 OA
ATOM     16  N   UNL     1       2.967   7.163  18.773  0.00  0.00    +0.000 N 
ATOM     17  H   UNL     1       2.884   6.760  19.699  0.00  0.00    +0.000 HD
BRANCH  16  18
ATOM     18  C   UNL     1       3.671   6.402  17.812  0.00  0.00    +0.000 A 
ATOM     19  C   UNL     1       3.468   5.031  17.625  0.00  0.00    +0.000 A 
ATOM     20  C   UNL     1       4.238   4.308  16.710  0.00  0.00    +0.000 A 
ATOM     21  C   UNL     1       5.209   4.960  15.962  0.00  0.00    +0.000 A 
ATOM     22 BR   UNL     1       6.290   3.972  14.768  0.00  0.00    +0.000 Br
ATOM     23  C   UNL     1       5.392   6.335  16.096  0.00  0.00    +0.000 A 
ATOM     24  C   UNL     1       4.616   7.057  17.012  0.00  0.00    +0.000 A 
ENDBRANCH  16  18
ENDBRANCH  11  14
BRANCH   1  26
ATOM     25  C   UNL     1       0.799  15.163  18.969  0.00  0.00    +0.000 C 
ATOM     26  O   UNL     1      -0.425  14.445  18.832  0.00  0.00    +0.000 OA
ENDBRANCH   1  26
TORSDOF 3
ENDMDL
MODEL 5
REMARK VINA RESULT:      -6.7      4.255      8.698
REMARK  Name = 
REMARK  5 active torsions:
REMARK  status: ('A' for Active; 'I' for Inactive)
REMARK    1  A    between atoms: C_1  and  O_2
REMARK    2  A    between atoms: O_2  and  C_3
REMARK    3  A    between atoms: C_5  and  C_6
REMARK    4  A    between atoms: C_13  and  C_14
REMARK    5  A    between atoms: N_16  and  C_17
REMARK                            x       y       z     vdW  Elec       q    Type
REMARK                         _______ _______ _______ _____ _____    ______ ____
ROOT
ATOM      1  C   UNL     1       2.623   6.075  19.756  0.00  0.00    +0.000 A 
ATOM      2  C   UNL     1       3.574   5.799  18.808  0.00  0.00    +0.000 A 
ATOM      3  C   UNL     1       3.776   6.786  17.877  0.00  0.00    +0.000 A 
ATOM      4  C   UNL     1       4.790   6.640  16.786  0.00  0.00    +0.000 C 
ATOM      5  N   UNL     1       3.071   7.938  17.888  0.00  0.00    +0.000 NA
ATOM      6  C   UNL     1       2.148   8.122  18.844  0.00  0.00    +0.000 A 
ATOM      7  N   UNL     1       1.401   9.273  18.845  0.00  0.00    +0.000 N 
ATOM      8  C   UNL     1       1.615  10.311  17.853  0.00  0.00    +0.000 C 
ATOM      9  C   UNL     1       2.047  11.592  18.562  0.00  0.00    +0.000 C 
ATOM     10  C   UNL     1       1.071  11.964  19.677  0.00  0.00    +0.000 C 
ATOM     11  C   UNL     1       0.831  10.801  20.662  0.00  0.00    +0.000 C 
ATOM     12  C   UNL     1       0.426   9.539  19.894  0.00  0.00    +0.000 C 
ATOM     13  N   UNL     1       1.920   7.216  19.801  0.00  0.00    +0.000 NA
ENDROOT
BRANCH  11  14
ATOM     14  C   UNL     1      -0.266  11.172  21.656  0.00  0.00    +0.000 C 
ATOM     15  O   UNL     1      -0.129  10.939  22.852  0.00  0.00    +0.000 OA
ATOM     16  N   UNL     1      -1.392  11.742  21.079  0.00  0.00    +0.000 N 
ATOM     17  H   UNL     1      -1.488  11.671  20.072  0.00  0.00    +0.000 HD
BRANCH  16  18
ATOM     18  C   UNL     1      -2.508  12.240  21.788  0.00  0.00    +0.000 A 
ATOM     19  C   UNL     1      -2.627  12.160  23.180  0.00  0.00    +0.000 A 
ATOM     20  C   UNL     1      -3.782  12.604  23.830  0.00  0.00    +0.000 A 
ATOM     21  C   UNL     1      -4.822  13.149  23.088  0.00  0.00    +0.000 A 
ATOM     22 BR   UNL     1      -6.406  13.695  23.961  0.00  0.00    +0.000 Br
ATOM     23  C   UNL     1      -4.701  13.285  21.707  0.00  0.00    +0.000 A 
ATOM     24  C   UNL     1      -3.541  12.842  21.059  0.00  0.00    +0.000 A 
ENDBRANCH  16  18
ENDBRANCH  11  14
BRANCH   1  26
ATOM     25  C   UNL     1       1.215   4.335  20.426  0.00  0.00    +0.000 C 
ATOM     26  O   UNL     1       2.387   5.098  20.704  0.00  0.00    +0.000 OA
ENDBRANCH   1  26
TORSDOF 3
ENDMDL
MODEL 6
REMARK VINA RESULT:      -6.6      6.107      8.073
REMARK  Name = 
REMARK  5 active torsions:
REMARK  status: ('A' for Active; 'I' for Inactive)
REMARK    1  A    between atoms: C_1  and  O_2
REMARK    2  A    between atoms: O_2  and  C_3
REMARK    3  A    between atoms: C_5  and  C_6
REMARK    4  A    between atoms: C_13  and  C_14
REMARK    5  A    between atoms: N_16  and  C_17
REMARK                            x       y       z     vdW  Elec       q    Type
REMARK                         _______ _______ _______ _____ _____    ______ ____
ROOT
ATOM      1  C   UNL     1       6.975  15.960  18.857  0.00  0.00    +0.000 A 
ATOM      2  C   UNL     1       7.506  17.173  18.504  0.00  0.00    +0.000 A 
ATOM      3  C   UNL     1       8.856  17.172  18.258  0.00  0.00    +0.000 A 
ATOM      4  C   UNL     1       9.581  18.416  17.850  0.00  0.00    +0.000 C 
ATOM      5  N   UNL     1       9.606  16.054  18.377  0.00  0.00    +0.000 NA
ATOM      6  C   UNL     1       9.007  14.910  18.741  0.00  0.00    +0.000 A 
ATOM      7  N   UNL     1       9.763  13.776  18.899  0.00  0.00    +0.000 N 
ATOM      8  C   UNL     1      11.193  13.782  18.645  0.00  0.00    +0.000 C 
ATOM      9  C   UNL     1      11.497  12.810  17.507  0.00  0.00    +0.000 C 
ATOM     10  C   UNL     1      10.902  11.430  17.783  0.00  0.00    +0.000 C 
ATOM     11  C   UNL     1       9.396  11.494  18.113  0.00  0.00    +0.000 C 
ATOM     12  C   UNL     1       9.149  12.501  19.241  0.00  0.00    +0.000 C 
ATOM     13  N   UNL     1       7.691  14.832  18.966  0.00  0.00    +0.000 NA
ENDROOT
BRANCH  11  14
ATOM     14  C   UNL     1       8.893  10.116  18.534  0.00  0.00    +0.000 C 
ATOM     15  O   UNL     1       9.125   9.684  19.659  0.00  0.00    +0.000 OA
ATOM     16  N   UNL     1       8.206   9.431  17.543  0.00  0.00    +0.000 N 
ATOM     17  H   UNL     1       8.277   9.784  16.595  0.00  0.00    +0.000 HD
BRANCH  16  18
ATOM     18  C   UNL     1       7.577   8.175  17.705  0.00  0.00    +0.000 A 
ATOM     19  C   UNL     1       6.348   7.855  17.119  0.00  0.00    +0.000 A 
ATOM     20  C   UNL     1       5.732   6.625  17.366  0.00  0.00    +0.000 A 
ATOM     21  C   UNL     1       6.354   5.698  18.192  0.00  0.00    +0.000 A 
ATOM     22 BR   UNL     1       5.494   4.060  18.573  0.00  0.00    +0.000 Br
ATOM     23  C   UNL     1       7.602   5.978  18.745  0.00  0.00    +0.000 A 
ATOM     24  C   UNL     1       8.218   7.211  18.492  0.00  0.00    +0.000 A 
ENDBRANCH  16  18
ENDBRANCH  11  14
BRANCH   1  26
ATOM     25  C   UNL     1       4.904  15.088  18.216  0.00  0.00    +0.000 C 
ATOM     26  O   UNL     1       5.619  15.928  19.120  0.00  0.00    +0.000 OA
ENDBRANCH   1  26
TORSDOF 3
ENDMDL
MODEL 7
REMARK VINA RESULT:      -6.5      4.065      5.257
REMARK  Name = 
REMARK  5 active torsions:
REMARK  status: ('A' for Active; 'I' for Inactive)
REMARK    1  A    between atoms: C_1  and  O_2
REMARK    2  A    between atoms: O_2  and  C_3
REMARK    3  A    between atoms: C_5  and  C_6
REMARK    4  A    between atoms: C_13  and  C_14
REMARK    5  A    between atoms: N_16  and  C_17
REMARK                            x       y       z     vdW  Elec       q    Type
REMARK                         _______ _______ _______ _____ _____    ______ ____
ROOT
ATOM      1  C   UNL     1      -4.209  11.168  16.579  0.00  0.00    +0.000 A 
ATOM      2  C   UNL     1      -5.230  11.974  17.012  0.00  0.00    +0.000 A 
ATOM      3  C   UNL     1      -5.059  12.516  18.260  0.00  0.00    +0.000 A 
ATOM      4  C   UNL     1      -6.080  13.427  18.867  0.00  0.00    +0.000 C 
ATOM      5  N   UNL     1      -3.968  12.255  19.013  0.00  0.00    +0.000 NA
ATOM      6  C   UNL     1      -3.020  11.444  18.518  0.00  0.00    +0.000 A 
ATOM      7  N   UNL     1      -1.924  11.142  19.286  0.00  0.00    +0.000 N 
ATOM      8  C   UNL     1      -1.752  11.714  20.610  0.00  0.00    +0.000 C 
ATOM      9  C   UNL     1      -0.479  12.557  20.623  0.00  0.00    +0.000 C 
ATOM     10  C   UNL     1       0.719  11.760  20.110  0.00  0.00    +0.000 C 
ATOM     11  C   UNL     1       0.452  11.120  18.731  0.00  0.00    +0.000 C 
ATOM     12  C   UNL     1      -0.847  10.310  18.771  0.00  0.00    +0.000 C 
ATOM     13  N   UNL     1      -3.108  10.905  17.297  0.00  0.00    +0.000 NA
ENDROOT
BRANCH  11  14
ATOM     14  C   UNL     1       1.614  10.210  18.341  0.00  0.00    +0.000 C 
ATOM     15  O   UNL     1       2.556  10.646  17.688  0.00  0.00    +0.000 OA
ATOM     16  N   UNL     1       1.476   8.894  18.760  0.00  0.00    +0.000 N 
ATOM     17  H   UNL     1       0.561   8.601  19.084  0.00  0.00    +0.000 HD
BRANCH  16  18
ATOM     18  C   UNL     1       2.444   7.879  18.592  0.00  0.00    +0.000 A 
ATOM     19  C   UNL     1       3.335   7.843  17.514  0.00  0.00    +0.000 A 
ATOM     20  C   UNL     1       4.228   6.780  17.354  0.00  0.00    +0.000 A 
ATOM     21  C   UNL     1       4.246   5.751  18.286  0.00  0.00    +0.000 A 
ATOM     22 BR   UNL     1       5.413   4.286  18.038  0.00  0.00    +0.000 Br
ATOM     23  C   UNL     1       3.403   5.794  19.394  0.00  0.00    +0.000 A 
ATOM     24  C   UNL     1       2.511   6.863  19.553  0.00  0.00    +0.000 A 
ENDBRANCH  16  18
ENDBRANCH  11  14
BRANCH   1  26
ATOM     25  C   UNL     1      -3.118  10.124  14.796  0.00  0.00    +0.000 C 
ATOM     26  O   UNL     1      -4.353  10.598  15.329  0.00  0.00    +0.000 OA
ENDBRANCH   1  26
TORSDOF 3
ENDMDL
MODEL 8
REMARK VINA RESULT:      -6.5      0.839      1.275
REMARK  Name = 
REMARK  5 active torsions:
REMARK  status: ('A' for Active; 'I' for Inactive)
REMARK    1  A    between atoms: C_1  and  O_2
REMARK    2  A    between atoms: O_2  and  C_3
REMARK    3  A    between atoms: C_5  and  C_6
REMARK    4  A    between atoms: C_13  and  C_14
REMARK    5  A    between atoms: N_16  and  C_17
REMARK                            x       y       z     vdW  Elec       q    Type
REMARK                         _______ _______ _______ _____ _____    ______ ____
ROOT
ATOM      1  C   UNL     1       1.984  14.235  19.086  0.00  0.00    +0.000 A 
ATOM      2  C   UNL     1       1.581  15.325  19.814  0.00  0.00    +0.000 A 
ATOM      3  C   UNL     1       0.672  15.062  20.807  0.00  0.00    +0.000 A 
ATOM      4  C   UNL     1       0.146  16.145  21.697  0.00  0.00    +0.000 C 
ATOM      5  N   UNL     1       0.197  13.818  21.033  0.00  0.00    +0.000 NA
ATOM      6  C   UNL     1       0.634  12.809  20.265  0.00  0.00    +0.000 A 
ATOM      7  N   UNL     1       0.132  11.547  20.462  0.00  0.00    +0.000 N 
ATOM      8  C   UNL     1      -0.836  11.276  21.510  0.00  0.00    +0.000 C 
ATOM      9  C   UNL     1      -0.232  10.277  22.495  0.00  0.00    +0.000 C 
ATOM     10  C   UNL     1       0.294   9.038  21.774  0.00  0.00    +0.000 C 
ATOM     11  C   UNL     1       1.264   9.391  20.627  0.00  0.00    +0.000 C 
ATOM     12  C   UNL     1       0.616  10.413  19.688  0.00  0.00    +0.000 C 
ATOM     13  N   UNL     1       1.542  12.988  19.300  0.00  0.00    +0.000 NA
ENDROOT
BRANCH  11  14
ATOM     14  C   UNL     1       1.631   8.134  19.843  0.00  0.00    +0.000 C 
ATOM     15  O   UNL     1       1.774   8.177  18.626  0.00  0.00    +0.000 OA
ATOM     16  N   UNL     1       1.747   6.989  20.620  0.00  0.00    +0.000 N 
ATOM     17  H   UNL     1       1.383   7.027  21.565  0.00  0.00    +0.000 HD
BRANCH  16  18
ATOM     18  C   UNL     1       2.151   5.720  20.146  0.00  0.00    +0.000 A 
ATOM     19  C   UNL     1       1.296   4.614  20.103  0.00  0.00    +0.000 A 
ATOM     20  C   UNL     1       1.761   3.361  19.692  0.00  0.00    +0.000 A 
ATOM     21  C   UNL     1       3.086   3.214  19.303  0.00  0.00    +0.000 A 
ATOM     22 BR   UNL     1       3.729   1.508  18.804  0.00  0.00    +0.000 Br
ATOM     23  C   UNL     1       3.939   4.314  19.290  0.00  0.00    +0.000 A 
ATOM     24  C   UNL     1       3.469   5.569  19.700  0.00  0.00    +0.000 A 
ENDBRANCH  16  18
ENDBRANCH  11  14
BRANCH   1  26
ATOM     25  C   UNL     1       4.167  14.880  18.560  0.00  0.00    +0.000 C 
ATOM     26  O   UNL     1       2.893  14.466  18.072  0.00  0.00    +0.000 OA
ENDBRANCH   1  26
TORSDOF 3
ENDMDL
MODEL 9
REMARK VINA RESULT:      -6.5      1.513      1.996
REMARK  Name = 
REMARK  5 active torsions:
REMARK  status: ('A' for Active; 'I' for Inactive)
REMARK    1  A    between atoms: C_1  and  O_2
REMARK    2  A    between atoms: O_2  and  C_3
REMARK    3  A    between atoms: C_5  and  C_6
REMARK    4  A    between atoms: C_13  and  C_14
REMARK    5  A    between atoms: N_16  and  C_17
REMARK                            x       y       z     vdW  Elec       q    Type
REMARK                         _______ _______ _______ _____ _____    ______ ____
ROOT
ATOM      1  C   UNL     1       0.639  15.065  21.169  0.00  0.00    +0.000 A 
ATOM      2  C   UNL     1       0.225  15.817  22.237  0.00  0.00    +0.000 A 
ATOM      3  C   UNL     1      -0.465  15.131  23.204  0.00  0.00    +0.000 A 
ATOM      4  C   UNL     1      -0.972  15.810  24.438  0.00  0.00    +0.000 C 
ATOM      5  N   UNL     1      -0.732  13.811  23.095  0.00  0.00    +0.000 NA
ATOM      6  C   UNL     1      -0.301  13.152  22.009  0.00  0.00    +0.000 A 
ATOM      7  N   UNL     1      -0.595  11.819  21.870  0.00  0.00    +0.000 N 
ATOM      8  C   UNL     1      -1.333  11.100  22.894  0.00  0.00    +0.000 C 
ATOM      9  C   UNL     1      -0.450   9.983  23.447  0.00  0.00    +0.000 C 
ATOM     10  C   UNL     1       0.105   9.108  22.324  0.00  0.00    +0.000 C 
ATOM     11  C   UNL     1       0.818   9.934  21.232  0.00  0.00    +0.000 C 
ATOM     12  C   UNL     1      -0.104  11.052  20.735  0.00  0.00    +0.000 C 
ATOM     13  N   UNL     1       0.404  13.751  21.043  0.00  0.00    +0.000 NA
ENDROOT
BRANCH  11  14
ATOM     14  C   UNL     1       1.209   9.033  20.065  0.00  0.00    +0.000 C 
ATOM     15  O   UNL     1       0.911   9.337  18.914  0.00  0.00    +0.000 OA
ATOM     16  N   UNL     1       1.879   7.875  20.435  0.00  0.00    +0.000 N 
ATOM     17  H   UNL     1       1.863   7.619  21.416  0.00  0.00    +0.000 HD
BRANCH  16  18
ATOM     18  C   UNL     1       2.412   6.920  19.540  0.00  0.00    +0.000 A 
ATOM     19  C   UNL     1       2.229   5.542  19.695  0.00  0.00    +0.000 A 
ATOM     20  C   UNL     1       2.835   4.633  18.823  0.00  0.00    +0.000 A 
ATOM     21  C   UNL     1       3.617   5.102  17.776  0.00  0.00    +0.000 A 
ATOM     22 BR   UNL     1       4.485   3.873  16.633  0.00  0.00    +0.000 Br
ATOM     23  C   UNL     1       3.770   6.472  17.574  0.00  0.00    +0.000 A 
ATOM     24  C   UNL     1       3.159   7.380  18.449  0.00  0.00    +0.000 A 
ENDBRANCH  16  18
ENDBRANCH  11  14
BRANCH   1  26
ATOM     25  C   UNL     1       2.150  16.778  20.677  0.00  0.00    +0.000 C 
ATOM     26  O   UNL     1       1.330  15.726  20.172  0.00  0.00    +0.000 OA
ENDBRANCH   1  26
TORSDOF 3
ENDMDL
