MODEL 1
REMARK VINA RESULT:      -7.3      0.000      0.000
REMARK  Name = 
REMARK  6 active torsions:
REMARK  status: ('A' for Active; 'I' for Inactive)
REMARK    1  A    between atoms: C_1  and  O_2
REMARK    2  A    between atoms: O_2  and  C_3
REMARK    3  A    between atoms: N_9  and  C_10
REMARK    4  A    between atoms: C_15  and  C_16
REMARK    5  A    between atoms: N_19  and  C_20
REMARK    6  A    between atoms: N_19  and  C_21
REMARK                            x       y       z     vdW  Elec       q    Type
REMARK                         _______ _______ _______ _____ _____    ______ ____
ROOT
ATOM      1  C   UNL     1      -4.999  11.597  18.060  0.00  0.00    +0.000 A 
ATOM      2  C   UNL     1      -4.500  10.475  17.415  0.00  0.00    +0.000 A 
ATOM      3  C   UNL     1      -3.194  10.060  17.671  0.00  0.00    +0.000 A 
ATOM      4  C   UNL     1      -2.372  10.735  18.560  0.00  0.00    +0.000 A 
ATOM      5  N   UNL     1      -1.136  10.283  18.696  0.00  0.00    +0.000 NA
ATOM      6  C   UNL     1      -0.292  10.947  19.488  0.00  0.00    +0.000 A 
ATOM      7  N   UNL     1       1.044  10.547  19.512  0.00  0.00    +0.000 N 
ATOM      8  N   UNL     1      -0.651  12.014  20.213  0.00  0.00    +0.000 NA
ATOM      9  C   UNL     1      -1.937  12.447  20.138  0.00  0.00    +0.000 A 
ATOM     10  N   UNL     1      -2.347  13.546  20.956  0.00  0.00    +0.000 N 
ATOM     11  C   UNL     1      -1.227  14.366  21.445  0.00  0.00    +0.000 C 
ATOM     12  C   UNL     1      -2.857  11.852  19.241  0.00  0.00    +0.000 A 
ATOM     13  C   UNL     1      -4.178  12.293  18.949  0.00  0.00    +0.000 A 
ATOM     14  H   UNL     1       1.638  11.184  20.015  0.00  0.00    +0.000 HD
ENDROOT
BRANCH   7  15
ATOM     15  C   UNL     1       1.576   9.291  19.164  0.00  0.00    +0.000 A 
ATOM     16  C   UNL     1       2.134   9.091  17.888  0.00  0.00    +0.000 A 
ATOM     17  C   UNL     1       2.736   7.888  17.530  0.00  0.00    +0.000 A 
ATOM     18  C   UNL     1       2.811   6.856  18.454  0.00  0.00    +0.000 A 
ATOM     19  C   UNL     1       2.264   7.026  19.727  0.00  0.00    +0.000 A 
ATOM     20  C   UNL     1       1.633   8.231  20.091  0.00  0.00    +0.000 A 
ATOM     21  C   UNL     1       1.099   8.370  21.491  0.00  0.00    +0.000 C 
ENDBRANCH   7  15
BRANCH  10  22
ATOM     22  C   UNL     1      -3.432  13.547  21.891  0.00  0.00    +0.000 A 
ATOM     23  C   UNL     1      -3.472  12.682  22.997  0.00  0.00    +0.000 A 
ATOM     24  C   UNL     1      -4.517  12.743  23.929  0.00  0.00    +0.000 A 
ATOM     25  C   UNL     1      -5.548  13.666  23.771  0.00  0.00    +0.000 A 
ATOM     26  C   UNL     1      -5.547  14.513  22.668  0.00  0.00    +0.000 A 
ATOM     27  C   UNL     1      -4.507  14.444  21.737  0.00  0.00    +0.000 A 
ENDBRANCH  10  22
BRANCH   1  29
ATOM     28  C   UNL     1      -7.175  11.885  18.914  0.00  0.00    +0.000 C 
ATOM     29  O   UNL     1      -6.244  12.124  17.863  0.00  0.00    +0.000 OA
ENDBRANCH   1  29
TORSDOF 3
ENDMDL
MODEL 2
REMARK VINA RESULT:      -7.3      0.499      1.036
REMARK  Name = 
REMARK  6 active torsions:
REMARK  status: ('A' for Active; 'I' for Inactive)
REMARK    1  A    between atoms: C_1  and  O_2
REMARK    2  A    between atoms: O_2  and  C_3
REMARK    3  A    between atoms: N_9  and  C_10
REMARK    4  A    between atoms: C_15  and  C_16
REMARK    5  A    between atoms: N_19  and  C_20
REMARK    6  A    between atoms: N_19  and  C_21
REMARK                            x       y       z     vdW  Elec       q    Type
REMARK                         _______ _______ _______ _____ _____    ______ ____
ROOT
ATOM      1  C   UNL     1      -4.643  11.418  17.923  0.00  0.00    +0.000 A 
ATOM      2  C   UNL     1      -4.187  10.258  17.313  0.00  0.00    +0.000 A 
ATOM      3  C   UNL     1      -2.890   9.814  17.566  0.00  0.00    +0.000 A 
ATOM      4  C   UNL     1      -2.036  10.495  18.418  0.00  0.00    +0.000 A 
ATOM      5  N   UNL     1      -0.812  10.011  18.555  0.00  0.00    +0.000 NA
ATOM      6  C   UNL     1       0.063  10.677  19.311  0.00  0.00    +0.000 A 
ATOM      7  N   UNL     1       1.387  10.238  19.331  0.00  0.00    +0.000 N 
ATOM      8  N   UNL     1      -0.253  11.780  20.001  0.00  0.00    +0.000 NA
ATOM      9  C   UNL     1      -1.527  12.248  19.927  0.00  0.00    +0.000 A 
ATOM     10  N   UNL     1      -1.892  13.388  20.710  0.00  0.00    +0.000 N 
ATOM     11  C   UNL     1      -0.741  14.191  21.154  0.00  0.00    +0.000 C 
ATOM     12  C   UNL     1      -2.477  11.650  19.065  0.00  0.00    +0.000 A 
ATOM     13  C   UNL     1      -3.788  12.119  18.776  0.00  0.00    +0.000 A 
ATOM     14  H   UNL     1       2.007  10.874  19.802  0.00  0.00    +0.000 HD
ENDROOT
BRANCH   7  15
ATOM     15  C   UNL     1       1.876   8.955  19.021  0.00  0.00    +0.000 A 
ATOM     16  C   UNL     1       2.504   8.719  17.785  0.00  0.00    +0.000 A 
ATOM     17  C   UNL     1       3.066   7.484  17.470  0.00  0.00    +0.000 A 
ATOM     18  C   UNL     1       3.030   6.456  18.400  0.00  0.00    +0.000 A 
ATOM     19  C   UNL     1       2.411   6.661  19.634  0.00  0.00    +0.000 A 
ATOM     20  C   UNL     1       1.820   7.899  19.954  0.00  0.00    +0.000 A 
ATOM     21  C   UNL     1       1.205   8.073  21.316  0.00  0.00    +0.000 C 
ENDBRANCH   7  15
BRANCH  10  22
ATOM     22  C   UNL     1      -2.962  13.456  21.659  0.00  0.00    +0.000 A 
ATOM     23  C   UNL     1      -4.061  14.315  21.493  0.00  0.00    +0.000 A 
ATOM     24  C   UNL     1      -5.123  14.321  22.408  0.00  0.00    +0.000 A 
ATOM     25  C   UNL     1      -5.107  13.471  23.511  0.00  0.00    +0.000 A 
ATOM     26  C   UNL     1      -4.016  12.632  23.714  0.00  0.00    +0.000 A 
ATOM     27  C   UNL     1      -2.956  12.635  22.804  0.00  0.00    +0.000 A 
ENDBRANCH  10  22
BRANCH   1  29
ATOM     28  C   UNL     1      -6.949  11.318  18.389  0.00  0.00    +0.000 C 
ATOM     29  O   UNL     1      -5.874  11.974  17.724  0.00  0.00    +0.000 OA
ENDBRANCH   1  29
TORSDOF 3
ENDMDL
MODEL 3
REMARK VINA RESULT:      -7.1      4.809     10.729
REMARK  Name = 
REMARK  6 active torsions:
REMARK  status: ('A' for Active; 'I' for Inactive)
REMARK    1  A    between atoms: C_1  and  O_2
REMARK    2  A    between atoms: O_2  and  C_3
REMARK    3  A    between atoms: N_9  and  C_10
REMARK    4  A    between atoms: C_15  and  C_16
REMARK    5  A    between atoms: N_19  and  C_20
REMARK    6  A    between atoms: N_19  and  C_21
REMARK                            x       y       z     vdW  Elec       q    Type
REMARK                         _______ _______ _______ _____ _____    ______ ____
ROOT
ATOM      1  C   UNL     1       2.978   2.645  17.976  0.00  0.00    +0.000 A 
ATOM      2  C   UNL     1       1.727   3.016  18.449  0.00  0.00    +0.000 A 
ATOM      3  C   UNL     1       1.418   4.369  18.584  0.00  0.00    +0.000 A 
ATOM      4  C   UNL     1       2.325   5.363  18.255  0.00  0.00    +0.000 A 
ATOM      5  N   UNL     1       1.947   6.614  18.462  0.00  0.00    +0.000 NA
ATOM      6  C   UNL     1       2.816   7.598  18.224  0.00  0.00    +0.000 A 
ATOM      7  N   UNL     1       2.458   8.897  18.582  0.00  0.00    +0.000 N 
ATOM      8  N   UNL     1       4.038   7.390  17.716  0.00  0.00    +0.000 NA
ATOM      9  C   UNL     1       4.415   6.116  17.431  0.00  0.00    +0.000 A 
ATOM     10  N   UNL     1       5.692   5.890  16.829  0.00  0.00    +0.000 N 
ATOM     11  C   UNL     1       6.631   7.009  17.002  0.00  0.00    +0.000 C 
ATOM     12  C   UNL     1       3.581   5.018  17.753  0.00  0.00    +0.000 A 
ATOM     13  C   UNL     1       3.904   3.637  17.651  0.00  0.00    +0.000 A 
ATOM     14  H   UNL     1       3.218   9.552  18.507  0.00  0.00    +0.000 HD
ENDROOT
BRANCH   7  15
ATOM     15  C   UNL     1       1.162   9.415  18.766  0.00  0.00    +0.000 A 
ATOM     16  C   UNL     1       0.376   9.760  17.652  0.00  0.00    +0.000 A 
ATOM     17  C   UNL     1      -0.936  10.205  17.789  0.00  0.00    +0.000 A 
ATOM     18  C   UNL     1      -1.503  10.298  19.051  0.00  0.00    +0.000 A 
ATOM     19  C   UNL     1      -0.745   9.964  20.175  0.00  0.00    +0.000 A 
ATOM     20  C   UNL     1       0.590   9.534  20.049  0.00  0.00    +0.000 A 
ATOM     21  C   UNL     1       1.342   9.148  21.294  0.00  0.00    +0.000 C 
ENDBRANCH   7  15
BRANCH  10  22
ATOM     22  C   UNL     1       5.938   5.198  15.600  0.00  0.00    +0.000 A 
ATOM     23  C   UNL     1       4.912   4.577  14.867  0.00  0.00    +0.000 A 
ATOM     24  C   UNL     1       5.171   3.956  13.638  0.00  0.00    +0.000 A 
ATOM     25  C   UNL     1       6.462   3.937  13.116  0.00  0.00    +0.000 A 
ATOM     26  C   UNL     1       7.500   4.518  13.836  0.00  0.00    +0.000 A 
ATOM     27  C   UNL     1       7.240   5.130  15.065  0.00  0.00    +0.000 A 
ENDBRANCH  10  22
BRANCH   1  29
ATOM     28  C   UNL     1       4.232   0.879  18.899  0.00  0.00    +0.000 C 
ATOM     29  O   UNL     1       3.411   1.356  17.839  0.00  0.00    +0.000 OA
ENDBRANCH   1  29
TORSDOF 3
ENDMDL
MODEL 4
REMARK VINA RESULT:      -7.1      0.967      1.615
REMARK  Name = 
REMARK  6 active torsions:
REMARK  status: ('A' for Active; 'I' for Inactive)
REMARK    1  A    between atoms: C_1  and  O_2
REMARK    2  A    between atoms: O_2  and  C_3
REMARK    3  A    between atoms: N_9  and  C_10
REMARK    4  A    between atoms: C_15  and  C_16
REMARK    5  A    between atoms: N_19  and  C_20
REMARK    6  A    between atoms: N_19  and  C_21
REMARK                            x       y       z     vdW  Elec       q    Type
REMARK                         _______ _______ _______ _____ _____    ______ ____
ROOT
ATOM      1  C   UNL     1      -4.072  11.609  17.984  0.00  0.00    +0.000 A 
ATOM      2  C   UNL     1      -3.684  10.431  17.362  0.00  0.00    +0.000 A 
ATOM      3  C   UNL     1      -2.521   9.785  17.780  0.00  0.00    +0.000 A 
ATOM      4  C   UNL     1      -1.735  10.283  18.808  0.00  0.00    +0.000 A 
ATOM      5  N   UNL     1      -0.630   9.616  19.096  0.00  0.00    +0.000 NA
ATOM      6  C   UNL     1       0.190  10.101  20.031  0.00  0.00    +0.000 A 
ATOM      7  N   UNL     1       1.419   9.470  20.224  0.00  0.00    +0.000 N 
ATOM      8  N   UNL     1      -0.083  11.198  20.748  0.00  0.00    +0.000 NA
ATOM      9  C   UNL     1      -1.250  11.854  20.513  0.00  0.00    +0.000 A 
ATOM     10  N   UNL     1      -1.581  12.990  21.317  0.00  0.00    +0.000 N 
ATOM     11  C   UNL     1      -0.421  13.586  21.998  0.00  0.00    +0.000 C 
ATOM     12  C   UNL     1      -2.116  11.453  19.467  0.00  0.00    +0.000 A 
ATOM     13  C   UNL     1      -3.283  12.127  19.013  0.00  0.00    +0.000 A 
ATOM     14  H   UNL     1       2.033   9.980  20.836  0.00  0.00    +0.000 HD
ENDROOT
BRANCH   7  15
ATOM     15  C   UNL     1       1.771   8.148  19.893  0.00  0.00    +0.000 A 
ATOM     16  C   UNL     1       1.530   7.105  20.806  0.00  0.00    +0.000 A 
ATOM     17  C   UNL     1       1.795   5.776  20.489  0.00  0.00    +0.000 A 
ATOM     18  C   UNL     1       2.293   5.454  19.235  0.00  0.00    +0.000 A 
ATOM     19  C   UNL     1       2.544   6.469  18.310  0.00  0.00    +0.000 A 
ATOM     20  C   UNL     1       2.301   7.819  18.629  0.00  0.00    +0.000 A 
ATOM     21  C   UNL     1       2.550   8.864  17.576  0.00  0.00    +0.000 C 
ENDBRANCH   7  15
BRANCH  10  22
ATOM     22  C   UNL     1      -2.775  13.162  22.088  0.00  0.00    +0.000 A 
ATOM     23  C   UNL     1      -3.101  12.324  23.167  0.00  0.00    +0.000 A 
ATOM     24  C   UNL     1      -4.248  12.549  23.941  0.00  0.00    +0.000 A 
ATOM     25  C   UNL     1      -5.096  13.615  23.649  0.00  0.00    +0.000 A 
ATOM     26  C   UNL     1      -4.812  14.440  22.568  0.00  0.00    +0.000 A 
ATOM     27  C   UNL     1      -3.672  14.208  21.793  0.00  0.00    +0.000 A 
ENDBRANCH  10  22
BRANCH   1  29
ATOM     28  C   UNL     1      -6.421  11.734  17.894  0.00  0.00    +0.000 C 
ATOM     29  O   UNL     1      -5.164  12.352  17.638  0.00  0.00    +0.000 OA
ENDBRANCH   1  29
TORSDOF 3
ENDMDL
MODEL 5
REMARK VINA RESULT:      -6.9      1.188      1.547
REMARK  Name = 
REMARK  6 active torsions:
REMARK  status: ('A' for Active; 'I' for Inactive)
REMARK    1  A    between atoms: C_1  and  O_2
REMARK    2  A    between atoms: O_2  and  C_3
REMARK    3  A    between atoms: N_9  and  C_10
REMARK    4  A    between atoms: C_15  and  C_16
REMARK    5  A    between atoms: N_19  and  C_20
REMARK    6  A    between atoms: N_19  and  C_21
REMARK                            x       y       z     vdW  Elec       q    Type
REMARK                         _______ _______ _______ _____ _____    ______ ____
ROOT
ATOM      1  C   UNL     1      -6.035  12.293  18.165  0.00  0.00    +0.000 A 
ATOM      2  C   UNL     1      -5.396  11.262  17.490  0.00  0.00    +0.000 A 
ATOM      3  C   UNL     1      -4.089  10.921  17.836  0.00  0.00    +0.000 A 
ATOM      4  C   UNL     1      -3.403  11.579  18.843  0.00  0.00    +0.000 A 
ATOM      5  N   UNL     1      -2.153  11.206  19.062  0.00  0.00    +0.000 NA
ATOM      6  C   UNL     1      -1.434  11.862  19.975  0.00  0.00    +0.000 A 
ATOM      7  N   UNL     1      -0.078  11.556  20.094  0.00  0.00    +0.000 N 
ATOM      8  N   UNL     1      -1.936  12.841  20.738  0.00  0.00    +0.000 NA
ATOM      9  C   UNL     1      -3.240  13.188  20.575  0.00  0.00    +0.000 A 
ATOM     10  N   UNL     1      -3.803  14.188  21.428  0.00  0.00    +0.000 N 
ATOM     11  C   UNL     1      -2.797  15.043  22.077  0.00  0.00    +0.000 C 
ATOM     12  C   UNL     1      -4.030  12.603  19.556  0.00  0.00    +0.000 A 
ATOM     13  C   UNL     1      -5.350  12.971  19.175  0.00  0.00    +0.000 A 
ATOM     14  H   UNL     1       0.418  12.191  20.695  0.00  0.00    +0.000 HD
ENDROOT
BRANCH   7  15
ATOM     15  C   UNL     1       0.576  10.372  19.707  0.00  0.00    +0.000 A 
ATOM     16  C   UNL     1       1.066  10.233  18.395  0.00  0.00    +0.000 A 
ATOM     17  C   UNL     1       1.784   9.109  17.994  0.00  0.00    +0.000 A 
ATOM     18  C   UNL     1       2.046   8.099  18.908  0.00  0.00    +0.000 A 
ATOM     19  C   UNL     1       1.570   8.210  20.216  0.00  0.00    +0.000 A 
ATOM     20  C   UNL     1       0.824   9.331  20.625  0.00  0.00    +0.000 A 
ATOM     21  C   UNL     1       0.375   9.413  22.059  0.00  0.00    +0.000 C 
ENDBRANCH   7  15
BRANCH  10  22
ATOM     22  C   UNL     1      -4.962  14.039  22.256  0.00  0.00    +0.000 A 
ATOM     23  C   UNL     1      -5.193  12.889  23.028  0.00  0.00    +0.000 A 
ATOM     24  C   UNL     1      -6.307  12.793  23.873  0.00  0.00    +0.000 A 
ATOM     25  C   UNL     1      -7.218  13.843  23.961  0.00  0.00    +0.000 A 
ATOM     26  C   UNL     1      -7.028  14.981  23.184  0.00  0.00    +0.000 A 
ATOM     27  C   UNL     1      -5.920  15.070  22.336  0.00  0.00    +0.000 A 
ENDBRANCH  10  22
BRANCH   1  29
ATOM     28  C   UNL     1      -7.836  13.645  18.852  0.00  0.00    +0.000 C 
ATOM     29  O   UNL     1      -7.294  12.745  17.891  0.00  0.00    +0.000 OA
ENDBRANCH   1  29
TORSDOF 3
ENDMDL
MODEL 6
REMARK VINA RESULT:      -6.9      1.189      2.016
REMARK  Name = 
REMARK  6 active torsions:
REMARK  status: ('A' for Active; 'I' for Inactive)
REMARK    1  A    between atoms: C_1  and  O_2
REMARK    2  A    between atoms: O_2  and  C_3
REMARK    3  A    between atoms: N_9  and  C_10
REMARK    4  A    between atoms: C_15  and  C_16
REMARK    5  A    between atoms: N_19  and  C_20
REMARK    6  A    between atoms: N_19  and  C_21
REMARK                            x       y       z     vdW  Elec       q    Type
REMARK                         _______ _______ _______ _____ _____    ______ ____
ROOT
ATOM      1  C   UNL     1      -3.963  11.718  18.344  0.00  0.00    +0.000 A 
ATOM      2  C   UNL     1      -3.670  10.517  17.713  0.00  0.00    +0.000 A 
ATOM      3  C   UNL     1      -2.506   9.828  18.054  0.00  0.00    +0.000 A 
ATOM      4  C   UNL     1      -1.628  10.305  19.014  0.00  0.00    +0.000 A 
ATOM      5  N   UNL     1      -0.533   9.596  19.231  0.00  0.00    +0.000 NA
ATOM      6  C   UNL     1       0.372  10.057  20.096  0.00  0.00    +0.000 A 
ATOM      7  N   UNL     1       1.586   9.378  20.209  0.00  0.00    +0.000 N 
ATOM      8  N   UNL     1       0.197  11.173  20.816  0.00  0.00    +0.000 NA
ATOM      9  C   UNL     1      -0.956  11.874  20.657  0.00  0.00    +0.000 A 
ATOM     10  N   UNL     1      -1.180  13.032  21.466  0.00  0.00    +0.000 N 
ATOM     11  C   UNL     1       0.049  13.587  22.053  0.00  0.00    +0.000 C 
ATOM     12  C   UNL     1      -1.912  11.497  19.683  0.00  0.00    +0.000 A 
ATOM     13  C   UNL     1      -3.081  12.214  19.305  0.00  0.00    +0.000 A 
ATOM     14  H   UNL     1       2.263   9.869  20.767  0.00  0.00    +0.000 HD
ENDROOT
BRANCH   7  15
ATOM     15  C   UNL     1       1.859   8.039  19.873  0.00  0.00    +0.000 A 
ATOM     16  C   UNL     1       1.605   7.013  20.802  0.00  0.00    +0.000 A 
ATOM     17  C   UNL     1       1.791   5.671  20.483  0.00  0.00    +0.000 A 
ATOM     18  C   UNL     1       2.221   5.320  19.211  0.00  0.00    +0.000 A 
ATOM     19  C   UNL     1       2.482   6.317  18.270  0.00  0.00    +0.000 A 
ATOM     20  C   UNL     1       2.319   7.679  18.590  0.00  0.00    +0.000 A 
ATOM     21  C   UNL     1       2.576   8.705  17.521  0.00  0.00    +0.000 C 
ENDBRANCH   7  15
BRANCH  10  22
ATOM     22  C   UNL     1      -2.307  13.262  22.319  0.00  0.00    +0.000 A 
ATOM     23  C   UNL     1      -3.077  14.435  22.249  0.00  0.00    +0.000 A 
ATOM     24  C   UNL     1      -4.208  14.611  23.057  0.00  0.00    +0.000 A 
ATOM     25  C   UNL     1      -4.592  13.620  23.957  0.00  0.00    +0.000 A 
ATOM     26  C   UNL     1      -3.830  12.463  24.067  0.00  0.00    +0.000 A 
ATOM     27  C   UNL     1      -2.697  12.294  23.266  0.00  0.00    +0.000 A 
ENDBRANCH  10  22
BRANCH   1  29
ATOM     28  C   UNL     1      -5.709  12.208  16.842  0.00  0.00    +0.000 C 
ATOM     29  O   UNL     1      -5.047  12.502  18.068  0.00  0.00    +0.000 OA
ENDBRANCH   1  29
TORSDOF 3
ENDMDL
MODEL 7
REMARK VINA RESULT:      -6.8      1.160      1.416
REMARK  Name = 
REMARK  6 active torsions:
REMARK  status: ('A' for Active; 'I' for Inactive)
REMARK    1  A    between atoms: C_1  and  O_2
REMARK    2  A    between atoms: O_2  and  C_3
REMARK    3  A    between atoms: N_9  and  C_10
REMARK    4  A    between atoms: C_15  and  C_16
REMARK    5  A    between atoms: N_19  and  C_20
REMARK    6  A    between atoms: N_19  and  C_21
REMARK                            x       y       z     vdW  Elec       q    Type
REMARK                         _______ _______ _______ _____ _____    ______ ____
ROOT
ATOM      1  C   UNL     1      -3.804  11.429  17.754  0.00  0.00    +0.000 A 
ATOM      2  C   UNL     1      -3.450  10.280  17.062  0.00  0.00    +0.000 A 
ATOM      3  C   UNL     1      -2.205   9.696  17.294  0.00  0.00    +0.000 A 
ATOM      4  C   UNL     1      -1.304  10.227  18.203  0.00  0.00    +0.000 A 
ATOM      5  N   UNL     1      -0.134   9.620  18.314  0.00  0.00    +0.000 NA
ATOM      6  C   UNL     1       0.788  10.141  19.126  0.00  0.00    +0.000 A 
ATOM      7  N   UNL     1       2.064   9.577  19.126  0.00  0.00    +0.000 N 
ATOM      8  N   UNL     1       0.566  11.215  19.894  0.00  0.00    +0.000 NA
ATOM      9  C   UNL     1      -0.656  11.807  19.844  0.00  0.00    +0.000 A 
ATOM     10  N   UNL     1      -0.925  12.916  20.707  0.00  0.00    +0.000 N 
ATOM     11  C   UNL     1       0.289  13.570  21.221  0.00  0.00    +0.000 C 
ATOM     12  C   UNL     1      -1.645  11.368  18.930  0.00  0.00    +0.000 A 
ATOM     13  C   UNL     1      -2.901  11.981  18.665  0.00  0.00    +0.000 A 
ATOM     14  H   UNL     1       2.733  10.114  19.650  0.00  0.00    +0.000 HD
ENDROOT
BRANCH   7  15
ATOM     15  C   UNL     1       2.433   8.280  18.725  0.00  0.00    +0.000 A 
ATOM     16  C   UNL     1       3.138   8.087  17.523  0.00  0.00    +0.000 A 
ATOM     17  C   UNL     1       3.587   6.829  17.128  0.00  0.00    +0.000 A 
ATOM     18  C   UNL     1       3.356   5.730  17.942  0.00  0.00    +0.000 A 
ATOM     19  C   UNL     1       2.658   5.892  19.140  0.00  0.00    +0.000 A 
ATOM     20  C   UNL     1       2.180   7.156  19.538  0.00  0.00    +0.000 A 
ATOM     21  C   UNL     1       1.472   7.274  20.859  0.00  0.00    +0.000 C 
ENDBRANCH   7  15
BRANCH  10  22
ATOM     22  C   UNL     1      -1.999  13.015  21.648  0.00  0.00    +0.000 A 
ATOM     23  C   UNL     1      -2.182  12.083  22.683  0.00  0.00    +0.000 A 
ATOM     24  C   UNL     1      -3.209  12.235  23.625  0.00  0.00    +0.000 A 
ATOM     25  C   UNL     1      -4.078  13.320  23.550  0.00  0.00    +0.000 A 
ATOM     26  C   UNL     1      -3.938  14.241  22.518  0.00  0.00    +0.000 A 
ATOM     27  C   UNL     1      -2.918  14.082  21.575  0.00  0.00    +0.000 A 
ENDBRANCH  10  22
BRANCH   1  29
ATOM     28  C   UNL     1      -6.152  11.393  17.932  0.00  0.00    +0.000 C 
ATOM     29  O   UNL     1      -4.973  12.114  17.585  0.00  0.00    +0.000 OA
ENDBRANCH   1  29
TORSDOF 3
ENDMDL
MODEL 8
REMARK VINA RESULT:      -6.8      2.417      7.308
REMARK  Name = 
REMARK  6 active torsions:
REMARK  status: ('A' for Active; 'I' for Inactive)
REMARK    1  A    between atoms: C_1  and  O_2
REMARK    2  A    between atoms: O_2  and  C_3
REMARK    3  A    between atoms: N_9  and  C_10
REMARK    4  A    between atoms: C_15  and  C_16
REMARK    5  A    between atoms: N_19  and  C_20
REMARK    6  A    between atoms: N_19  and  C_21
REMARK                            x       y       z     vdW  Elec       q    Type
REMARK                         _______ _______ _______ _____ _____    ______ ____
ROOT
ATOM      1  C   UNL     1      -2.950  11.130  16.972  0.00  0.00    +0.000 A 
ATOM      2  C   UNL     1      -4.282  11.487  17.133  0.00  0.00    +0.000 A 
ATOM      3  C   UNL     1      -4.725  11.944  18.374  0.00  0.00    +0.000 A 
ATOM      4  C   UNL     1      -3.871  12.058  19.459  0.00  0.00    +0.000 A 
ATOM      5  N   UNL     1      -4.403  12.460  20.602  0.00  0.00    +0.000 NA
ATOM      6  C   UNL     1      -3.630  12.516  21.688  0.00  0.00    +0.000 A 
ATOM      7  N   UNL     1      -4.232  12.801  22.914  0.00  0.00    +0.000 N 
ATOM      8  N   UNL     1      -2.317  12.252  21.668  0.00  0.00    +0.000 NA
ATOM      9  C   UNL     1      -1.742  11.907  20.486  0.00  0.00    +0.000 A 
ATOM     10  N   UNL     1      -0.330  11.685  20.442  0.00  0.00    +0.000 N 
ATOM     11  C   UNL     1       0.266  11.415  21.760  0.00  0.00    +0.000 C 
ATOM     12  C   UNL     1      -2.522  11.730  19.318  0.00  0.00    +0.000 A 
ATOM     13  C   UNL     1      -2.082  11.231  18.061  0.00  0.00    +0.000 A 
ATOM     14  H   UNL     1      -3.611  12.680  23.696  0.00  0.00    +0.000 HD
ENDROOT
BRANCH   7  15
ATOM     15  C   UNL     1      -5.455  13.458  23.142  0.00  0.00    +0.000 A 
ATOM     16  C   UNL     1      -6.647  12.717  23.236  0.00  0.00    +0.000 A 
ATOM     17  C   UNL     1      -7.865  13.321  23.535  0.00  0.00    +0.000 A 
ATOM     18  C   UNL     1      -7.916  14.688  23.768  0.00  0.00    +0.000 A 
ATOM     19  C   UNL     1      -6.749  15.448  23.679  0.00  0.00    +0.000 A 
ATOM     20  C   UNL     1      -5.516  14.851  23.355  0.00  0.00    +0.000 A 
ATOM     21  C   UNL     1      -4.285  15.715  23.316  0.00  0.00    +0.000 C 
ENDBRANCH   7  15
BRANCH  10  22
ATOM     22  C   UNL     1       0.604  12.348  19.582  0.00  0.00    +0.000 A 
ATOM     23  C   UNL     1       0.634  13.745  19.437  0.00  0.00    +0.000 A 
ATOM     24  C   UNL     1       1.596  14.372  18.633  0.00  0.00    +0.000 A 
ATOM     25  C   UNL     1       2.546  13.615  17.952  0.00  0.00    +0.000 A 
ATOM     26  C   UNL     1       2.519  12.229  18.055  0.00  0.00    +0.000 A 
ATOM     27  C   UNL     1       1.554  11.607  18.851  0.00  0.00    +0.000 A 
ENDBRANCH  10  22
BRANCH   1  29
ATOM     28  C   UNL     1      -3.332  10.428  14.757  0.00  0.00    +0.000 C 
ATOM     29  O   UNL     1      -2.408  10.633  15.821  0.00  0.00    +0.000 OA
ENDBRANCH   1  29
TORSDOF 3
ENDMDL
MODEL 9
REMARK VINA RESULT:      -6.6      3.391      5.276
REMARK  Name = 
REMARK  6 active torsions:
REMARK  status: ('A' for Active; 'I' for Inactive)
REMARK    1  A    between atoms: C_1  and  O_2
REMARK    2  A    between atoms: O_2  and  C_3
REMARK    3  A    between atoms: N_9  and  C_10
REMARK    4  A    between atoms: C_15  and  C_16
REMARK    5  A    between atoms: N_19  and  C_20
REMARK    6  A    between atoms: N_19  and  C_21
REMARK                            x       y       z     vdW  Elec       q    Type
REMARK                         _______ _______ _______ _____ _____    ______ ____
ROOT
ATOM      1  C   UNL     1      -1.138  11.670  22.856  0.00  0.00    +0.000 A 
ATOM      2  C   UNL     1      -1.099  10.336  23.237  0.00  0.00    +0.000 A 
ATOM      3  C   UNL     1      -0.363   9.427  22.477  0.00  0.00    +0.000 A 
ATOM      4  C   UNL     1       0.340   9.816  21.348  0.00  0.00    +0.000 A 
ATOM      5  N   UNL     1       0.969   8.866  20.676  0.00  0.00    +0.000 NA
ATOM      6  C   UNL     1       1.599   9.188  19.544  0.00  0.00    +0.000 A 
ATOM      7  N   UNL     1       2.134   8.158  18.770  0.00  0.00    +0.000 N 
ATOM      8  N   UNL     1       1.689  10.443  19.086  0.00  0.00    +0.000 NA
ATOM      9  C   UNL     1       1.109  11.439  19.804  0.00  0.00    +0.000 A 
ATOM     10  N   UNL     1       1.253  12.790  19.357  0.00  0.00    +0.000 N 
ATOM     11  C   UNL     1       1.625  12.904  17.937  0.00  0.00    +0.000 C 
ATOM     12  C   UNL     1       0.339  11.156  20.958  0.00  0.00    +0.000 A 
ATOM     13  C   UNL     1      -0.442  12.073  21.715  0.00  0.00    +0.000 A 
ATOM     14  H   UNL     1       2.459   8.468  17.870  0.00  0.00    +0.000 HD
ENDROOT
BRANCH   7  15
ATOM     15  C   UNL     1       2.496   6.863  19.188  0.00  0.00    +0.000 A 
ATOM     16  C   UNL     1       1.809   6.248  20.250  0.00  0.00    +0.000 A 
ATOM     17  C   UNL     1       2.085   4.941  20.644  0.00  0.00    +0.000 A 
ATOM     18  C   UNL     1       3.049   4.208  19.968  0.00  0.00    +0.000 A 
ATOM     19  C   UNL     1       3.748   4.795  18.911  0.00  0.00    +0.000 A 
ATOM     20  C   UNL     1       3.491   6.123  18.519  0.00  0.00    +0.000 A 
ATOM     21  C   UNL     1       4.247   6.686  17.346  0.00  0.00    +0.000 C 
ENDBRANCH   7  15
BRANCH  10  22
ATOM     22  C   UNL     1       1.784  13.881  20.116  0.00  0.00    +0.000 A 
ATOM     23  C   UNL     1       1.162  15.140  20.161  0.00  0.00    +0.000 A 
ATOM     24  C   UNL     1       1.672  16.174  20.958  0.00  0.00    +0.000 A 
ATOM     25  C   UNL     1       2.818  15.974  21.724  0.00  0.00    +0.000 A 
ATOM     26  C   UNL     1       3.470  14.746  21.673  0.00  0.00    +0.000 A 
ATOM     27  C   UNL     1       2.963  13.720  20.871  0.00  0.00    +0.000 A 
ENDBRANCH  10  22
BRANCH   1  29
ATOM     28  C   UNL     1      -3.233  12.351  23.687  0.00  0.00    +0.000 C 
ATOM     29  O   UNL     1      -1.853  12.644  23.493  0.00  0.00    +0.000 OA
ENDBRANCH   1  29
TORSDOF 3
ENDMDL
