MODEL 1
REMARK VINA RESULT:      -8.3      0.000      0.000
REMARK  Name = 
REMARK  8 active torsions:
REMARK  status: ('A' for Active; 'I' for Inactive)
REMARK    1  A    between atoms: C_1  and  N_2
REMARK    2  A    between atoms: C_4  and  C_5
REMARK    3  A    between atoms: C_10  and  C_11
REMARK    4  A    between atoms: C_14  and  C_15
REMARK    5  A    between atoms: C_16  and  C_17
REMARK    6  A    between atoms: C_16  and  C_19
REMARK    7  A    between atoms: C_19  and  C_21
REMARK    8  A    between atoms: C_25  and  C_26
REMARK                            x       y       z     vdW  Elec       q    Type
REMARK                         _______ _______ _______ _____ _____    ______ ____
ROOT
ATOM      1  C   UNL     1       3.154   6.119  19.024  0.00  0.00    +0.000 C 
ATOM      2  C   UNL     1       2.830   4.827  19.253  0.00  0.00    +0.000 C 
ENDROOT
BRANCH   1   6
ATOM      3  C   UNL     1       1.192   9.467  19.424  0.00  0.00    +0.000 A 
ATOM      4  C   UNL     1       1.086   8.804  20.629  0.00  0.00    +0.000 A 
ATOM      5  C   UNL     1       1.729   7.535  20.622  0.00  0.00    +0.000 A 
ATOM      6  C   UNL     1       2.359   7.243  19.425  0.00  0.00    +0.000 A 
ATOM      7  S   UNL     1       2.032   8.503  18.288  0.00  0.00    +0.000 S 
BRANCH   3  13
ATOM      8  C   UNL     1      -1.390  10.149  17.726  0.00  0.00    +0.000 C 
ATOM      9  N   UNL     1      -0.504  11.056  18.421  0.00  0.00    +0.000 N 
ATOM     10  N   UNL     1      -0.718  12.381  18.265  0.00  0.00    +0.000 NA
ATOM     11  C   UNL     1       0.308  12.974  18.900  0.00  0.00    +0.000 A 
ATOM     12  C   UNL     1       1.157  11.999  19.482  0.00  0.00    +0.000 A 
ATOM     13  C   UNL     1       0.627  10.764  19.148  0.00  0.00    +0.000 A 
BRANCH  11  14
ATOM     14  C   UNL     1       0.512  14.466  18.940  0.00  0.00    +0.000 C 
ATOM     15  F   UNL     1      -0.458  15.173  18.303  0.00  0.00    +0.000 F 
ATOM     16  F   UNL     1       0.564  14.933  20.217  0.00  0.00    +0.000 F 
ATOM     17  F   UNL     1       1.693  14.820  18.359  0.00  0.00    +0.000 F 
ENDBRANCH  11  14
ENDBRANCH   3  13
ENDBRANCH   1   6
BRANCH   2  18
ATOM     18  C   UNL     1       1.644   4.405  19.909  0.00  0.00    +0.000 C 
ATOM     19  N   UNL     1       0.660   4.064  20.423  0.00  0.00    +0.000 NA
ENDBRANCH   2  18
BRANCH   2  20
ATOM     20  C   UNL     1       3.792   3.782  18.770  0.00  0.00    +0.000 C 
ATOM     21  O   UNL     1       3.628   2.592  19.022  0.00  0.00    +0.000 OA
BRANCH  20  22
ATOM     22  C   UNL     1       4.992   4.199  17.986  0.00  0.00    +0.000 A 
ATOM     23  C   UNL     1       6.125   4.646  18.676  0.00  0.00    +0.000 A 
ATOM     24  C   UNL     1       7.271   5.030  17.973  0.00  0.00    +0.000 A 
ATOM     25  C   UNL     1       7.295   4.964  16.579  0.00  0.00    +0.000 A 
ATOM     26  C   UNL     1       6.176   4.499  15.872  0.00  0.00    +0.000 A 
ATOM     27  C   UNL     1       5.031   4.109  16.588  0.00  0.00    +0.000 A 
BRANCH  26  28
ATOM     28  C   UNL     1       6.178   4.405  14.365  0.00  0.00    +0.000 C 
ATOM     29  F   UNL     1       6.342   3.140  13.892  0.00  0.00    +0.000 F 
ATOM     30  F   UNL     1       5.013   4.859  13.824  0.00  0.00    +0.000 F 
ATOM     31  F   UNL     1       7.165   5.150  13.799  0.00  0.00    +0.000 F 
ENDBRANCH  26  28
ENDBRANCH  20  22
ENDBRANCH   2  20
TORSDOF 7
ENDMDL
MODEL 2
REMARK VINA RESULT:      -8.2      1.999      2.537
REMARK  Name = 
REMARK  8 active torsions:
REMARK  status: ('A' for Active; 'I' for Inactive)
REMARK    1  A    between atoms: C_1  and  N_2
REMARK    2  A    between atoms: C_4  and  C_5
REMARK    3  A    between atoms: C_10  and  C_11
REMARK    4  A    between atoms: C_14  and  C_15
REMARK    5  A    between atoms: C_16  and  C_17
REMARK    6  A    between atoms: C_16  and  C_19
REMARK    7  A    between atoms: C_19  and  C_21
REMARK    8  A    between atoms: C_25  and  C_26
REMARK                            x       y       z     vdW  Elec       q    Type
REMARK                         _______ _______ _______ _____ _____    ______ ____
ROOT
ATOM      1  C   UNL     1       2.737   6.450  18.139  0.00  0.00    +0.000 C 
ATOM      2  C   UNL     1       2.526   5.158  18.475  0.00  0.00    +0.000 C 
ENDROOT
BRANCH   1   6
ATOM      3  C   UNL     1       1.091   9.828  19.186  0.00  0.00    +0.000 A 
ATOM      4  C   UNL     1       1.251   9.095  20.343  0.00  0.00    +0.000 A 
ATOM      5  C   UNL     1       1.813   7.808  20.111  0.00  0.00    +0.000 A 
ATOM      6  C   UNL     1       2.117   7.572  18.782  0.00  0.00    +0.000 A 
ATOM      7  S   UNL     1       1.582   8.910  17.829  0.00  0.00    +0.000 S 
BRANCH   3  13
ATOM      8  C   UNL     1      -1.873  10.676  18.471  0.00  0.00    +0.000 C 
ATOM      9  N   UNL     1      -0.757  11.522  18.829  0.00  0.00    +0.000 N 
ATOM     10  N   UNL     1      -0.939  12.860  18.763  0.00  0.00    +0.000 NA
ATOM     11  C   UNL     1       0.273  13.386  19.014  0.00  0.00    +0.000 A 
ATOM     12  C   UNL     1       1.214  12.356  19.267  0.00  0.00    +0.000 A 
ATOM     13  C   UNL     1       0.537  11.158  19.125  0.00  0.00    +0.000 A 
BRANCH  11  14
ATOM     14  C   UNL     1       0.559  14.865  18.991  0.00  0.00    +0.000 C 
ATOM     15  F   UNL     1       0.579  15.442  20.221  0.00  0.00    +0.000 F 
ATOM     16  F   UNL     1       1.760  15.136  18.411  0.00  0.00    +0.000 F 
ATOM     17  F   UNL     1      -0.375  15.539  18.262  0.00  0.00    +0.000 F 
ENDBRANCH  11  14
ENDBRANCH   3  13
ENDBRANCH   1   6
BRANCH   2  18
ATOM     18  C   UNL     1       1.645   4.734  19.504  0.00  0.00    +0.000 C 
ATOM     19  N   UNL     1       0.942   4.365  20.352  0.00  0.00    +0.000 NA
ENDBRANCH   2  18
BRANCH   2  20
ATOM     20  C   UNL     1       3.273   4.116  17.697  0.00  0.00    +0.000 C 
ATOM     21  O   UNL     1       2.729   3.080  17.323  0.00  0.00    +0.000 OA
BRANCH  20  22
ATOM     22  C   UNL     1       4.718   4.328  17.389  0.00  0.00    +0.000 A 
ATOM     23  C   UNL     1       5.186   4.015  16.108  0.00  0.00    +0.000 A 
ATOM     24  C   UNL     1       6.531   4.216  15.782  0.00  0.00    +0.000 A 
ATOM     25  C   UNL     1       7.414   4.736  16.730  0.00  0.00    +0.000 A 
ATOM     26  C   UNL     1       6.958   5.075  18.013  0.00  0.00    +0.000 A 
ATOM     27  C   UNL     1       5.603   4.876  18.329  0.00  0.00    +0.000 A 
BRANCH  26  28
ATOM     28  C   UNL     1       7.887   5.651  19.054  0.00  0.00    +0.000 C 
ATOM     29  F   UNL     1       8.378   6.879  18.736  0.00  0.00    +0.000 F 
ATOM     30  F   UNL     1       7.272   5.794  20.262  0.00  0.00    +0.000 F 
ATOM     31  F   UNL     1       8.969   4.858  19.280  0.00  0.00    +0.000 F 
ENDBRANCH  26  28
ENDBRANCH  20  22
ENDBRANCH   2  20
TORSDOF 7
ENDMDL
MODEL 3
REMARK VINA RESULT:      -8.1      3.170      9.608
REMARK  Name = 
REMARK  8 active torsions:
REMARK  status: ('A' for Active; 'I' for Inactive)
REMARK    1  A    between atoms: C_1  and  N_2
REMARK    2  A    between atoms: C_4  and  C_5
REMARK    3  A    between atoms: C_10  and  C_11
REMARK    4  A    between atoms: C_14  and  C_15
REMARK    5  A    between atoms: C_16  and  C_17
REMARK    6  A    between atoms: C_16  and  C_19
REMARK    7  A    between atoms: C_19  and  C_21
REMARK    8  A    between atoms: C_25  and  C_26
REMARK                            x       y       z     vdW  Elec       q    Type
REMARK                         _______ _______ _______ _____ _____    ______ ____
ROOT
ATOM      1  C   UNL     1       2.199   6.690  19.805  0.00  0.00    +0.000 C 
ATOM      2  C   UNL     1       1.851   7.971  19.550  0.00  0.00    +0.000 C 
ENDROOT
BRANCH   1   6
ATOM      3  C   UNL     1       4.255   4.834  17.059  0.00  0.00    +0.000 A 
ATOM      4  C   UNL     1       3.193   4.013  17.374  0.00  0.00    +0.000 A 
ATOM      5  C   UNL     1       2.364   4.548  18.400  0.00  0.00    +0.000 A 
ATOM      6  C   UNL     1       2.772   5.794  18.844  0.00  0.00    +0.000 A 
ATOM      7  S   UNL     1       4.252   6.220  18.061  0.00  0.00    +0.000 S 
BRANCH   3  13
ATOM      8  C   UNL     1       7.401   4.796  17.408  0.00  0.00    +0.000 C 
ATOM      9  N   UNL     1       6.623   4.507  16.224  0.00  0.00    +0.000 N 
ATOM     10  N   UNL     1       7.295   4.285  15.072  0.00  0.00    +0.000 NA
ATOM     11  C   UNL     1       6.342   4.176  14.131  0.00  0.00    +0.000 A 
ATOM     12  C   UNL     1       5.056   4.306  14.715  0.00  0.00    +0.000 A 
ATOM     13  C   UNL     1       5.256   4.537  16.065  0.00  0.00    +0.000 A 
BRANCH  11  14
ATOM     14  C   UNL     1       6.635   3.976  12.667  0.00  0.00    +0.000 C 
ATOM     15  F   UNL     1       7.183   2.768  12.375  0.00  0.00    +0.000 F 
ATOM     16  F   UNL     1       5.512   4.092  11.908  0.00  0.00    +0.000 F 
ATOM     17  F   UNL     1       7.505   4.918  12.204  0.00  0.00    +0.000 F 
ENDBRANCH  11  14
ENDBRANCH   3  13
ENDBRANCH   1   6
BRANCH   2  18
ATOM     18  C   UNL     1       1.991   8.600  18.286  0.00  0.00    +0.000 C 
ATOM     19  N   UNL     1       2.121   9.135  17.263  0.00  0.00    +0.000 NA
ENDBRANCH   2  18
BRANCH   2  20
ATOM     20  C   UNL     1       1.274   8.764  20.685  0.00  0.00    +0.000 C 
ATOM     21  O   UNL     1       1.413   8.410  21.853  0.00  0.00    +0.000 OA
BRANCH  20  22
ATOM     22  C   UNL     1       0.492  10.001  20.390  0.00  0.00    +0.000 A 
ATOM     23  C   UNL     1       0.915  11.214  20.948  0.00  0.00    +0.000 A 
ATOM     24  C   UNL     1       0.213  12.393  20.680  0.00  0.00    +0.000 A 
ATOM     25  C   UNL     1      -0.909  12.370  19.850  0.00  0.00    +0.000 A 
ATOM     26  C   UNL     1      -1.335  11.168  19.266  0.00  0.00    +0.000 A 
ATOM     27  C   UNL     1      -0.619   9.989  19.535  0.00  0.00    +0.000 A 
BRANCH  26  28
ATOM     28  C   UNL     1      -2.537  11.116  18.354  0.00  0.00    +0.000 C 
ATOM     29  F   UNL     1      -2.932   9.854  18.035  0.00  0.00    +0.000 F 
ATOM     30  F   UNL     1      -3.625  11.720  18.910  0.00  0.00    +0.000 F 
ATOM     31  F   UNL     1      -2.321  11.754  17.173  0.00  0.00    +0.000 F 
ENDBRANCH  26  28
ENDBRANCH  20  22
ENDBRANCH   2  20
TORSDOF 7
ENDMDL
MODEL 4
REMARK VINA RESULT:      -8.1      3.804      4.622
REMARK  Name = 
REMARK  8 active torsions:
REMARK  status: ('A' for Active; 'I' for Inactive)
REMARK    1  A    between atoms: C_1  and  N_2
REMARK    2  A    between atoms: C_4  and  C_5
REMARK    3  A    between atoms: C_10  and  C_11
REMARK    4  A    between atoms: C_14  and  C_15
REMARK    5  A    between atoms: C_16  and  C_17
REMARK    6  A    between atoms: C_16  and  C_19
REMARK    7  A    between atoms: C_19  and  C_21
REMARK    8  A    between atoms: C_25  and  C_26
REMARK                            x       y       z     vdW  Elec       q    Type
REMARK                         _______ _______ _______ _____ _____    ______ ____
ROOT
ATOM      1  C   UNL     1       1.354   7.632  20.802  0.00  0.00    +0.000 C 
ATOM      2  C   UNL     1       2.101   7.148  19.784  0.00  0.00    +0.000 C 
ENDROOT
BRANCH   1   6
ATOM      3  C   UNL     1      -0.498  10.979  21.563  0.00  0.00    +0.000 A 
ATOM      4  C   UNL     1      -0.309  10.938  20.197  0.00  0.00    +0.000 A 
ATOM      5  C   UNL     1       0.396   9.778  19.770  0.00  0.00    +0.000 A 
ATOM      6  C   UNL     1       0.712   8.914  20.804  0.00  0.00    +0.000 A 
ATOM      7  S   UNL     1       0.235   9.624  22.305  0.00  0.00    +0.000 S 
BRANCH   3  13
ATOM      8  C   UNL     1       0.435  13.983  21.914  0.00  0.00    +0.000 C 
ATOM      9  N   UNL     1      -0.769  13.351  22.406  0.00  0.00    +0.000 N 
ATOM     10  N   UNL     1      -1.576  14.081  23.207  0.00  0.00    +0.000 NA
ATOM     11  C   UNL     1      -2.528  13.223  23.614  0.00  0.00    +0.000 A 
ATOM     12  C   UNL     1      -2.321  11.947  23.031  0.00  0.00    +0.000 A 
ATOM     13  C   UNL     1      -1.171  12.042  22.267  0.00  0.00    +0.000 A 
BRANCH  11  14
ATOM     14  C   UNL     1      -3.626  13.592  24.577  0.00  0.00    +0.000 C 
ATOM     15  F   UNL     1      -4.685  14.213  23.994  0.00  0.00    +0.000 F 
ATOM     16  F   UNL     1      -4.118  12.499  25.221  0.00  0.00    +0.000 F 
ATOM     17  F   UNL     1      -3.171  14.432  25.548  0.00  0.00    +0.000 F 
ENDBRANCH  11  14
ENDBRANCH   3  13
ENDBRANCH   1   6
BRANCH   2  18
ATOM     18  C   UNL     1       2.367   7.853  18.582  0.00  0.00    +0.000 C 
ATOM     19  N   UNL     1       2.559   8.423  17.588  0.00  0.00    +0.000 NA
ENDBRANCH   2  18
BRANCH   2  20
ATOM     20  C   UNL     1       2.686   5.777  19.955  0.00  0.00    +0.000 C 
ATOM     21  O   UNL     1       2.380   5.061  20.905  0.00  0.00    +0.000 OA
BRANCH  20  22
ATOM     22  C   UNL     1       3.683   5.278  18.962  0.00  0.00    +0.000 A 
ATOM     23  C   UNL     1       3.223   4.581  17.839  0.00  0.00    +0.000 A 
ATOM     24  C   UNL     1       4.128   4.112  16.882  0.00  0.00    +0.000 A 
ATOM     25  C   UNL     1       5.497   4.344  17.037  0.00  0.00    +0.000 A 
ATOM     26  C   UNL     1       5.974   5.058  18.145  0.00  0.00    +0.000 A 
ATOM     27  C   UNL     1       5.055   5.531  19.098  0.00  0.00    +0.000 A 
BRANCH  26  28
ATOM     28  C   UNL     1       7.447   5.334  18.332  0.00  0.00    +0.000 C 
ATOM     29  F   UNL     1       7.884   6.451  17.691  0.00  0.00    +0.000 F 
ATOM     30  F   UNL     1       7.770   5.503  19.645  0.00  0.00    +0.000 F 
ATOM     31  F   UNL     1       8.226   4.313  17.886  0.00  0.00    +0.000 F 
ENDBRANCH  26  28
ENDBRANCH  20  22
ENDBRANCH   2  20
TORSDOF 7
ENDMDL
MODEL 5
REMARK VINA RESULT:      -8.1      4.282     10.828
REMARK  Name = 
REMARK  8 active torsions:
REMARK  status: ('A' for Active; 'I' for Inactive)
REMARK    1  A    between atoms: C_1  and  N_2
REMARK    2  A    between atoms: C_4  and  C_5
REMARK    3  A    between atoms: C_10  and  C_11
REMARK    4  A    between atoms: C_14  and  C_15
REMARK    5  A    between atoms: C_16  and  C_17
REMARK    6  A    between atoms: C_16  and  C_19
REMARK    7  A    between atoms: C_19  and  C_21
REMARK    8  A    between atoms: C_25  and  C_26
REMARK                            x       y       z     vdW  Elec       q    Type
REMARK                         _______ _______ _______ _____ _____    ______ ____
ROOT
ATOM      1  C   UNL     1       0.372   9.345  20.771  0.00  0.00    +0.000 C 
ATOM      2  C   UNL     1       0.389  10.626  21.202  0.00  0.00    +0.000 C 
ENDROOT
BRANCH   1   6
ATOM      3  C   UNL     1       2.744   7.455  18.317  0.00  0.00    +0.000 A 
ATOM      4  C   UNL     1       2.259   8.548  17.629  0.00  0.00    +0.000 A 
ATOM      5  C   UNL     1       1.341   9.321  18.394  0.00  0.00    +0.000 A 
ATOM      6  C   UNL     1       1.152   8.842  19.678  0.00  0.00    +0.000 A 
ATOM      7  S   UNL     1       2.027   7.364  19.868  0.00  0.00    +0.000 S 
BRANCH   3  13
ATOM      8  C   UNL     1       2.279   4.374  17.766  0.00  0.00    +0.000 C 
ATOM      9  N   UNL     1       3.469   5.160  17.531  0.00  0.00    +0.000 N 
ATOM     10  N   UNL     1       4.578   4.509  17.115  0.00  0.00    +0.000 NA
ATOM     11  C   UNL     1       5.544   5.444  17.105  0.00  0.00    +0.000 A 
ATOM     12  C   UNL     1       5.017   6.701  17.494  0.00  0.00    +0.000 A 
ATOM     13  C   UNL     1       3.679   6.497  17.783  0.00  0.00    +0.000 A 
BRANCH  11  14
ATOM     14  C   UNL     1       6.980   5.153  16.753  0.00  0.00    +0.000 C 
ATOM     15  F   UNL     1       7.729   6.265  16.531  0.00  0.00    +0.000 F 
ATOM     16  F   UNL     1       7.606   4.449  17.735  0.00  0.00    +0.000 F 
ATOM     17  F   UNL     1       7.069   4.394  15.625  0.00  0.00    +0.000 F 
ENDBRANCH  11  14
ENDBRANCH   3  13
ENDBRANCH   1   6
BRANCH   2  18
ATOM     18  C   UNL     1       1.172  11.655  20.617  0.00  0.00    +0.000 C 
ATOM     19  N   UNL     1       1.791  12.506  20.124  0.00  0.00    +0.000 NA
ENDBRANCH   2  18
BRANCH   2  20
ATOM     20  C   UNL     1      -0.487  10.969  22.370  0.00  0.00    +0.000 C 
ATOM     21  O   UNL     1      -0.213  10.600  23.509  0.00  0.00    +0.000 OA
BRANCH  20  22
ATOM     22  C   UNL     1      -1.736  11.754  22.143  0.00  0.00    +0.000 A 
ATOM     23  C   UNL     1      -2.038  12.176  20.842  0.00  0.00    +0.000 A 
ATOM     24  C   UNL     1      -3.206  12.902  20.592  0.00  0.00    +0.000 A 
ATOM     25  C   UNL     1      -4.083  13.203  21.636  0.00  0.00    +0.000 A 
ATOM     26  C   UNL     1      -3.807  12.771  22.941  0.00  0.00    +0.000 A 
ATOM     27  C   UNL     1      -2.633  12.036  23.182  0.00  0.00    +0.000 A 
BRANCH  26  28
ATOM     28  C   UNL     1      -4.744  13.071  24.087  0.00  0.00    +0.000 C 
ATOM     29  F   UNL     1      -6.060  12.925  23.776  0.00  0.00    +0.000 F 
ATOM     30  F   UNL     1      -4.518  12.257  25.156  0.00  0.00    +0.000 F 
ATOM     31  F   UNL     1      -4.604  14.342  24.552  0.00  0.00    +0.000 F 
ENDBRANCH  26  28
ENDBRANCH  20  22
ENDBRANCH   2  20
TORSDOF 7
ENDMDL
MODEL 6
REMARK VINA RESULT:      -8.0      2.180      2.704
REMARK  Name = 
REMARK  8 active torsions:
REMARK  status: ('A' for Active; 'I' for Inactive)
REMARK    1  A    between atoms: C_1  and  N_2
REMARK    2  A    between atoms: C_4  and  C_5
REMARK    3  A    between atoms: C_10  and  C_11
REMARK    4  A    between atoms: C_14  and  C_15
REMARK    5  A    between atoms: C_16  and  C_17
REMARK    6  A    between atoms: C_16  and  C_19
REMARK    7  A    between atoms: C_19  and  C_21
REMARK    8  A    between atoms: C_25  and  C_26
REMARK                            x       y       z     vdW  Elec       q    Type
REMARK                         _______ _______ _______ _____ _____    ______ ____
ROOT
ATOM      1  C   UNL     1       3.250   6.377  18.392  0.00  0.00    +0.000 C 
ATOM      2  C   UNL     1       2.960   5.205  19.001  0.00  0.00    +0.000 C 
ENDROOT
BRANCH   1   6
ATOM      3  C   UNL     1       1.119   9.481  19.408  0.00  0.00    +0.000 A 
ATOM      4  C   UNL     1       1.082   9.415  18.031  0.00  0.00    +0.000 A 
ATOM      5  C   UNL     1       1.854   8.341  17.507  0.00  0.00    +0.000 A 
ATOM      6  C   UNL     1       2.452   7.564  18.484  0.00  0.00    +0.000 A 
ATOM      7  S   UNL     1       2.141   8.261  20.035  0.00  0.00    +0.000 S 
BRANCH   3  13
ATOM      8  C   UNL     1       1.704  12.587  19.573  0.00  0.00    +0.000 C 
ATOM      9  N   UNL     1       0.685  11.826  20.259  0.00  0.00    +0.000 N 
ATOM     10  N   UNL     1      -0.071  12.474  21.174  0.00  0.00    +0.000 NA
ATOM     11  C   UNL     1      -0.828  11.517  21.738  0.00  0.00    +0.000 A 
ATOM     12  C   UNL     1      -0.555  10.259  21.143  0.00  0.00    +0.000 A 
ATOM     13  C   UNL     1       0.437  10.474  20.202  0.00  0.00    +0.000 A 
BRANCH  11  14
ATOM     14  C   UNL     1      -1.795  11.775  22.863  0.00  0.00    +0.000 C 
ATOM     15  F   UNL     1      -1.438  12.807  23.672  0.00  0.00    +0.000 F 
ATOM     16  F   UNL     1      -3.044  12.055  22.398  0.00  0.00    +0.000 F 
ATOM     17  F   UNL     1      -1.926  10.682  23.665  0.00  0.00    +0.000 F 
ENDBRANCH  11  14
ENDBRANCH   3  13
ENDBRANCH   1   6
BRANCH   2  18
ATOM     18  C   UNL     1       1.810   4.986  19.804  0.00  0.00    +0.000 C 
ATOM     19  N   UNL     1       0.870   4.779  20.454  0.00  0.00    +0.000 NA
ENDBRANCH   2  18
BRANCH   2  20
ATOM     20  C   UNL     1       3.920   4.071  18.799  0.00  0.00    +0.000 C 
ATOM     21  O   UNL     1       3.747   2.979  19.335  0.00  0.00    +0.000 OA
BRANCH  20  22
ATOM     22  C   UNL     1       5.129   4.278  17.949  0.00  0.00    +0.000 A 
ATOM     23  C   UNL     1       6.351   4.554  18.573  0.00  0.00    +0.000 A 
ATOM     24  C   UNL     1       7.507   4.740  17.807  0.00  0.00    +0.000 A 
ATOM     25  C   UNL     1       7.450   4.642  16.415  0.00  0.00    +0.000 A 
ATOM     26  C   UNL     1       6.238   4.345  15.775  0.00  0.00    +0.000 A 
ATOM     27  C   UNL     1       5.084   4.154  16.554  0.00  0.00    +0.000 A 
BRANCH  26  28
ATOM     28  C   UNL     1       6.150   4.221  14.272  0.00  0.00    +0.000 C 
ATOM     29  F   UNL     1       6.384   2.964  13.808  0.00  0.00    +0.000 F 
ATOM     30  F   UNL     1       4.918   4.571  13.804  0.00  0.00    +0.000 F 
ATOM     31  F   UNL     1       7.034   5.032  13.632  0.00  0.00    +0.000 F 
ENDBRANCH  26  28
ENDBRANCH  20  22
ENDBRANCH   2  20
TORSDOF 7
ENDMDL
MODEL 7
REMARK VINA RESULT:      -8.0      1.272      1.779
REMARK  Name = 
REMARK  8 active torsions:
REMARK  status: ('A' for Active; 'I' for Inactive)
REMARK    1  A    between atoms: C_1  and  N_2
REMARK    2  A    between atoms: C_4  and  C_5
REMARK    3  A    between atoms: C_10  and  C_11
REMARK    4  A    between atoms: C_14  and  C_15
REMARK    5  A    between atoms: C_16  and  C_17
REMARK    6  A    between atoms: C_16  and  C_19
REMARK    7  A    between atoms: C_19  and  C_21
REMARK    8  A    between atoms: C_25  and  C_26
REMARK                            x       y       z     vdW  Elec       q    Type
REMARK                         _______ _______ _______ _____ _____    ______ ____
ROOT
ATOM      1  C   UNL     1       3.627   5.840  18.303  0.00  0.00    +0.000 C 
ATOM      2  C   UNL     1       3.191   4.678  17.767  0.00  0.00    +0.000 C 
ENDROOT
BRANCH   1   6
ATOM      3  C   UNL     1       1.503   9.029  19.033  0.00  0.00    +0.000 A 
ATOM      4  C   UNL     1       1.413   8.233  20.156  0.00  0.00    +0.000 A 
ATOM      5  C   UNL     1       2.117   7.003  20.022  0.00  0.00    +0.000 A 
ATOM      6  C   UNL     1       2.775   6.874  18.811  0.00  0.00    +0.000 A 
ATOM      7  S   UNL     1       2.402   8.236  17.813  0.00  0.00    +0.000 S 
BRANCH   3  13
ATOM      8  C   UNL     1      -1.288   9.715  17.707  0.00  0.00    +0.000 C 
ATOM      9  N   UNL     1      -0.341  10.614  18.326  0.00  0.00    +0.000 N 
ATOM     10  N   UNL     1      -0.601  11.939  18.260  0.00  0.00    +0.000 NA
ATOM     11  C   UNL     1       0.485  12.531  18.788  0.00  0.00    +0.000 A 
ATOM     12  C   UNL     1       1.422  11.554  19.212  0.00  0.00    +0.000 A 
ATOM     13  C   UNL     1       0.880  10.321  18.891  0.00  0.00    +0.000 A 
BRANCH  11  14
ATOM     14  C   UNL     1       0.662  14.024  18.871  0.00  0.00    +0.000 C 
ATOM     15  F   UNL     1       1.859  14.465  18.405  0.00  0.00    +0.000 F 
ATOM     16  F   UNL     1      -0.300  14.685  18.170  0.00  0.00    +0.000 F 
ATOM     17  F   UNL     1       0.562  14.464  20.157  0.00  0.00    +0.000 F 
ENDBRANCH  11  14
ENDBRANCH   3  13
ENDBRANCH   1   6
BRANCH   2  18
ATOM     18  C   UNL     1       1.823   4.331  17.616  0.00  0.00    +0.000 C 
ATOM     19  N   UNL     1       0.701   4.044  17.521  0.00  0.00    +0.000 NA
ENDBRANCH   2  18
BRANCH   2  20
ATOM     20  C   UNL     1       4.232   3.706  17.297  0.00  0.00    +0.000 C 
ATOM     21  O   UNL     1       4.317   2.576  17.772  0.00  0.00    +0.000 OA
BRANCH  20  22
ATOM     22  C   UNL     1       5.205   4.126  16.246  0.00  0.00    +0.000 A 
ATOM     23  C   UNL     1       6.279   4.945  16.613  0.00  0.00    +0.000 A 
ATOM     24  C   UNL     1       7.217   5.345  15.656  0.00  0.00    +0.000 A 
ATOM     25  C   UNL     1       7.092   4.924  14.330  0.00  0.00    +0.000 A 
ATOM     26  C   UNL     1       6.034   4.086  13.950  0.00  0.00    +0.000 A 
ATOM     27  C   UNL     1       5.100   3.683  14.920  0.00  0.00    +0.000 A 
BRANCH  26  28
ATOM     28  C   UNL     1       5.881   3.605  12.526  0.00  0.00    +0.000 C 
ATOM     29  F   UNL     1       6.737   4.195  11.650  0.00  0.00    +0.000 F 
ATOM     30  F   UNL     1       6.097   2.263  12.417  0.00  0.00    +0.000 F 
ATOM     31  F   UNL     1       4.630   3.820  12.037  0.00  0.00    +0.000 F 
ENDBRANCH  26  28
ENDBRANCH  20  22
ENDBRANCH   2  20
TORSDOF 7
ENDMDL
MODEL 8
REMARK VINA RESULT:      -8.0      3.659      9.562
REMARK  Name = 
REMARK  8 active torsions:
REMARK  status: ('A' for Active; 'I' for Inactive)
REMARK    1  A    between atoms: C_1  and  N_2
REMARK    2  A    between atoms: C_4  and  C_5
REMARK    3  A    between atoms: C_10  and  C_11
REMARK    4  A    between atoms: C_14  and  C_15
REMARK    5  A    between atoms: C_16  and  C_17
REMARK    6  A    between atoms: C_16  and  C_19
REMARK    7  A    between atoms: C_19  and  C_21
REMARK    8  A    between atoms: C_25  and  C_26
REMARK                            x       y       z     vdW  Elec       q    Type
REMARK                         _______ _______ _______ _____ _____    ______ ____
ROOT
ATOM      1  C   UNL     1       0.568  10.145  19.612  0.00  0.00    +0.000 C 
ATOM      2  C   UNL     1       0.110  10.701  20.756  0.00  0.00    +0.000 C 
ENDROOT
BRANCH   1   6
ATOM      3  C   UNL     1       2.700   7.016  18.672  0.00  0.00    +0.000 A 
ATOM      4  C   UNL     1       2.341   6.862  19.995  0.00  0.00    +0.000 A 
ATOM      5  C   UNL     1       1.581   7.957  20.494  0.00  0.00    +0.000 A 
ATOM      6  C   UNL     1       1.328   8.931  19.544  0.00  0.00    +0.000 A 
ATOM      7  S   UNL     1       2.147   8.522  18.078  0.00  0.00    +0.000 S 
BRANCH   3  13
ATOM      8  C   UNL     1       1.913   4.061  17.856  0.00  0.00    +0.000 C 
ATOM      9  N   UNL     1       3.126   4.787  17.550  0.00  0.00    +0.000 N 
ATOM     10  N   UNL     1       4.115   4.115  16.921  0.00  0.00    +0.000 NA
ATOM     11  C   UNL     1       5.148   4.975  16.883  0.00  0.00    +0.000 A 
ATOM     12  C   UNL     1       4.781   6.211  17.474  0.00  0.00    +0.000 A 
ATOM     13  C   UNL     1       3.477   6.066  17.916  0.00  0.00    +0.000 A 
BRANCH  11  14
ATOM     14  C   UNL     1       6.498   4.630  16.313  0.00  0.00    +0.000 C 
ATOM     15  F   UNL     1       6.456   3.718  15.307  0.00  0.00    +0.000 F 
ATOM     16  F   UNL     1       7.132   5.729  15.820  0.00  0.00    +0.000 F 
ATOM     17  F   UNL     1       7.322   4.115  17.268  0.00  0.00    +0.000 F 
ENDBRANCH  11  14
ENDBRANCH   3  13
ENDBRANCH   1   6
BRANCH   2  18
ATOM     18  C   UNL     1       0.336  10.167  22.051  0.00  0.00    +0.000 C 
ATOM     19  N   UNL     1       0.533   9.754  23.119  0.00  0.00    +0.000 NA
ENDBRANCH   2  18
BRANCH   2  20
ATOM     20  C   UNL     1      -0.681  11.970  20.632  0.00  0.00    +0.000 C 
ATOM     21  O   UNL     1      -0.297  13.019  21.143  0.00  0.00    +0.000 OA
BRANCH  20  22
ATOM     22  C   UNL     1      -1.978  11.955  19.894  0.00  0.00    +0.000 A 
ATOM     23  C   UNL     1      -3.096  12.553  20.486  0.00  0.00    +0.000 A 
ATOM     24  C   UNL     1      -4.323  12.569  19.815  0.00  0.00    +0.000 A 
ATOM     25  C   UNL     1      -4.438  11.996  18.547  0.00  0.00    +0.000 A 
ATOM     26  C   UNL     1      -3.323  11.411  17.930  0.00  0.00    +0.000 A 
ATOM     27  C   UNL     1      -2.092  11.406  18.609  0.00  0.00    +0.000 A 
BRANCH  26  28
ATOM     28  C   UNL     1      -3.415  10.795  16.554  0.00  0.00    +0.000 C 
ATOM     29  F   UNL     1      -2.548  11.329  15.652  0.00  0.00    +0.000 F 
ATOM     30  F   UNL     1      -3.158   9.457  16.577  0.00  0.00    +0.000 F 
ATOM     31  F   UNL     1      -4.655  10.925  16.009  0.00  0.00    +0.000 F 
ENDBRANCH  26  28
ENDBRANCH  20  22
ENDBRANCH   2  20
TORSDOF 7
ENDMDL
MODEL 9
REMARK VINA RESULT:      -8.0      0.529      1.064
REMARK  Name = 
REMARK  8 active torsions:
REMARK  status: ('A' for Active; 'I' for Inactive)
REMARK    1  A    between atoms: C_1  and  N_2
REMARK    2  A    between atoms: C_4  and  C_5
REMARK    3  A    between atoms: C_10  and  C_11
REMARK    4  A    between atoms: C_14  and  C_15
REMARK    5  A    between atoms: C_16  and  C_17
REMARK    6  A    between atoms: C_16  and  C_19
REMARK    7  A    between atoms: C_19  and  C_21
REMARK    8  A    between atoms: C_25  and  C_26
REMARK                            x       y       z     vdW  Elec       q    Type
REMARK                         _______ _______ _______ _____ _____    ______ ____
ROOT
ATOM      1  C   UNL     1       2.897   6.110  18.384  0.00  0.00    +0.000 C 
ATOM      2  C   UNL     1       2.950   4.891  18.967  0.00  0.00    +0.000 C 
ENDROOT
BRANCH   1   6
ATOM      3  C   UNL     1       1.237   9.538  19.224  0.00  0.00    +0.000 A 
ATOM      4  C   UNL     1       1.324   8.843  20.413  0.00  0.00    +0.000 A 
ATOM      5  C   UNL     1       1.882   7.544  20.256  0.00  0.00    +0.000 A 
ATOM      6  C   UNL     1       2.256   7.259  18.954  0.00  0.00    +0.000 A 
ATOM      7  S   UNL     1       1.791   8.569  17.928  0.00  0.00    +0.000 S 
BRANCH   3  13
ATOM      8  C   UNL     1      -1.638  10.395  18.214  0.00  0.00    +0.000 C 
ATOM      9  N   UNL     1      -0.553  11.238  18.663  0.00  0.00    +0.000 N 
ATOM     10  N   UNL     1      -0.716  12.576  18.558  0.00  0.00    +0.000 NA
ATOM     11  C   UNL     1       0.470  13.098  18.915  0.00  0.00    +0.000 A 
ATOM     12  C   UNL     1       1.374  12.066  19.274  0.00  0.00    +0.000 A 
ATOM     13  C   UNL     1       0.703  10.870  19.089  0.00  0.00    +0.000 A 
BRANCH  11  14
ATOM     14  C   UNL     1       0.771  14.574  18.895  0.00  0.00    +0.000 C 
ATOM     15  F   UNL     1       1.924  14.893  18.250  0.00  0.00    +0.000 F 
ATOM     16  F   UNL     1      -0.224  15.282  18.294  0.00  0.00    +0.000 F 
ATOM     17  F   UNL     1       0.883  15.074  20.157  0.00  0.00    +0.000 F 
ENDBRANCH  11  14
ENDBRANCH   3  13
ENDBRANCH   1   6
BRANCH   2  18
ATOM     18  C   UNL     1       2.360   4.578  20.219  0.00  0.00    +0.000 C 
ATOM     19  N   UNL     1       1.856   4.340  21.238  0.00  0.00    +0.000 NA
ENDBRANCH   2  18
BRANCH   2  20
ATOM     20  C   UNL     1       3.676   3.807  18.226  0.00  0.00    +0.000 C 
ATOM     21  O   UNL     1       3.271   2.648  18.223  0.00  0.00    +0.000 OA
BRANCH  20  22
ATOM     22  C   UNL     1       4.935   4.138  17.495  0.00  0.00    +0.000 A 
ATOM     23  C   UNL     1       6.069   4.493  18.236  0.00  0.00    +0.000 A 
ATOM     24  C   UNL     1       7.269   4.794  17.583  0.00  0.00    +0.000 A 
ATOM     25  C   UNL     1       7.345   4.736  16.190  0.00  0.00    +0.000 A 
ATOM     26  C   UNL     1       6.225   4.362  15.434  0.00  0.00    +0.000 A 
ATOM     27  C   UNL     1       5.025   4.054  16.099  0.00  0.00    +0.000 A 
BRANCH  26  28
ATOM     28  C   UNL     1       6.282   4.278  13.927  0.00  0.00    +0.000 C 
ATOM     29  F   UNL     1       5.089   4.512  13.317  0.00  0.00    +0.000 F 
ATOM     30  F   UNL     1       7.157   5.180  13.400  0.00  0.00    +0.000 F 
ATOM     31  F   UNL     1       6.696   3.059  13.491  0.00  0.00    +0.000 F 
ENDBRANCH  26  28
ENDBRANCH  20  22
ENDBRANCH   2  20
TORSDOF 7
ENDMDL
