MODEL 1
REMARK VINA RESULT:      -6.0      0.000      0.000
REMARK  Name = 
REMARK  5 active torsions:
REMARK  status: ('A' for Active; 'I' for Inactive)
REMARK    1  A    between atoms: C_1  and  C_2
REMARK    2  A    between atoms: C_8  and  N_9
REMARK    3  A    between atoms: N_9  and  C_10
REMARK    4  A    between atoms: N_9  and  C_11
REMARK    5  A    between atoms: C_11  and  C_12
REMARK                            x       y       z     vdW  Elec       q    Type
REMARK                         _______ _______ _______ _____ _____    ______ ____
ROOT
ATOM      1  C   UNL     1       3.606   6.883  18.005  0.00  0.00    +0.000 C 
ATOM      2  C   UNL     1       3.874   5.574  18.696  0.00  0.00    +0.000 A 
ATOM      3  C   UNL     1       2.746   4.997  19.332  0.00  0.00    +0.000 A 
ATOM      4  C   UNL     1       2.843   3.769  19.955  0.00  0.00    +0.000 A 
ATOM      5 BR   UNL     1       1.352   2.986  20.796  0.00  0.00    +0.000 Br
ATOM      6  C   UNL     1       4.063   3.143  19.917  0.00  0.00    +0.000 A 
ATOM      7  N   UNL     1       5.163   3.672  19.336  0.00  0.00    +0.000 NA
ATOM      8  C   UNL     1       5.116   4.900  18.749  0.00  0.00    +0.000 A 
ENDROOT
BRANCH   8   9
ATOM      9  N   UNL     1       6.326   5.361  18.211  0.00  0.00    +0.000 N 
ATOM     10  C   UNL     1       7.445   5.667  19.106  0.00  0.00    +0.000 C 
BRANCH   9  11
ATOM     11  C   UNL     1       6.798   4.617  17.008  0.00  0.00    +0.000 C 
BRANCH  11  12
ATOM     12  C   UNL     1       6.799   5.457  15.719  0.00  0.00    +0.000 C 
ATOM     13  C   UNL     1       5.379   5.571  15.175  0.00  0.00    +0.000 C 
ATOM     14  C   UNL     1       5.196   4.265  14.422  0.00  0.00    +0.000 C 
ATOM     15  O   UNL     1       6.500   3.853  13.988  0.00  0.00    +0.000 OA
ATOM     16  C   UNL     1       7.471   4.758  14.546  0.00  0.00    +0.000 C 
ENDBRANCH  11  12
ENDBRANCH   9  11
ENDBRANCH   8   9
TORSDOF 3
ENDMDL
MODEL 2
REMARK VINA RESULT:      -6.0      3.648      5.697
REMARK  Name = 
REMARK  5 active torsions:
REMARK  status: ('A' for Active; 'I' for Inactive)
REMARK    1  A    between atoms: C_1  and  C_2
REMARK    2  A    between atoms: C_8  and  N_9
REMARK    3  A    between atoms: N_9  and  C_10
REMARK    4  A    between atoms: N_9  and  C_11
REMARK    5  A    between atoms: C_11  and  C_12
REMARK                            x       y       z     vdW  Elec       q    Type
REMARK                         _______ _______ _______ _____ _____    ______ ____
ROOT
ATOM      1  C   UNL     1       2.376   6.410  17.864  0.00  0.00    +0.000 C 
ATOM      2  C   UNL     1       3.733   5.759  17.864  0.00  0.00    +0.000 A 
ATOM      3  C   UNL     1       4.821   6.655  17.711  0.00  0.00    +0.000 A 
ATOM      4  C   UNL     1       6.121   6.193  17.751  0.00  0.00    +0.000 A 
ATOM      5 BR   UNL     1       7.576   7.372  17.557  0.00  0.00    +0.000 Br
ATOM      6  C   UNL     1       6.302   4.849  17.953  0.00  0.00    +0.000 A 
ATOM      7  N   UNL     1       5.288   3.965  18.084  0.00  0.00    +0.000 NA
ATOM      8  C   UNL     1       3.992   4.377  18.008  0.00  0.00    +0.000 A 
ENDROOT
BRANCH   8   9
ATOM      9  N   UNL     1       3.027   3.365  18.123  0.00  0.00    +0.000 N 
ATOM     10  C   UNL     1       2.731   2.514  16.968  0.00  0.00    +0.000 C 
BRANCH   9  11
ATOM     11  C   UNL     1       3.118   2.554  19.371  0.00  0.00    +0.000 C 
BRANCH  11  12
ATOM     12  C   UNL     1       1.805   2.491  20.169  0.00  0.00    +0.000 C 
ATOM     13  C   UNL     1       1.085   3.833  20.087  0.00  0.00    +0.000 C 
ATOM     14  C   UNL     1       1.786   4.662  21.147  0.00  0.00    +0.000 C 
ATOM     15  O   UNL     1       2.269   3.743  22.138  0.00  0.00    +0.000 OA
ATOM     16  C   UNL     1       2.019   2.403  21.673  0.00  0.00    +0.000 C 
ENDBRANCH  11  12
ENDBRANCH   9  11
ENDBRANCH   8   9
TORSDOF 3
ENDMDL
MODEL 3
REMARK VINA RESULT:      -5.9      0.755      1.123
REMARK  Name = 
REMARK  5 active torsions:
REMARK  status: ('A' for Active; 'I' for Inactive)
REMARK    1  A    between atoms: C_1  and  C_2
REMARK    2  A    between atoms: C_8  and  N_9
REMARK    3  A    between atoms: N_9  and  C_10
REMARK    4  A    between atoms: N_9  and  C_11
REMARK    5  A    between atoms: C_11  and  C_12
REMARK                            x       y       z     vdW  Elec       q    Type
REMARK                         _______ _______ _______ _____ _____    ______ ____
ROOT
ATOM      1  C   UNL     1       3.484   6.880  18.221  0.00  0.00    +0.000 C 
ATOM      2  C   UNL     1       3.777   5.556  18.872  0.00  0.00    +0.000 A 
ATOM      3  C   UNL     1       2.650   4.912  19.442  0.00  0.00    +0.000 A 
ATOM      4  C   UNL     1       2.772   3.665  20.022  0.00  0.00    +0.000 A 
ATOM      5 BR   UNL     1       1.283   2.795  20.775  0.00  0.00    +0.000 Br
ATOM      6  C   UNL     1       4.016   3.088  20.008  0.00  0.00    +0.000 A 
ATOM      7  N   UNL     1       5.116   3.681  19.491  0.00  0.00    +0.000 NA
ATOM      8  C   UNL     1       5.042   4.929  18.949  0.00  0.00    +0.000 A 
ENDROOT
BRANCH   8   9
ATOM      9  N   UNL     1       6.253   5.455  18.475  0.00  0.00    +0.000 N 
ATOM     10  C   UNL     1       7.374   5.633  19.401  0.00  0.00    +0.000 C 
BRANCH   9  11
ATOM     11  C   UNL     1       6.719   4.882  17.180  0.00  0.00    +0.000 C 
BRANCH  11  12
ATOM     12  C   UNL     1       5.592   4.657  16.159  0.00  0.00    +0.000 C 
ATOM     13  C   UNL     1       6.042   3.650  15.106  0.00  0.00    +0.000 C 
ATOM     14  C   UNL     1       6.855   4.500  14.146  0.00  0.00    +0.000 C 
ATOM     15  O   UNL     1       6.327   5.831  14.225  0.00  0.00    +0.000 OA
ATOM     16  C   UNL     1       5.336   5.865  15.269  0.00  0.00    +0.000 C 
ENDBRANCH  11  12
ENDBRANCH   9  11
ENDBRANCH   8   9
TORSDOF 3
ENDMDL
MODEL 4
REMARK VINA RESULT:      -5.9      2.383      3.500
REMARK  Name = 
REMARK  5 active torsions:
REMARK  status: ('A' for Active; 'I' for Inactive)
REMARK    1  A    between atoms: C_1  and  C_2
REMARK    2  A    between atoms: C_8  and  N_9
REMARK    3  A    between atoms: N_9  and  C_10
REMARK    4  A    between atoms: N_9  and  C_11
REMARK    5  A    between atoms: C_11  and  C_12
REMARK                            x       y       z     vdW  Elec       q    Type
REMARK                         _______ _______ _______ _____ _____    ______ ____
ROOT
ATOM      1  C   UNL     1       2.076   3.562  21.023  0.00  0.00    +0.000 C 
ATOM      2  C   UNL     1       2.209   4.867  20.286  0.00  0.00    +0.000 A 
ATOM      3  C   UNL     1       1.618   5.979  20.938  0.00  0.00    +0.000 A 
ATOM      4  C   UNL     1       1.718   7.245  20.395  0.00  0.00    +0.000 A 
ATOM      5 BR   UNL     1       0.946   8.732  21.254  0.00  0.00    +0.000 Br
ATOM      6  C   UNL     1       2.414   7.369  19.220  0.00  0.00    +0.000 A 
ATOM      7  N   UNL     1       2.972   6.328  18.563  0.00  0.00    +0.000 NA
ATOM      8  C   UNL     1       2.859   5.059  19.045  0.00  0.00    +0.000 A 
ENDROOT
BRANCH   8   9
ATOM      9  N   UNL     1       3.449   4.058  18.260  0.00  0.00    +0.000 N 
ATOM     10  C   UNL     1       2.647   3.369  17.246  0.00  0.00    +0.000 C 
BRANCH   9  11
ATOM     11  C   UNL     1       4.801   4.395  17.730  0.00  0.00    +0.000 C 
BRANCH  11  12
ATOM     12  C   UNL     1       4.837   4.598  16.206  0.00  0.00    +0.000 C 
ATOM     13  C   UNL     1       5.983   3.792  15.604  0.00  0.00    +0.000 C 
ATOM     14  C   UNL     1       7.188   4.686  15.835  0.00  0.00    +0.000 C 
ATOM     15  O   UNL     1       6.701   6.036  15.862  0.00  0.00    +0.000 OA
ATOM     16  C   UNL     1       5.263   6.001  15.796  0.00  0.00    +0.000 C 
ENDBRANCH  11  12
ENDBRANCH   9  11
ENDBRANCH   8   9
TORSDOF 3
ENDMDL
MODEL 5
REMARK VINA RESULT:      -5.7      3.149      4.462
REMARK  Name = 
REMARK  5 active torsions:
REMARK  status: ('A' for Active; 'I' for Inactive)
REMARK    1  A    between atoms: C_1  and  C_2
REMARK    2  A    between atoms: C_8  and  N_9
REMARK    3  A    between atoms: N_9  and  C_10
REMARK    4  A    between atoms: N_9  and  C_11
REMARK    5  A    between atoms: C_11  and  C_12
REMARK                            x       y       z     vdW  Elec       q    Type
REMARK                         _______ _______ _______ _____ _____    ______ ____
ROOT
ATOM      1  C   UNL     1       4.738   6.915  16.144  0.00  0.00    +0.000 C 
ATOM      2  C   UNL     1       3.914   7.019  17.398  0.00  0.00    +0.000 A 
ATOM      3  C   UNL     1       3.012   8.113  17.427  0.00  0.00    +0.000 A 
ATOM      4  C   UNL     1       2.158   8.290  18.497  0.00  0.00    +0.000 A 
ATOM      5 BR   UNL     1       0.950   9.733  18.545  0.00  0.00    +0.000 Br
ATOM      6  C   UNL     1       2.219   7.364  19.507  0.00  0.00    +0.000 A 
ATOM      7  N   UNL     1       3.079   6.321  19.520  0.00  0.00    +0.000 NA
ATOM      8  C   UNL     1       3.966   6.137  18.503  0.00  0.00    +0.000 A 
ENDROOT
BRANCH   8   9
ATOM      9  N   UNL     1       4.831   5.042  18.643  0.00  0.00    +0.000 N 
ATOM     10  C   UNL     1       6.151   5.238  19.247  0.00  0.00    +0.000 C 
BRANCH   9  11
ATOM     11  C   UNL     1       4.188   3.801  19.162  0.00  0.00    +0.000 C 
BRANCH  11  12
ATOM     12  C   UNL     1       3.737   2.827  18.059  0.00  0.00    +0.000 C 
ATOM     13  C   UNL     1       2.389   3.269  17.499  0.00  0.00    +0.000 C 
ATOM     14  C   UNL     1       1.402   2.713  18.510  0.00  0.00    +0.000 C 
ATOM     15  O   UNL     1       2.013   1.552  19.090  0.00  0.00    +0.000 OA
ATOM     16  C   UNL     1       3.360   1.452  18.590  0.00  0.00    +0.000 C 
ENDBRANCH  11  12
ENDBRANCH   9  11
ENDBRANCH   8   9
TORSDOF 3
ENDMDL
MODEL 6
REMARK VINA RESULT:      -5.7      2.266      3.415
REMARK  Name = 
REMARK  5 active torsions:
REMARK  status: ('A' for Active; 'I' for Inactive)
REMARK    1  A    between atoms: C_1  and  C_2
REMARK    2  A    between atoms: C_8  and  N_9
REMARK    3  A    between atoms: N_9  and  C_10
REMARK    4  A    between atoms: N_9  and  C_11
REMARK    5  A    between atoms: C_11  and  C_12
REMARK                            x       y       z     vdW  Elec       q    Type
REMARK                         _______ _______ _______ _____ _____    ______ ____
ROOT
ATOM      1  C   UNL     1       2.825   3.285  20.673  0.00  0.00    +0.000 C 
ATOM      2  C   UNL     1       2.715   4.620  19.989  0.00  0.00    +0.000 A 
ATOM      3  C   UNL     1       2.040   5.617  20.737  0.00  0.00    +0.000 A 
ATOM      4  C   UNL     1       1.920   6.902  20.247  0.00  0.00    +0.000 A 
ATOM      5 BR   UNL     1       1.033   8.238  21.233  0.00  0.00    +0.000 Br
ATOM      6  C   UNL     1       2.487   7.161  19.025  0.00  0.00    +0.000 A 
ATOM      7  N   UNL     1       3.121   6.230  18.277  0.00  0.00    +0.000 NA
ATOM      8  C   UNL     1       3.222   4.942  18.709  0.00  0.00    +0.000 A 
ENDROOT
BRANCH   8   9
ATOM      9  N   UNL     1       3.871   4.059  17.833  0.00  0.00    +0.000 N 
ATOM     10  C   UNL     1       3.143   2.903  17.304  0.00  0.00    +0.000 C 
BRANCH   9  11
ATOM     11  C   UNL     1       4.672   4.717  16.762  0.00  0.00    +0.000 C 
BRANCH  11  12
ATOM     12  C   UNL     1       6.127   4.224  16.684  0.00  0.00    +0.000 C 
ATOM     13  C   UNL     1       6.891   4.668  17.927  0.00  0.00    +0.000 C 
ATOM     14  C   UNL     1       7.271   6.101  17.600  0.00  0.00    +0.000 C 
ATOM     15  O   UNL     1       7.371   6.187  16.172  0.00  0.00    +0.000 OA
ATOM     16  C   UNL     1       6.944   4.931  15.611  0.00  0.00    +0.000 C 
ENDBRANCH  11  12
ENDBRANCH   9  11
ENDBRANCH   8   9
TORSDOF 3
ENDMDL
MODEL 7
REMARK VINA RESULT:      -5.6      3.296      5.587
REMARK  Name = 
REMARK  5 active torsions:
REMARK  status: ('A' for Active; 'I' for Inactive)
REMARK    1  A    between atoms: C_1  and  C_2
REMARK    2  A    between atoms: C_8  and  N_9
REMARK    3  A    between atoms: N_9  and  C_10
REMARK    4  A    between atoms: N_9  and  C_11
REMARK    5  A    between atoms: C_11  and  C_12
REMARK                            x       y       z     vdW  Elec       q    Type
REMARK                         _______ _______ _______ _____ _____    ______ ____
ROOT
ATOM      1  C   UNL     1       7.127   5.611  19.339  0.00  0.00    +0.000 C 
ATOM      2  C   UNL     1       6.266   5.449  18.116  0.00  0.00    +0.000 A 
ATOM      3  C   UNL     1       6.981   5.247  16.909  0.00  0.00    +0.000 A 
ATOM      4  C   UNL     1       6.309   5.029  15.723  0.00  0.00    +0.000 A 
ATOM      5 BR   UNL     1       7.246   4.752  14.114  0.00  0.00    +0.000 Br
ATOM      6  C   UNL     1       4.939   5.006  15.775  0.00  0.00    +0.000 A 
ATOM      7  N   UNL     1       4.225   5.213  16.905  0.00  0.00    +0.000 NA
ATOM      8  C   UNL     1       4.852   5.474  18.085  0.00  0.00    +0.000 A 
ENDROOT
BRANCH   8   9
ATOM      9  N   UNL     1       4.008   5.705  19.181  0.00  0.00    +0.000 N 
ATOM     10  C   UNL     1       3.027   6.791  19.120  0.00  0.00    +0.000 C 
BRANCH   9  11
ATOM     11  C   UNL     1       3.406   4.478  19.776  0.00  0.00    +0.000 C 
BRANCH  11  12
ATOM     12  C   UNL     1       1.931   4.264  19.397  0.00  0.00    +0.000 C 
ATOM     13  C   UNL     1       1.109   3.989  20.651  0.00  0.00    +0.000 C 
ATOM     14  C   UNL     1       1.347   2.510  20.899  0.00  0.00    +0.000 C 
ATOM     15  O   UNL     1       1.616   1.916  19.621  0.00  0.00    +0.000 OA
ATOM     16  C   UNL     1       1.688   2.966  18.639  0.00  0.00    +0.000 C 
ENDBRANCH  11  12
ENDBRANCH   9  11
ENDBRANCH   8   9
TORSDOF 3
ENDMDL
MODEL 8
REMARK VINA RESULT:      -5.6      3.526      5.707
REMARK  Name = 
REMARK  5 active torsions:
REMARK  status: ('A' for Active; 'I' for Inactive)
REMARK    1  A    between atoms: C_1  and  C_2
REMARK    2  A    between atoms: C_8  and  N_9
REMARK    3  A    between atoms: N_9  and  C_10
REMARK    4  A    between atoms: N_9  and  C_11
REMARK    5  A    between atoms: C_11  and  C_12
REMARK                            x       y       z     vdW  Elec       q    Type
REMARK                         _______ _______ _______ _____ _____    ______ ____
ROOT
ATOM      1  C   UNL     1       7.731   4.746  18.021  0.00  0.00    +0.000 C 
ATOM      2  C   UNL     1       6.812   4.683  16.832  0.00  0.00    +0.000 A 
ATOM      3  C   UNL     1       7.457   4.816  15.576  0.00  0.00    +0.000 A 
ATOM      4  C   UNL     1       6.735   4.721  14.403  0.00  0.00    +0.000 A 
ATOM      5 BR   UNL     1       7.578   4.887  12.728  0.00  0.00    +0.000 Br
ATOM      6  C   UNL     1       5.388   4.484  14.514  0.00  0.00    +0.000 A 
ATOM      7  N   UNL     1       4.739   4.371  15.695  0.00  0.00    +0.000 NA
ATOM      8  C   UNL     1       5.411   4.502  16.873  0.00  0.00    +0.000 A 
ENDROOT
BRANCH   8   9
ATOM      9  N   UNL     1       4.627   4.399  18.031  0.00  0.00    +0.000 N 
ATOM     10  C   UNL     1       4.453   5.572  18.892  0.00  0.00    +0.000 C 
BRANCH   9  11
ATOM     11  C   UNL     1       3.335   3.678  17.850  0.00  0.00    +0.000 C 
BRANCH  11  12
ATOM     12  C   UNL     1       3.330   2.255  18.432  0.00  0.00    +0.000 C 
ATOM     13  C   UNL     1       1.964   1.947  19.036  0.00  0.00    +0.000 C 
ATOM     14  C   UNL     1       2.042   2.598  20.406  0.00  0.00    +0.000 C 
ATOM     15  O   UNL     1       3.425   2.598  20.785  0.00  0.00    +0.000 OA
ATOM     16  C   UNL     1       4.200   2.111  19.673  0.00  0.00    +0.000 C 
ENDBRANCH  11  12
ENDBRANCH   9  11
ENDBRANCH   8   9
TORSDOF 3
ENDMDL
MODEL 9
REMARK VINA RESULT:      -5.5      3.406      5.588
REMARK  Name = 
REMARK  5 active torsions:
REMARK  status: ('A' for Active; 'I' for Inactive)
REMARK    1  A    between atoms: C_1  and  C_2
REMARK    2  A    between atoms: C_8  and  N_9
REMARK    3  A    between atoms: N_9  and  C_10
REMARK    4  A    between atoms: N_9  and  C_11
REMARK    5  A    between atoms: C_11  and  C_12
REMARK                            x       y       z     vdW  Elec       q    Type
REMARK                         _______ _______ _______ _____ _____    ______ ____
ROOT
ATOM      1  C   UNL     1       6.442   7.224  17.363  0.00  0.00    +0.000 C 
ATOM      2  C   UNL     1       5.732   6.030  16.785  0.00  0.00    +0.000 A 
ATOM      3  C   UNL     1       6.254   5.569  15.550  0.00  0.00    +0.000 A 
ATOM      4  C   UNL     1       5.729   4.447  14.941  0.00  0.00    +0.000 A 
ATOM      5 BR   UNL     1       6.417   3.819  13.306  0.00  0.00    +0.000 Br
ATOM      6  C   UNL     1       4.703   3.807  15.588  0.00  0.00    +0.000 A 
ATOM      7  N   UNL     1       4.169   4.229  16.756  0.00  0.00    +0.000 NA
ATOM      8  C   UNL     1       4.632   5.356  17.364  0.00  0.00    +0.000 A 
ENDROOT
BRANCH   8   9
ATOM      9  N   UNL     1       3.979   5.715  18.552  0.00  0.00    +0.000 N 
ATOM     10  C   UNL     1       3.039   6.839  18.548  0.00  0.00    +0.000 C 
BRANCH   9  11
ATOM     11  C   UNL     1       3.435   4.570  19.337  0.00  0.00    +0.000 C 
BRANCH  11  12
ATOM     12  C   UNL     1       1.899   4.491  19.335  0.00  0.00    +0.000 C 
ATOM     13  C   UNL     1       1.385   4.405  20.768  0.00  0.00    +0.000 C 
ATOM     14  C   UNL     1       1.544   2.932  21.100  0.00  0.00    +0.000 C 
ATOM     15  O   UNL     1       1.442   2.216  19.861  0.00  0.00    +0.000 OA
ATOM     16  C   UNL     1       1.366   3.174  18.789  0.00  0.00    +0.000 C 
ENDBRANCH  11  12
ENDBRANCH   9  11
ENDBRANCH   8   9
TORSDOF 3
ENDMDL
