MODEL 1
REMARK VINA RESULT:      -7.9      0.000      0.000
REMARK  Name = 
REMARK  10 active torsions:
REMARK  status: ('A' for Active; 'I' for Inactive)
REMARK    1  A    between atoms: C_1  and  C_2
REMARK    2  A    between atoms: C_3  and  C_4
REMARK    3  A    between atoms: C_5  and  C_6
REMARK    4  A    between atoms: C_10  and  C_11
REMARK    5  A    between atoms: C_12  and  C_13
REMARK    6  A    between atoms: C_13  and  C_14
REMARK    7  A    between atoms: C_15  and  C_16
REMARK    8  A    between atoms: C_16  and  O_18
REMARK    9  A    between atoms: C_19  and  C_20
REMARK   10  A    between atoms: C_19  and  C_21
REMARK                            x       y       z     vdW  Elec       q    Type
REMARK                         _______ _______ _______ _____ _____    ______ ____
ROOT
ATOM      1  C   UNL     1       6.342   5.573  18.242  0.00  0.00    +0.000 A 
ATOM      2  O   UNL     1       7.100   6.324  19.126  0.00  0.00    +0.000 OA
ATOM      3  C   UNL     1       8.016   7.034  18.440  0.00  0.00    +0.000 A 
ATOM      4  C   UNL     1       7.902   6.789  17.101  0.00  0.00    +0.000 A 
ATOM      5  C   UNL     1       6.822   5.868  16.951  0.00  0.00    +0.000 A 
ENDROOT
BRANCH   1   7
ATOM      6  C   UNL     1       4.021   4.949  18.464  0.00  0.00    +0.000 C 
ATOM      7  C   UNL     1       5.320   4.686  18.722  0.00  0.00    +0.000 C 
BRANCH   6  10
ATOM      8  C   UNL     1       2.083   6.258  20.305  0.00  0.00    +0.000 C 
ATOM      9  C   UNL     1       2.012   4.811  19.877  0.00  0.00    +0.000 C 
ATOM     10  C   UNL     1       2.861   4.223  18.995  0.00  0.00    +0.000 C 
ATOM     11  C   UNL     1       2.599   2.797  18.436  0.00  0.00    +0.000 C 
ATOM     12  C   UNL     1       2.648   2.741  16.889  0.00  0.00    +0.000 C 
ATOM     13  C   UNL     1       3.660   1.819  18.985  0.00  0.00    +0.000 C 
ATOM     14  C   UNL     1       1.184   2.278  18.826  0.00  0.00    +0.000 C 
ATOM     15  C   UNL     1       0.836   2.582  20.272  0.00  0.00    +0.000 C 
ATOM     16  C   UNL     1       0.833   4.087  20.494  0.00  0.00    +0.000 C 
ENDBRANCH   6  10
ENDBRANCH   1   7
BRANCH   5  17
ATOM     17  C   UNL     1       6.309   5.370  15.698  0.00  0.00    +0.000 C 
ATOM     18  C   UNL     1       7.059   4.853  14.702  0.00  0.00    +0.000 C 
BRANCH  18  19
ATOM     19  C   UNL     1       6.637   4.417  13.364  0.00  0.00    +0.000 C 
ATOM     20  C   UNL     1       7.415   4.860  12.150  0.00  0.00    +0.000 C 
ATOM     21  C   UNL     1       5.574   3.586  13.252  0.00  0.00    +0.000 C 
BRANCH  21  22
ATOM     22  C   UNL     1       5.116   2.982  11.973  0.00  0.00    +0.000 C 
ATOM     23  O   UNL     1       4.239   3.427  11.257  0.00  0.00    +0.000 OA
BRANCH  22  24
ATOM     24  O   UNL     1       5.812   1.870  11.660  0.00  0.00    +0.000 OA
ATOM     25  H   UNL     1       6.325   1.907  10.834  0.00  0.00    +0.000 HD
ENDBRANCH  22  24
ENDBRANCH  21  22
ENDBRANCH  18  19
ENDBRANCH   5  17
TORSDOF 6
ENDMDL
MODEL 2
REMARK VINA RESULT:      -7.7      3.021      5.693
REMARK  Name = 
REMARK  10 active torsions:
REMARK  status: ('A' for Active; 'I' for Inactive)
REMARK    1  A    between atoms: C_1  and  C_2
REMARK    2  A    between atoms: C_3  and  C_4
REMARK    3  A    between atoms: C_5  and  C_6
REMARK    4  A    between atoms: C_10  and  C_11
REMARK    5  A    between atoms: C_12  and  C_13
REMARK    6  A    between atoms: C_13  and  C_14
REMARK    7  A    between atoms: C_15  and  C_16
REMARK    8  A    between atoms: C_16  and  O_18
REMARK    9  A    between atoms: C_19  and  C_20
REMARK   10  A    between atoms: C_19  and  C_21
REMARK                            x       y       z     vdW  Elec       q    Type
REMARK                         _______ _______ _______ _____ _____    ______ ____
ROOT
ATOM      1  C   UNL     1       2.077   4.660  20.297  0.00  0.00    +0.000 A 
ATOM      2  O   UNL     1       1.835   4.078  21.531  0.00  0.00    +0.000 OA
ATOM      3  C   UNL     1       2.493   2.906  21.611  0.00  0.00    +0.000 A 
ATOM      4  C   UNL     1       3.186   2.670  20.457  0.00  0.00    +0.000 A 
ATOM      5  C   UNL     1       2.947   3.792  19.609  0.00  0.00    +0.000 A 
ENDROOT
BRANCH   1   7
ATOM      6  C   UNL     1       2.065   7.072  20.213  0.00  0.00    +0.000 C 
ATOM      7  C   UNL     1       1.452   5.902  19.935  0.00  0.00    +0.000 C 
BRANCH   6  10
ATOM      8  C   UNL     1       2.303   8.520  17.623  0.00  0.00    +0.000 C 
ATOM      9  C   UNL     1       1.662   9.091  18.866  0.00  0.00    +0.000 C 
ATOM     10  C   UNL     1       1.502   8.416  20.034  0.00  0.00    +0.000 C 
ATOM     11  C   UNL     1       0.643   8.986  21.196  0.00  0.00    +0.000 C 
ATOM     12  C   UNL     1      -0.423   7.984  21.702  0.00  0.00    +0.000 C 
ATOM     13  C   UNL     1       1.556   9.357  22.384  0.00  0.00    +0.000 C 
ATOM     14  C   UNL     1      -0.151  10.251  20.756  0.00  0.00    +0.000 C 
ATOM     15  C   UNL     1       0.689  11.200  19.921  0.00  0.00    +0.000 C 
ATOM     16  C   UNL     1       1.147  10.499  18.651  0.00  0.00    +0.000 C 
ENDBRANCH   6  10
ENDBRANCH   1   7
BRANCH   5  17
ATOM     17  C   UNL     1       3.526   3.997  18.303  0.00  0.00    +0.000 C 
ATOM     18  C   UNL     1       4.626   4.736  18.048  0.00  0.00    +0.000 C 
BRANCH  18  19
ATOM     19  C   UNL     1       5.225   5.078  16.750  0.00  0.00    +0.000 C 
ATOM     20  C   UNL     1       4.992   6.443  16.153  0.00  0.00    +0.000 C 
ATOM     21  C   UNL     1       6.012   4.166  16.133  0.00  0.00    +0.000 C 
BRANCH  21  22
ATOM     22  C   UNL     1       6.766   4.425  14.878  0.00  0.00    +0.000 C 
ATOM     23  O   UNL     1       7.649   5.251  14.743  0.00  0.00    +0.000 OA
BRANCH  22  24
ATOM     24  O   UNL     1       6.382   3.605  13.878  0.00  0.00    +0.000 OA
ATOM     25  H   UNL     1       5.851   4.015  13.172  0.00  0.00    +0.000 HD
ENDBRANCH  22  24
ENDBRANCH  21  22
ENDBRANCH  18  19
ENDBRANCH   5  17
TORSDOF 6
ENDMDL
MODEL 3
REMARK VINA RESULT:      -7.5      2.947      6.177
REMARK  Name = 
REMARK  10 active torsions:
REMARK  status: ('A' for Active; 'I' for Inactive)
REMARK    1  A    between atoms: C_1  and  C_2
REMARK    2  A    between atoms: C_3  and  C_4
REMARK    3  A    between atoms: C_5  and  C_6
REMARK    4  A    between atoms: C_10  and  C_11
REMARK    5  A    between atoms: C_12  and  C_13
REMARK    6  A    between atoms: C_13  and  C_14
REMARK    7  A    between atoms: C_15  and  C_16
REMARK    8  A    between atoms: C_16  and  O_18
REMARK    9  A    between atoms: C_19  and  C_20
REMARK   10  A    between atoms: C_19  and  C_21
REMARK                            x       y       z     vdW  Elec       q    Type
REMARK                         _______ _______ _______ _____ _____    ______ ____
ROOT
ATOM      1  C   UNL     1       2.053   4.434  20.335  0.00  0.00    +0.000 A 
ATOM      2  O   UNL     1       1.215   3.780  21.225  0.00  0.00    +0.000 OA
ATOM      3  C   UNL     1       1.764   2.602  21.576  0.00  0.00    +0.000 A 
ATOM      4  C   UNL     1       2.965   2.432  20.947  0.00  0.00    +0.000 A 
ATOM      5  C   UNL     1       3.178   3.603  20.161  0.00  0.00    +0.000 A 
ENDROOT
BRANCH   1   7
ATOM      6  C   UNL     1       1.979   6.845  20.411  0.00  0.00    +0.000 C 
ATOM      7  C   UNL     1       1.678   5.698  19.766  0.00  0.00    +0.000 C 
BRANCH   6  10
ATOM      8  C   UNL     1       2.611   7.983  17.734  0.00  0.00    +0.000 C 
ATOM      9  C   UNL     1       1.887   8.728  18.832  0.00  0.00    +0.000 C 
ATOM     10  C   UNL     1       1.548   8.197  20.034  0.00  0.00    +0.000 C 
ATOM     11  C   UNL     1       0.618   8.948  21.026  0.00  0.00    +0.000 C 
ATOM     12  C   UNL     1      -0.574   8.083  21.504  0.00  0.00    +0.000 C 
ATOM     13  C   UNL     1       1.424   9.382  22.269  0.00  0.00    +0.000 C 
ATOM     14  C   UNL     1      -0.020  10.209  20.373  0.00  0.00    +0.000 C 
ATOM     15  C   UNL     1       0.980  11.001  19.550  0.00  0.00    +0.000 C 
ATOM     16  C   UNL     1       1.514  10.136  18.418  0.00  0.00    +0.000 C 
ENDBRANCH   6  10
ENDBRANCH   1   7
BRANCH   5  17
ATOM     17  C   UNL     1       4.350   3.882  19.367  0.00  0.00    +0.000 C 
ATOM     18  C   UNL     1       5.153   4.956  19.517  0.00  0.00    +0.000 C 
BRANCH  18  19
ATOM     19  C   UNL     1       6.300   5.369  18.697  0.00  0.00    +0.000 C 
ATOM     20  C   UNL     1       7.630   5.648  19.354  0.00  0.00    +0.000 C 
ATOM     21  C   UNL     1       6.149   5.453  17.355  0.00  0.00    +0.000 C 
BRANCH  21  22
ATOM     22  C   UNL     1       7.254   5.747  16.405  0.00  0.00    +0.000 C 
ATOM     23  O   UNL     1       7.854   6.801  16.325  0.00  0.00    +0.000 OA
BRANCH  22  24
ATOM     24  O   UNL     1       7.555   4.682  15.632  0.00  0.00    +0.000 OA
ATOM     25  H   UNL     1       8.502   4.482  15.533  0.00  0.00    +0.000 HD
ENDBRANCH  22  24
ENDBRANCH  21  22
ENDBRANCH  18  19
ENDBRANCH   5  17
TORSDOF 6
ENDMDL
MODEL 4
REMARK VINA RESULT:      -7.4      2.980      5.699
REMARK  Name = 
REMARK  10 active torsions:
REMARK  status: ('A' for Active; 'I' for Inactive)
REMARK    1  A    between atoms: C_1  and  C_2
REMARK    2  A    between atoms: C_3  and  C_4
REMARK    3  A    between atoms: C_5  and  C_6
REMARK    4  A    between atoms: C_10  and  C_11
REMARK    5  A    between atoms: C_12  and  C_13
REMARK    6  A    between atoms: C_13  and  C_14
REMARK    7  A    between atoms: C_15  and  C_16
REMARK    8  A    between atoms: C_16  and  O_18
REMARK    9  A    between atoms: C_19  and  C_20
REMARK   10  A    between atoms: C_19  and  C_21
REMARK                            x       y       z     vdW  Elec       q    Type
REMARK                         _______ _______ _______ _____ _____    ______ ____
ROOT
ATOM      1  C   UNL     1       2.134   4.476  20.379  0.00  0.00    +0.000 A 
ATOM      2  O   UNL     1       1.709   3.931  21.581  0.00  0.00    +0.000 OA
ATOM      3  C   UNL     1       2.335   2.757  21.788  0.00  0.00    +0.000 A 
ATOM      4  C   UNL     1       3.185   2.484  20.754  0.00  0.00    +0.000 A 
ATOM      5  C   UNL     1       3.085   3.582  19.849  0.00  0.00    +0.000 A 
ENDROOT
BRANCH   1   7
ATOM      6  C   UNL     1       2.144   6.885  20.252  0.00  0.00    +0.000 C 
ATOM      7  C   UNL     1       1.582   5.710  19.897  0.00  0.00    +0.000 C 
BRANCH   6  10
ATOM      8  C   UNL     1       2.584   8.173  17.605  0.00  0.00    +0.000 C 
ATOM      9  C   UNL     1       1.874   8.827  18.767  0.00  0.00    +0.000 C 
ATOM     10  C   UNL     1       1.622   8.226  19.957  0.00  0.00    +0.000 C 
ATOM     11  C   UNL     1       0.701   8.879  21.024  0.00  0.00    +0.000 C 
ATOM     12  C   UNL     1      -0.418   7.927  21.514  0.00  0.00    +0.000 C 
ATOM     13  C   UNL     1       1.540   9.303  22.248  0.00  0.00    +0.000 C 
ATOM     14  C   UNL     1      -0.036  10.129  20.459  0.00  0.00    +0.000 C 
ATOM     15  C   UNL     1       0.878  11.012  19.629  0.00  0.00    +0.000 C 
ATOM     16  C   UNL     1       1.404  10.229  18.436  0.00  0.00    +0.000 C 
ENDBRANCH   6  10
ENDBRANCH   1   7
BRANCH   5  17
ATOM     17  C   UNL     1       3.850   3.745  18.637  0.00  0.00    +0.000 C 
ATOM     18  C   UNL     1       5.148   4.111  18.580  0.00  0.00    +0.000 C 
BRANCH  18  19
ATOM     19  C   UNL     1       5.973   4.395  17.398  0.00  0.00    +0.000 C 
ATOM     20  C   UNL     1       7.454   4.636  17.556  0.00  0.00    +0.000 C 
ATOM     21  C   UNL     1       5.388   4.394  16.177  0.00  0.00    +0.000 C 
BRANCH  21  22
ATOM     22  C   UNL     1       6.126   4.554  14.896  0.00  0.00    +0.000 C 
ATOM     23  O   UNL     1       6.429   3.651  14.139  0.00  0.00    +0.000 OA
BRANCH  22  24
ATOM     24  O   UNL     1       6.411   5.847  14.633  0.00  0.00    +0.000 OA
ATOM     25  H   UNL     1       6.670   6.048  13.717  0.00  0.00    +0.000 HD
ENDBRANCH  22  24
ENDBRANCH  21  22
ENDBRANCH  18  19
ENDBRANCH   5  17
TORSDOF 6
ENDMDL
MODEL 5
REMARK VINA RESULT:      -7.3      3.374      5.904
REMARK  Name = 
REMARK  10 active torsions:
REMARK  status: ('A' for Active; 'I' for Inactive)
REMARK    1  A    between atoms: C_1  and  C_2
REMARK    2  A    between atoms: C_3  and  C_4
REMARK    3  A    between atoms: C_5  and  C_6
REMARK    4  A    between atoms: C_10  and  C_11
REMARK    5  A    between atoms: C_12  and  C_13
REMARK    6  A    between atoms: C_13  and  C_14
REMARK    7  A    between atoms: C_15  and  C_16
REMARK    8  A    between atoms: C_16  and  O_18
REMARK    9  A    between atoms: C_19  and  C_20
REMARK   10  A    between atoms: C_19  and  C_21
REMARK                            x       y       z     vdW  Elec       q    Type
REMARK                         _______ _______ _______ _____ _____    ______ ____
ROOT
ATOM      1  C   UNL     1       1.938   5.473  20.005  0.00  0.00    +0.000 A 
ATOM      2  O   UNL     1       1.355   4.742  21.028  0.00  0.00    +0.000 OA
ATOM      3  C   UNL     1       1.298   3.444  20.676  0.00  0.00    +0.000 A 
ATOM      4  C   UNL     1       1.832   3.266  19.431  0.00  0.00    +0.000 A 
ATOM      5  C   UNL     1       2.265   4.552  18.991  0.00  0.00    +0.000 A 
ENDROOT
BRANCH   1   7
ATOM      6  C   UNL     1       0.978   7.685  20.110  0.00  0.00    +0.000 C 
ATOM      7  C   UNL     1       2.076   6.899  20.108  0.00  0.00    +0.000 C 
BRANCH   6  10
ATOM      8  C   UNL     1       1.005   9.302  22.609  0.00  0.00    +0.000 C 
ATOM      9  C   UNL     1       0.913   9.881  21.216  0.00  0.00    +0.000 C 
ATOM     10  C   UNL     1       0.955   9.152  20.072  0.00  0.00    +0.000 C 
ATOM     11  C   UNL     1       1.075   9.827  18.677  0.00  0.00    +0.000 C 
ATOM     12  C   UNL     1       2.237   9.253  17.830  0.00  0.00    +0.000 C 
ATOM     13  C   UNL     1      -0.237   9.630  17.889  0.00  0.00    +0.000 C 
ATOM     14  C   UNL     1       1.366  11.352  18.801  0.00  0.00    +0.000 C 
ATOM     15  C   UNL     1       0.524  12.016  19.875  0.00  0.00    +0.000 C 
ATOM     16  C   UNL     1       0.835  11.393  21.228  0.00  0.00    +0.000 C 
ENDBRANCH   6  10
ENDBRANCH   1   7
BRANCH   5  17
ATOM     17  C   UNL     1       2.942   4.832  17.748  0.00  0.00    +0.000 C 
ATOM     18  C   UNL     1       4.281   4.881  17.585  0.00  0.00    +0.000 C 
BRANCH  18  19
ATOM     19  C   UNL     1       5.050   5.253  16.390  0.00  0.00    +0.000 C 
ATOM     20  C   UNL     1       5.007   6.672  15.881  0.00  0.00    +0.000 C 
ATOM     21  C   UNL     1       5.819   4.315  15.789  0.00  0.00    +0.000 C 
BRANCH  21  22
ATOM     22  C   UNL     1       6.730   4.586  14.646  0.00  0.00    +0.000 C 
ATOM     23  O   UNL     1       7.725   5.283  14.687  0.00  0.00    +0.000 OA
BRANCH  22  24
ATOM     24  O   UNL     1       6.345   3.937  13.527  0.00  0.00    +0.000 OA
ATOM     25  H   UNL     1       6.671   3.025  13.430  0.00  0.00    +0.000 HD
ENDBRANCH  22  24
ENDBRANCH  21  22
ENDBRANCH  18  19
ENDBRANCH   5  17
TORSDOF 6
ENDMDL
MODEL 6
REMARK VINA RESULT:      -7.2      1.965      5.176
REMARK  Name = 
REMARK  10 active torsions:
REMARK  status: ('A' for Active; 'I' for Inactive)
REMARK    1  A    between atoms: C_1  and  C_2
REMARK    2  A    between atoms: C_3  and  C_4
REMARK    3  A    between atoms: C_5  and  C_6
REMARK    4  A    between atoms: C_10  and  C_11
REMARK    5  A    between atoms: C_12  and  C_13
REMARK    6  A    between atoms: C_13  and  C_14
REMARK    7  A    between atoms: C_15  and  C_16
REMARK    8  A    between atoms: C_16  and  O_18
REMARK    9  A    between atoms: C_19  and  C_20
REMARK   10  A    between atoms: C_19  and  C_21
REMARK                            x       y       z     vdW  Elec       q    Type
REMARK                         _______ _______ _______ _____ _____    ______ ____
ROOT
ATOM      1  C   UNL     1       5.543   4.161  15.906  0.00  0.00    +0.000 A 
ATOM      2  O   UNL     1       5.115   3.606  14.710  0.00  0.00    +0.000 OA
ATOM      3  C   UNL     1       5.886   4.060  13.704  0.00  0.00    +0.000 A 
ATOM      4  C   UNL     1       6.839   4.913  14.184  0.00  0.00    +0.000 A 
ATOM      5  C   UNL     1       6.648   4.978  15.596  0.00  0.00    +0.000 A 
ENDROOT
BRANCH   1   7
ATOM      6  C   UNL     1       3.647   4.429  17.375  0.00  0.00    +0.000 C 
ATOM      7  C   UNL     1       4.856   3.876  17.135  0.00  0.00    +0.000 C 
BRANCH   6  10
ATOM      8  C   UNL     1       2.595   6.872  18.710  0.00  0.00    +0.000 C 
ATOM      9  C   UNL     1       2.455   5.471  19.257  0.00  0.00    +0.000 C 
ATOM     10  C   UNL     1       2.885   4.348  18.628  0.00  0.00    +0.000 C 
ATOM     11  C   UNL     1       2.516   2.930  19.143  0.00  0.00    +0.000 C 
ATOM     12  C   UNL     1       1.900   2.032  18.042  0.00  0.00    +0.000 C 
ATOM     13  C   UNL     1       3.778   2.227  19.685  0.00  0.00    +0.000 C 
ATOM     14  C   UNL     1       1.447   2.991  20.275  0.00  0.00    +0.000 C 
ATOM     15  C   UNL     1       1.731   4.093  21.279  0.00  0.00    +0.000 C 
ATOM     16  C   UNL     1       1.712   5.443  20.577  0.00  0.00    +0.000 C 
ENDBRANCH   6  10
ENDBRANCH   1   7
BRANCH   5  17
ATOM     17  C   UNL     1       7.466   5.721  16.523  0.00  0.00    +0.000 C 
ATOM     18  C   UNL     1       7.078   6.830  17.187  0.00  0.00    +0.000 C 
BRANCH  18  19
ATOM     19  C   UNL     1       7.870   7.701  18.066  0.00  0.00    +0.000 C 
ATOM     20  C   UNL     1       8.543   7.124  19.286  0.00  0.00    +0.000 C 
ATOM     21  C   UNL     1       8.012   9.007  17.737  0.00  0.00    +0.000 C 
BRANCH  21  22
ATOM     22  C   UNL     1       8.875   9.966  18.474  0.00  0.00    +0.000 C 
ATOM     23  O   UNL     1       8.911  10.098  19.683  0.00  0.00    +0.000 OA
BRANCH  22  24
ATOM     24  O   UNL     1       9.663  10.680  17.644  0.00  0.00    +0.000 OA
ATOM     25  H   UNL     1       9.822  11.606  17.898  0.00  0.00    +0.000 HD
ENDBRANCH  22  24
ENDBRANCH  21  22
ENDBRANCH  18  19
ENDBRANCH   5  17
TORSDOF 6
ENDMDL
MODEL 7
REMARK VINA RESULT:      -7.1      2.962      6.150
REMARK  Name = 
REMARK  10 active torsions:
REMARK  status: ('A' for Active; 'I' for Inactive)
REMARK    1  A    between atoms: C_1  and  C_2
REMARK    2  A    between atoms: C_3  and  C_4
REMARK    3  A    between atoms: C_5  and  C_6
REMARK    4  A    between atoms: C_10  and  C_11
REMARK    5  A    between atoms: C_12  and  C_13
REMARK    6  A    between atoms: C_13  and  C_14
REMARK    7  A    between atoms: C_15  and  C_16
REMARK    8  A    between atoms: C_16  and  O_18
REMARK    9  A    between atoms: C_19  and  C_20
REMARK   10  A    between atoms: C_19  and  C_21
REMARK                            x       y       z     vdW  Elec       q    Type
REMARK                         _______ _______ _______ _____ _____    ______ ____
ROOT
ATOM      1  C   UNL     1       1.904   4.543  20.496  0.00  0.00    +0.000 A 
ATOM      2  O   UNL     1       1.180   3.715  21.341  0.00  0.00    +0.000 OA
ATOM      3  C   UNL     1       1.880   2.589  21.573  0.00  0.00    +0.000 A 
ATOM      4  C   UNL     1       3.073   2.626  20.908  0.00  0.00    +0.000 A 
ATOM      5  C   UNL     1       3.116   3.878  20.226  0.00  0.00    +0.000 A 
ENDROOT
BRANCH   1   7
ATOM      6  C   UNL     1       2.028   6.943  20.282  0.00  0.00    +0.000 C 
ATOM      7  C   UNL     1       1.358   5.794  20.051  0.00  0.00    +0.000 C 
BRANCH   6  10
ATOM      8  C   UNL     1       2.421   8.234  17.629  0.00  0.00    +0.000 C 
ATOM      9  C   UNL     1       1.777   8.905  18.819  0.00  0.00    +0.000 C 
ATOM     10  C   UNL     1       1.546   8.304  20.014  0.00  0.00    +0.000 C 
ATOM     11  C   UNL     1       0.686   8.981  21.117  0.00  0.00    +0.000 C 
ATOM     12  C   UNL     1      -0.449   8.067  21.640  0.00  0.00    +0.000 C 
ATOM     13  C   UNL     1       1.582   9.366  22.313  0.00  0.00    +0.000 C 
ATOM     14  C   UNL     1      -0.024  10.261  20.585  0.00  0.00    +0.000 C 
ATOM     15  C   UNL     1       0.891  11.117  19.730  0.00  0.00    +0.000 C 
ATOM     16  C   UNL     1       1.347  10.325  18.513  0.00  0.00    +0.000 C 
ENDBRANCH   6  10
ENDBRANCH   1   7
BRANCH   5  17
ATOM     17  C   UNL     1       4.220   4.369  19.438  0.00  0.00    +0.000 C 
ATOM     18  C   UNL     1       4.254   4.411  18.090  0.00  0.00    +0.000 C 
BRANCH  18  19
ATOM     19  C   UNL     1       5.365   4.799  17.209  0.00  0.00    +0.000 C 
ATOM     20  C   UNL     1       5.634   4.013  15.950  0.00  0.00    +0.000 C 
ATOM     21  C   UNL     1       6.103   5.888  17.529  0.00  0.00    +0.000 C 
BRANCH  21  22
ATOM     22  C   UNL     1       7.176   6.453  16.669  0.00  0.00    +0.000 C 
ATOM     23  O   UNL     1       7.587   5.958  15.636  0.00  0.00    +0.000 OA
BRANCH  22  24
ATOM     24  O   UNL     1       7.646   7.623  17.148  0.00  0.00    +0.000 OA
ATOM     25  H   UNL     1       7.730   8.345  16.501  0.00  0.00    +0.000 HD
ENDBRANCH  22  24
ENDBRANCH  21  22
ENDBRANCH  18  19
ENDBRANCH   5  17
TORSDOF 6
ENDMDL
MODEL 8
REMARK VINA RESULT:      -7.1      1.488      2.066
REMARK  Name = 
REMARK  10 active torsions:
REMARK  status: ('A' for Active; 'I' for Inactive)
REMARK    1  A    between atoms: C_1  and  C_2
REMARK    2  A    between atoms: C_3  and  C_4
REMARK    3  A    between atoms: C_5  and  C_6
REMARK    4  A    between atoms: C_10  and  C_11
REMARK    5  A    between atoms: C_12  and  C_13
REMARK    6  A    between atoms: C_13  and  C_14
REMARK    7  A    between atoms: C_15  and  C_16
REMARK    8  A    between atoms: C_16  and  O_18
REMARK    9  A    between atoms: C_19  and  C_20
REMARK   10  A    between atoms: C_19  and  C_21
REMARK                            x       y       z     vdW  Elec       q    Type
REMARK                         _______ _______ _______ _____ _____    ______ ____
ROOT
ATOM      1  C   UNL     1       5.626   4.985  16.492  0.00  0.00    +0.000 A 
ATOM      2  O   UNL     1       6.664   5.574  17.197  0.00  0.00    +0.000 OA
ATOM      3  C   UNL     1       7.702   5.793  16.369  0.00  0.00    +0.000 A 
ATOM      4  C   UNL     1       7.400   5.368  15.106  0.00  0.00    +0.000 A 
ATOM      5  C   UNL     1       6.066   4.863  15.159  0.00  0.00    +0.000 A 
ENDROOT
BRANCH   1   7
ATOM      6  C   UNL     1       4.345   4.618  18.504  0.00  0.00    +0.000 C 
ATOM      7  C   UNL     1       4.411   4.602  17.155  0.00  0.00    +0.000 C 
BRANCH   6  10
ATOM      8  C   UNL     1       2.244   6.464  19.523  0.00  0.00    +0.000 C 
ATOM      9  C   UNL     1       2.309   4.987  19.834  0.00  0.00    +0.000 C 
ATOM     10  C   UNL     1       3.233   4.130  19.329  0.00  0.00    +0.000 C 
ATOM     11  C   UNL     1       3.111   2.593  19.516  0.00  0.00    +0.000 C 
ATOM     12  C   UNL     1       3.215   1.814  18.182  0.00  0.00    +0.000 C 
ATOM     13  C   UNL     1       4.231   2.092  20.452  0.00  0.00    +0.000 C 
ATOM     14  C   UNL     1       1.732   2.196  20.122  0.00  0.00    +0.000 C 
ATOM     15  C   UNL     1       1.311   3.116  21.253  0.00  0.00    +0.000 C 
ATOM     16  C   UNL     1       1.176   4.540  20.733  0.00  0.00    +0.000 C 
ENDBRANCH   6  10
ENDBRANCH   1   7
BRANCH   5  17
ATOM     17  C   UNL     1       5.313   4.357  14.038  0.00  0.00    +0.000 C 
ATOM     18  C   UNL     1       5.814   3.587  13.049  0.00  0.00    +0.000 C 
BRANCH  18  19
ATOM     19  C   UNL     1       5.151   3.112  11.827  0.00  0.00    +0.000 C 
ATOM     20  C   UNL     1       5.600   1.826  11.180  0.00  0.00    +0.000 C 
ATOM     21  C   UNL     1       4.115   3.826  11.325  0.00  0.00    +0.000 C 
BRANCH  21  22
ATOM     22  C   UNL     1       3.289   3.398  10.166  0.00  0.00    +0.000 C 
ATOM     23  O   UNL     1       3.339   3.877   9.049  0.00  0.00    +0.000 OA
BRANCH  22  24
ATOM     24  O   UNL     1       2.469   2.372  10.479  0.00  0.00    +0.000 OA
ATOM     25  H   UNL     1       1.517   2.537  10.363  0.00  0.00    +0.000 HD
ENDBRANCH  22  24
ENDBRANCH  21  22
ENDBRANCH  18  19
ENDBRANCH   5  17
TORSDOF 6
ENDMDL
MODEL 9
REMARK VINA RESULT:      -7.0      2.512      5.935
REMARK  Name = 
REMARK  10 active torsions:
REMARK  status: ('A' for Active; 'I' for Inactive)
REMARK    1  A    between atoms: C_1  and  C_2
REMARK    2  A    between atoms: C_3  and  C_4
REMARK    3  A    between atoms: C_5  and  C_6
REMARK    4  A    between atoms: C_10  and  C_11
REMARK    5  A    between atoms: C_12  and  C_13
REMARK    6  A    between atoms: C_13  and  C_14
REMARK    7  A    between atoms: C_15  and  C_16
REMARK    8  A    between atoms: C_16  and  O_18
REMARK    9  A    between atoms: C_19  and  C_20
REMARK   10  A    between atoms: C_19  and  C_21
REMARK                            x       y       z     vdW  Elec       q    Type
REMARK                         _______ _______ _______ _____ _____    ______ ____
ROOT
ATOM      1  C   UNL     1       6.253   5.082  17.326  0.00  0.00    +0.000 A 
ATOM      2  O   UNL     1       6.319   4.177  16.278  0.00  0.00    +0.000 OA
ATOM      3  C   UNL     1       7.147   4.649  15.328  0.00  0.00    +0.000 A 
ATOM      4  C   UNL     1       7.655   5.862  15.701  0.00  0.00    +0.000 A 
ATOM      5  C   UNL     1       7.108   6.149  16.987  0.00  0.00    +0.000 A 
ENDROOT
BRANCH   1   7
ATOM      6  C   UNL     1       4.388   3.947  18.355  0.00  0.00    +0.000 C 
ATOM      7  C   UNL     1       5.397   4.840  18.453  0.00  0.00    +0.000 C 
BRANCH   6  10
ATOM      8  C   UNL     1       4.833   2.021  20.580  0.00  0.00    +0.000 C 
ATOM      9  C   UNL     1       3.542   2.769  20.341  0.00  0.00    +0.000 C 
ATOM     10  C   UNL     1       3.351   3.688  19.361  0.00  0.00    +0.000 C 
ATOM     11  C   UNL     1       2.076   4.574  19.309  0.00  0.00    +0.000 C 
ATOM     12  C   UNL     1       2.397   6.084  19.197  0.00  0.00    +0.000 C 
ATOM     13  C   UNL     1       1.214   4.175  18.092  0.00  0.00    +0.000 C 
ATOM     14  C   UNL     1       1.221   4.426  20.602  0.00  0.00    +0.000 C 
ATOM     15  C   UNL     1       1.102   2.982  21.054  0.00  0.00    +0.000 C 
ATOM     16  C   UNL     1       2.484   2.427  21.369  0.00  0.00    +0.000 C 
ENDBRANCH   6  10
ENDBRANCH   1   7
BRANCH   5  17
ATOM     17  C   UNL     1       7.412   7.308  17.791  0.00  0.00    +0.000 C 
ATOM     18  C   UNL     1       7.987   8.440  17.335  0.00  0.00    +0.000 C 
BRANCH  18  19
ATOM     19  C   UNL     1       8.421   9.622  18.094  0.00  0.00    +0.000 C 
ATOM     20  C   UNL     1       7.936  10.992  17.692  0.00  0.00    +0.000 C 
ATOM     21  C   UNL     1       9.223   9.449  19.171  0.00  0.00    +0.000 C 
BRANCH  21  22
ATOM     22  C   UNL     1       9.639  10.542  20.088  0.00  0.00    +0.000 C 
ATOM     23  O   UNL     1      10.375  11.466  19.796  0.00  0.00    +0.000 OA
BRANCH  22  24
ATOM     24  O   UNL     1       9.079  10.421  21.310  0.00  0.00    +0.000 OA
ATOM     25  H   UNL     1       8.217   9.969  21.340  0.00  0.00    +0.000 HD
ENDBRANCH  22  24
ENDBRANCH  21  22
ENDBRANCH  18  19
ENDBRANCH   5  17
TORSDOF 6
ENDMDL
