MODEL 1
REMARK VINA RESULT:      -7.3      0.000      0.000
REMARK  Name = 
REMARK  4 active torsions:
REMARK  status: ('A' for Active; 'I' for Inactive)
REMARK    1  A    between atoms: N_3  and  N_4
REMARK    2  A    between atoms: C_5  and  C_6
REMARK    3  A    between atoms: C_12  and  O_13
REMARK    4  A    between atoms: N_14  and  C_15
REMARK                            x       y       z     vdW  Elec       q    Type
REMARK                         _______ _______ _______ _____ _____    ______ ____
ROOT
ATOM      1  O   UNL     1       8.713   8.234  18.878  0.00  0.00    +0.000 OA
ATOM      2  C   UNL     1       8.235   9.025  18.070  0.00  0.00    +0.000 C 
ATOM      3  N   UNL     1       7.212   8.685  17.187  0.00  0.00    +0.000 N 
ATOM      4  N   UNL     1       8.610  10.354  17.932  0.00  0.00    +0.000 N 
ATOM      5  H   UNL     1       6.992   9.280  16.401  0.00  0.00    +0.000 HD
ATOM      6  H   UNL     1       7.951  10.959  17.470  0.00  0.00    +0.000 HD
ENDROOT
BRANCH   4   7
ATOM      7  C   UNL     1       9.693  10.977  18.597  0.00  0.00    +0.000 A 
ATOM      8  C   UNL     1       9.709  11.210  19.974  0.00  0.00    +0.000 A 
ATOM      9  C   UNL     1      10.811  11.816  20.583  0.00  0.00    +0.000 A 
ATOM     10  C   UNL     1      11.910  12.195  19.819  0.00  0.00    +0.000 A 
ATOM     11  C   UNL     1      11.908  11.963  18.445  0.00  0.00    +0.000 A 
ATOM     12  C   UNL     1      10.806  11.350  17.837  0.00  0.00    +0.000 A 
ENDBRANCH   4   7
BRANCH   3  13
ATOM     13  N   UNL     1       6.749   7.402  17.198  0.00  0.00    +0.000 NA
ATOM     14  C   UNL     1       5.472   7.234  17.083  0.00  0.00    +0.000 C 
BRANCH  14  15
ATOM     15  C   UNL     1       4.890   5.874  17.084  0.00  0.00    +0.000 A 
ATOM     16  C   UNL     1       3.734   5.613  17.834  0.00  0.00    +0.000 A 
ATOM     17  C   UNL     1       3.175   4.337  17.815  0.00  0.00    +0.000 A 
ATOM     18 BR   UNL     1       1.617   3.977  18.824  0.00  0.00    +0.000 Br
ATOM     19  C   UNL     1       3.754   3.320  17.056  0.00  0.00    +0.000 A 
ATOM     20  C   UNL     1       4.909   3.578  16.312  0.00  0.00    +0.000 A 
ATOM     21  C   UNL     1       5.475   4.854  16.328  0.00  0.00    +0.000 A 
BRANCH  21  22
ATOM     22  O   UNL     1       6.601   5.105  15.596  0.00  0.00    +0.000 OA
ATOM     23  H   UNL     1       6.465   5.912  15.069  0.00  0.00    +0.000 HD
ENDBRANCH  21  22
ENDBRANCH  14  15
ENDBRANCH   3  13
TORSDOF 4
ENDMDL
MODEL 2
REMARK VINA RESULT:      -7.2      0.682      1.272
REMARK  Name = 
REMARK  4 active torsions:
REMARK  status: ('A' for Active; 'I' for Inactive)
REMARK    1  A    between atoms: N_3  and  N_4
REMARK    2  A    between atoms: C_5  and  C_6
REMARK    3  A    between atoms: C_12  and  O_13
REMARK    4  A    between atoms: N_14  and  C_15
REMARK                            x       y       z     vdW  Elec       q    Type
REMARK                         _______ _______ _______ _____ _____    ______ ____
ROOT
ATOM      1  O   UNL     1       8.683   8.092  18.830  0.00  0.00    +0.000 OA
ATOM      2  C   UNL     1       8.188   8.883  18.033  0.00  0.00    +0.000 C 
ATOM      3  N   UNL     1       7.165   8.535  17.154  0.00  0.00    +0.000 N 
ATOM      4  N   UNL     1       8.543  10.219  17.905  0.00  0.00    +0.000 N 
ATOM      5  H   UNL     1       6.931   9.134  16.375  0.00  0.00    +0.000 HD
ATOM      6  H   UNL     1       7.872  10.818  17.452  0.00  0.00    +0.000 HD
ENDROOT
BRANCH   4   7
ATOM      7  C   UNL     1       9.620  10.851  18.568  0.00  0.00    +0.000 A 
ATOM      8  C   UNL     1      10.782  11.267  17.912  0.00  0.00    +0.000 A 
ATOM      9  C   UNL     1      11.810  11.902  18.613  0.00  0.00    +0.000 A 
ATOM     10  C   UNL     1      11.687  12.127  19.980  0.00  0.00    +0.000 A 
ATOM     11  C   UNL     1      10.532  11.722  20.646  0.00  0.00    +0.000 A 
ATOM     12  C   UNL     1       9.499  11.092  19.941  0.00  0.00    +0.000 A 
ENDBRANCH   4   7
BRANCH   3  13
ATOM     13  N   UNL     1       6.721   7.245  17.157  0.00  0.00    +0.000 NA
ATOM     14  C   UNL     1       5.489   7.046  17.496  0.00  0.00    +0.000 C 
BRANCH  14  15
ATOM     15  C   UNL     1       4.929   5.677  17.521  0.00  0.00    +0.000 A 
ATOM     16  C   UNL     1       4.294   5.207  18.680  0.00  0.00    +0.000 A 
ATOM     17  C   UNL     1       3.748   3.926  18.695  0.00  0.00    +0.000 A 
ATOM     18 BR   UNL     1       2.889   3.287  20.253  0.00  0.00    +0.000 Br
ATOM     19  C   UNL     1       3.827   3.109  17.567  0.00  0.00    +0.000 A 
ATOM     20  C   UNL     1       4.465   3.573  16.413  0.00  0.00    +0.000 A 
ATOM     21  C   UNL     1       5.016   4.856  16.393  0.00  0.00    +0.000 A 
BRANCH  21  22
ATOM     22  O   UNL     1       5.634   5.310  15.262  0.00  0.00    +0.000 OA
ATOM     23  H   UNL     1       6.596   5.320  15.408  0.00  0.00    +0.000 HD
ENDBRANCH  21  22
ENDBRANCH  14  15
ENDBRANCH   3  13
TORSDOF 4
ENDMDL
MODEL 3
REMARK VINA RESULT:      -7.2      1.565      1.939
REMARK  Name = 
REMARK  4 active torsions:
REMARK  status: ('A' for Active; 'I' for Inactive)
REMARK    1  A    between atoms: N_3  and  N_4
REMARK    2  A    between atoms: C_5  and  C_6
REMARK    3  A    between atoms: C_12  and  O_13
REMARK    4  A    between atoms: N_14  and  C_15
REMARK                            x       y       z     vdW  Elec       q    Type
REMARK                         _______ _______ _______ _____ _____    ______ ____
ROOT
ATOM      1  O   UNL     1       7.978   9.854  17.866  0.00  0.00    +0.000 OA
ATOM      2  C   UNL     1       8.665   9.241  18.677  0.00  0.00    +0.000 C 
ATOM      3  N   UNL     1       8.610   7.857  18.827  0.00  0.00    +0.000 N 
ATOM      4  N   UNL     1       9.598   9.813  19.530  0.00  0.00    +0.000 N 
ATOM      5  H   UNL     1       9.020   7.411  19.636  0.00  0.00    +0.000 HD
ATOM      6  H   UNL     1      10.296   9.194  19.910  0.00  0.00    +0.000 HD
ENDROOT
BRANCH   4   7
ATOM      7  C   UNL     1       9.812  11.201  19.705  0.00  0.00    +0.000 A 
ATOM      8  C   UNL     1      10.450  12.000  18.753  0.00  0.00    +0.000 A 
ATOM      9  C   UNL     1      10.621  13.369  18.969  0.00  0.00    +0.000 A 
ATOM     10  C   UNL     1      10.157  13.955  20.142  0.00  0.00    +0.000 A 
ATOM     11  C   UNL     1       9.515  13.170  21.098  0.00  0.00    +0.000 A 
ATOM     12  C   UNL     1       9.337  11.799  20.877  0.00  0.00    +0.000 A 
ENDBRANCH   4   7
BRANCH   3  13
ATOM     13  N   UNL     1       7.724   7.158  18.061  0.00  0.00    +0.000 NA
ATOM     14  C   UNL     1       7.156   6.131  18.605  0.00  0.00    +0.000 C 
BRANCH  14  15
ATOM     15  C   UNL     1       6.180   5.322  17.841  0.00  0.00    +0.000 A 
ATOM     16  C   UNL     1       4.826   5.341  18.206  0.00  0.00    +0.000 A 
ATOM     17  C   UNL     1       3.905   4.596  17.472  0.00  0.00    +0.000 A 
ATOM     18 BR   UNL     1       2.078   4.617  17.957  0.00  0.00    +0.000 Br
ATOM     19  C   UNL     1       4.319   3.836  16.379  0.00  0.00    +0.000 A 
ATOM     20  C   UNL     1       5.670   3.811  16.018  0.00  0.00    +0.000 A 
ATOM     21  C   UNL     1       6.597   4.554  16.751  0.00  0.00    +0.000 A 
BRANCH  21  22
ATOM     22  O   UNL     1       7.916   4.534  16.392  0.00  0.00    +0.000 OA
ATOM     23  H   UNL     1       8.380   3.862  16.923  0.00  0.00    +0.000 HD
ENDBRANCH  21  22
ENDBRANCH  14  15
ENDBRANCH   3  13
TORSDOF 4
ENDMDL
MODEL 4
REMARK VINA RESULT:      -7.0      1.617      1.771
REMARK  Name = 
REMARK  4 active torsions:
REMARK  status: ('A' for Active; 'I' for Inactive)
REMARK    1  A    between atoms: N_3  and  N_4
REMARK    2  A    between atoms: C_5  and  C_6
REMARK    3  A    between atoms: C_12  and  O_13
REMARK    4  A    between atoms: N_14  and  C_15
REMARK                            x       y       z     vdW  Elec       q    Type
REMARK                         _______ _______ _______ _____ _____    ______ ____
ROOT
ATOM      1  O   UNL     1       8.092   9.954  17.848  0.00  0.00    +0.000 OA
ATOM      2  C   UNL     1       8.699   9.304  18.693  0.00  0.00    +0.000 C 
ATOM      3  N   UNL     1       8.565   7.924  18.831  0.00  0.00    +0.000 N 
ATOM      4  N   UNL     1       9.609   9.825  19.602  0.00  0.00    +0.000 N 
ATOM      5  H   UNL     1       8.904   7.455  19.658  0.00  0.00    +0.000 HD
ATOM      6  H   UNL     1      10.252   9.170  20.017  0.00  0.00    +0.000 HD
ENDROOT
BRANCH   4   7
ATOM      7  C   UNL     1       9.883  11.199  19.797  0.00  0.00    +0.000 A 
ATOM      8  C   UNL     1       9.221  11.981  20.747  0.00  0.00    +0.000 A 
ATOM      9  C   UNL     1       9.542  13.331  20.909  0.00  0.00    +0.000 A 
ATOM     10  C   UNL     1      10.529  13.914  20.122  0.00  0.00    +0.000 A 
ATOM     11  C   UNL     1      11.201  13.144  19.174  0.00  0.00    +0.000 A 
ATOM     12  C   UNL     1      10.884  11.789  19.017  0.00  0.00    +0.000 A 
ENDBRANCH   4   7
BRANCH   3  13
ATOM     13  N   UNL     1       7.690   7.275  18.011  0.00  0.00    +0.000 NA
ATOM     14  C   UNL     1       7.491   6.017  18.238  0.00  0.00    +0.000 C 
BRANCH  14  15
ATOM     15  C   UNL     1       6.555   5.241  17.395  0.00  0.00    +0.000 A 
ATOM     16  C   UNL     1       5.506   4.530  17.996  0.00  0.00    +0.000 A 
ATOM     17  C   UNL     1       4.611   3.818  17.199  0.00  0.00    +0.000 A 
ATOM     18 BR   UNL     1       3.194   2.858  18.002  0.00  0.00    +0.000 Br
ATOM     19  C   UNL     1       4.751   3.810  15.811  0.00  0.00    +0.000 A 
ATOM     20  C   UNL     1       5.799   4.513  15.211  0.00  0.00    +0.000 A 
ATOM     21  C   UNL     1       6.700   5.227  16.005  0.00  0.00    +0.000 A 
BRANCH  21  22
ATOM     22  O   UNL     1       7.720   5.918  15.416  0.00  0.00    +0.000 OA
ATOM     23  H   UNL     1       7.363   6.724  15.003  0.00  0.00    +0.000 HD
ENDBRANCH  21  22
ENDBRANCH  14  15
ENDBRANCH   3  13
TORSDOF 4
ENDMDL
MODEL 5
REMARK VINA RESULT:      -7.0      6.039      8.563
REMARK  Name = 
REMARK  4 active torsions:
REMARK  status: ('A' for Active; 'I' for Inactive)
REMARK    1  A    between atoms: N_3  and  N_4
REMARK    2  A    between atoms: C_5  and  C_6
REMARK    3  A    between atoms: C_12  and  O_13
REMARK    4  A    between atoms: N_14  and  C_15
REMARK                            x       y       z     vdW  Elec       q    Type
REMARK                         _______ _______ _______ _____ _____    ______ ____
ROOT
ATOM      1  O   UNL     1       2.562   7.090  18.651  0.00  0.00    +0.000 OA
ATOM      2  C   UNL     1       2.768   6.439  19.671  0.00  0.00    +0.000 C 
ATOM      3  N   UNL     1       2.037   6.612  20.845  0.00  0.00    +0.000 N 
ATOM      4  N   UNL     1       3.720   5.437  19.803  0.00  0.00    +0.000 N 
ATOM      5  H   UNL     1       2.365   6.223  21.717  0.00  0.00    +0.000 HD
ATOM      6  H   UNL     1       3.584   4.787  20.560  0.00  0.00    +0.000 HD
ENDROOT
BRANCH   4   7
ATOM      7  C   UNL     1       4.696   5.097  18.837  0.00  0.00    +0.000 A 
ATOM      8  C   UNL     1       4.381   4.505  17.611  0.00  0.00    +0.000 A 
ATOM      9  C   UNL     1       5.384   4.203  16.685  0.00  0.00    +0.000 A 
ATOM     10  C   UNL     1       6.713   4.490  16.977  0.00  0.00    +0.000 A 
ATOM     11  C   UNL     1       7.040   5.085  18.194  0.00  0.00    +0.000 A 
ATOM     12  C   UNL     1       6.034   5.393  19.118  0.00  0.00    +0.000 A 
ENDBRANCH   4   7
BRANCH   3  13
ATOM     13  N   UNL     1       1.073   7.576  20.869  0.00  0.00    +0.000 NA
ATOM     14  C   UNL     1       1.360   8.683  21.472  0.00  0.00    +0.000 C 
BRANCH  14  15
ATOM     15  C   UNL     1       0.369   9.780  21.540  0.00  0.00    +0.000 A 
ATOM     16  C   UNL     1      -0.080  10.384  20.357  0.00  0.00    +0.000 A 
ATOM     17  C   UNL     1      -1.030  11.402  20.421  0.00  0.00    +0.000 A 
ATOM     18 BR   UNL     1      -1.641  12.220  18.830  0.00  0.00    +0.000 Br
ATOM     19  C   UNL     1      -1.537  11.821  21.651  0.00  0.00    +0.000 A 
ATOM     20  C   UNL     1      -1.086  11.224  22.832  0.00  0.00    +0.000 A 
ATOM     21  C   UNL     1      -0.132  10.205  22.773  0.00  0.00    +0.000 A 
BRANCH  21  22
ATOM     22  O   UNL     1       0.303   9.619  23.928  0.00  0.00    +0.000 OA
ATOM     23  H   UNL     1      -0.462   9.439  24.503  0.00  0.00    +0.000 HD
ENDBRANCH  21  22
ENDBRANCH  14  15
ENDBRANCH   3  13
TORSDOF 4
ENDMDL
MODEL 6
REMARK VINA RESULT:      -7.0      6.030      8.524
REMARK  Name = 
REMARK  4 active torsions:
REMARK  status: ('A' for Active; 'I' for Inactive)
REMARK    1  A    between atoms: N_3  and  N_4
REMARK    2  A    between atoms: C_5  and  C_6
REMARK    3  A    between atoms: C_12  and  O_13
REMARK    4  A    between atoms: N_14  and  C_15
REMARK                            x       y       z     vdW  Elec       q    Type
REMARK                         _______ _______ _______ _____ _____    ______ ____
ROOT
ATOM      1  O   UNL     1       2.953   7.453  18.293  0.00  0.00    +0.000 OA
ATOM      2  C   UNL     1       3.023   6.736  19.287  0.00  0.00    +0.000 C 
ATOM      3  N   UNL     1       2.230   6.924  20.417  0.00  0.00    +0.000 N 
ATOM      4  N   UNL     1       3.862   5.638  19.426  0.00  0.00    +0.000 N 
ATOM      5  H   UNL     1       2.456   6.462  21.286  0.00  0.00    +0.000 HD
ATOM      6  H   UNL     1       3.609   4.970  20.135  0.00  0.00    +0.000 HD
ENDROOT
BRANCH   4   7
ATOM      7  C   UNL     1       4.866   5.249  18.509  0.00  0.00    +0.000 A 
ATOM      8  C   UNL     1       6.227   5.476  18.728  0.00  0.00    +0.000 A 
ATOM      9  C   UNL     1       7.180   5.057  17.796  0.00  0.00    +0.000 A 
ATOM     10  C   UNL     1       6.781   4.406  16.634  0.00  0.00    +0.000 A 
ATOM     11  C   UNL     1       5.427   4.169  16.405  0.00  0.00    +0.000 A 
ATOM     12  C   UNL     1       4.473   4.583  17.343  0.00  0.00    +0.000 A 
ENDBRANCH   4   7
BRANCH   3  13
ATOM     13  N   UNL     1       1.364   7.978  20.431  0.00  0.00    +0.000 NA
ATOM     14  C   UNL     1       1.156   8.556  21.569  0.00  0.00    +0.000 C 
BRANCH  14  15
ATOM     15  C   UNL     1       0.233   9.708  21.667  0.00  0.00    +0.000 A 
ATOM     16  C   UNL     1      -0.113  10.423  20.511  0.00  0.00    +0.000 A 
ATOM     17  C   UNL     1      -1.000  11.493  20.602  0.00  0.00    +0.000 A 
ATOM     18 BR   UNL     1      -1.470  12.460  19.047  0.00  0.00    +0.000 Br
ATOM     19  C   UNL     1      -1.547  11.857  21.832  0.00  0.00    +0.000 A 
ATOM     20  C   UNL     1      -1.200  11.149  22.987  0.00  0.00    +0.000 A 
ATOM     21  C   UNL     1      -0.310  10.077  22.902  0.00  0.00    +0.000 A 
BRANCH  21  22
ATOM     22  O   UNL     1       0.024   9.383  24.030  0.00  0.00    +0.000 OA
ATOM     23  H   UNL     1      -0.754   8.889  24.343  0.00  0.00    +0.000 HD
ENDBRANCH  21  22
ENDBRANCH  14  15
ENDBRANCH   3  13
TORSDOF 4
ENDMDL
MODEL 7
REMARK VINA RESULT:      -6.8      3.695      8.975
REMARK  Name = 
REMARK  4 active torsions:
REMARK  status: ('A' for Active; 'I' for Inactive)
REMARK    1  A    between atoms: N_3  and  N_4
REMARK    2  A    between atoms: C_5  and  C_6
REMARK    3  A    between atoms: C_12  and  O_13
REMARK    4  A    between atoms: N_14  and  C_15
REMARK                            x       y       z     vdW  Elec       q    Type
REMARK                         _______ _______ _______ _____ _____    ______ ____
ROOT
ATOM      1  O   UNL     1       7.364   8.469  17.080  0.00  0.00    +0.000 OA
ATOM      2  C   UNL     1       7.808   7.805  18.011  0.00  0.00    +0.000 C 
ATOM      3  N   UNL     1       8.701   8.315  18.951  0.00  0.00    +0.000 N 
ATOM      4  N   UNL     1       7.480   6.483  18.281  0.00  0.00    +0.000 N 
ATOM      5  H   UNL     1       9.208   7.697  19.568  0.00  0.00    +0.000 HD
ATOM      6  H   UNL     1       7.659   6.160  19.218  0.00  0.00    +0.000 HD
ENDROOT
BRANCH   4   7
ATOM      7  C   UNL     1       6.693   5.646  17.457  0.00  0.00    +0.000 A 
ATOM      8  C   UNL     1       7.228   4.868  16.427  0.00  0.00    +0.000 A 
ATOM      9  C   UNL     1       6.407   4.046  15.652  0.00  0.00    +0.000 A 
ATOM     10  C   UNL     1       5.039   3.994  15.898  0.00  0.00    +0.000 A 
ATOM     11  C   UNL     1       4.492   4.761  16.925  0.00  0.00    +0.000 A 
ATOM     12  C   UNL     1       5.317   5.580  17.706  0.00  0.00    +0.000 A 
ENDBRANCH   4   7
BRANCH   3  13
ATOM     13  N   UNL     1       9.127   9.603  18.805  0.00  0.00    +0.000 NA
ATOM     14  C   UNL     1       9.534  10.215  19.870  0.00  0.00    +0.000 C 
BRANCH  14  15
ATOM     15  C   UNL     1      10.014  11.612  19.795  0.00  0.00    +0.000 A 
ATOM     16  C   UNL     1      10.457  12.130  18.569  0.00  0.00    +0.000 A 
ATOM     17  C   UNL     1      10.887  13.453  18.496  0.00  0.00    +0.000 A 
ATOM     18 BR   UNL     1      11.484  14.158  16.847  0.00  0.00    +0.000 Br
ATOM     19  C   UNL     1      10.880  14.265  19.631  0.00  0.00    +0.000 A 
ATOM     20  C   UNL     1      10.445  13.748  20.855  0.00  0.00    +0.000 A 
ATOM     21  C   UNL     1      10.014  12.422  20.934  0.00  0.00    +0.000 A 
BRANCH  21  22
ATOM     22  O   UNL     1       9.583  11.921  22.130  0.00  0.00    +0.000 OA
ATOM     23  H   UNL     1       9.597  12.631  22.796  0.00  0.00    +0.000 HD
ENDBRANCH  21  22
ENDBRANCH  14  15
ENDBRANCH   3  13
TORSDOF 4
ENDMDL
MODEL 8
REMARK VINA RESULT:      -6.8      1.477      1.491
REMARK  Name = 
REMARK  4 active torsions:
REMARK  status: ('A' for Active; 'I' for Inactive)
REMARK    1  A    between atoms: N_3  and  N_4
REMARK    2  A    between atoms: C_5  and  C_6
REMARK    3  A    between atoms: C_12  and  O_13
REMARK    4  A    between atoms: N_14  and  C_15
REMARK                            x       y       z     vdW  Elec       q    Type
REMARK                         _______ _______ _______ _____ _____    ______ ____
ROOT
ATOM      1  O   UNL     1       7.565   9.283  17.768  0.00  0.00    +0.000 OA
ATOM      2  C   UNL     1       8.374   8.727  18.505  0.00  0.00    +0.000 C 
ATOM      3  N   UNL     1       8.343   7.360  18.773  0.00  0.00    +0.000 N 
ATOM      4  N   UNL     1       9.433   9.353  19.147  0.00  0.00    +0.000 N 
ATOM      5  H   UNL     1       8.877   6.975  19.538  0.00  0.00    +0.000 HD
ATOM      6  H   UNL     1      10.182   8.756  19.458  0.00  0.00    +0.000 HD
ENDROOT
BRANCH   4   7
ATOM      7  C   UNL     1       9.673  10.746  19.172  0.00  0.00    +0.000 A 
ATOM      8  C   UNL     1       9.410  11.546  20.287  0.00  0.00    +0.000 A 
ATOM      9  C   UNL     1       9.681  12.916  20.263  0.00  0.00    +0.000 A 
ATOM     10  C   UNL     1      10.219  13.502  19.123  0.00  0.00    +0.000 A 
ATOM     11  C   UNL     1      10.491  12.715  18.005  0.00  0.00    +0.000 A 
ATOM     12  C   UNL     1      10.226  11.341  18.032  0.00  0.00    +0.000 A 
ENDBRANCH   4   7
BRANCH   3  13
ATOM     13  N   UNL     1       7.344   6.615  18.219  0.00  0.00    +0.000 NA
ATOM     14  C   UNL     1       6.690   5.825  19.008  0.00  0.00    +0.000 C 
BRANCH  14  15
ATOM     15  C   UNL     1       5.590   4.985  18.485  0.00  0.00    +0.000 A 
ATOM     16  C   UNL     1       4.357   4.961  19.153  0.00  0.00    +0.000 A 
ATOM     17  C   UNL     1       3.315   4.187  18.646  0.00  0.00    +0.000 A 
ATOM     18 BR   UNL     1       1.650   4.151  19.541  0.00  0.00    +0.000 Br
ATOM     19  C   UNL     1       3.488   3.440  17.482  0.00  0.00    +0.000 A 
ATOM     20  C   UNL     1       4.718   3.458  16.818  0.00  0.00    +0.000 A 
ATOM     21  C   UNL     1       5.767   4.230  17.322  0.00  0.00    +0.000 A 
BRANCH  21  22
ATOM     22  O   UNL     1       6.967   4.251  16.668  0.00  0.00    +0.000 OA
ATOM     23  H   UNL     1       7.525   3.527  17.003  0.00  0.00    +0.000 HD
ENDBRANCH  21  22
ENDBRANCH  14  15
ENDBRANCH   3  13
TORSDOF 4
ENDMDL
MODEL 9
REMARK VINA RESULT:      -6.8      3.492      8.722
REMARK  Name = 
REMARK  4 active torsions:
REMARK  status: ('A' for Active; 'I' for Inactive)
REMARK    1  A    between atoms: N_3  and  N_4
REMARK    2  A    between atoms: C_5  and  C_6
REMARK    3  A    between atoms: C_12  and  O_13
REMARK    4  A    between atoms: N_14  and  C_15
REMARK                            x       y       z     vdW  Elec       q    Type
REMARK                         _______ _______ _______ _____ _____    ______ ____
ROOT
ATOM      1  O   UNL     1       7.529   6.541  18.846  0.00  0.00    +0.000 OA
ATOM      2  C   UNL     1       6.877   7.084  17.960  0.00  0.00    +0.000 C 
ATOM      3  N   UNL     1       7.245   8.298  17.381  0.00  0.00    +0.000 N 
ATOM      4  N   UNL     1       5.718   6.575  17.392  0.00  0.00    +0.000 N 
ATOM      5  H   UNL     1       6.588   8.818  16.818  0.00  0.00    +0.000 HD
ATOM      6  H   UNL     1       5.461   6.945  16.491  0.00  0.00    +0.000 HD
ENDROOT
BRANCH   4   7
ATOM      7  C   UNL     1       5.022   5.425  17.831  0.00  0.00    +0.000 A 
ATOM      8  C   UNL     1       4.440   5.323  19.097  0.00  0.00    +0.000 A 
ATOM      9  C   UNL     1       3.751   4.168  19.475  0.00  0.00    +0.000 A 
ATOM     10  C   UNL     1       3.637   3.101  18.590  0.00  0.00    +0.000 A 
ATOM     11  C   UNL     1       4.209   3.192  17.323  0.00  0.00    +0.000 A 
ATOM     12  C   UNL     1       4.893   4.352  16.942  0.00  0.00    +0.000 A 
ENDBRANCH   4   7
BRANCH   3  13
ATOM     13  N   UNL     1       8.361   8.926  17.850  0.00  0.00    +0.000 NA
ATOM     14  C   UNL     1       8.294  10.208  18.009  0.00  0.00    +0.000 C 
BRANCH  14  15
ATOM     15  C   UNL     1       9.460  10.963  18.517  0.00  0.00    +0.000 A 
ATOM     16  C   UNL     1      10.213  11.754  17.636  0.00  0.00    +0.000 A 
ATOM     17  C   UNL     1      11.297  12.482  18.121  0.00  0.00    +0.000 A 
ATOM     18 BR   UNL     1      12.316  13.550  16.939  0.00  0.00    +0.000 Br
ATOM     19  C   UNL     1      11.638  12.432  19.472  0.00  0.00    +0.000 A 
ATOM     20  C   UNL     1      10.893  11.639  20.350  0.00  0.00    +0.000 A 
ATOM     21  C   UNL     1       9.805  10.906  19.870  0.00  0.00    +0.000 A 
BRANCH  21  22
ATOM     22  O   UNL     1       9.075  10.137  20.731  0.00  0.00    +0.000 OA
ATOM     23  H   UNL     1       8.137  10.171  20.471  0.00  0.00    +0.000 HD
ENDBRANCH  21  22
ENDBRANCH  14  15
ENDBRANCH   3  13
TORSDOF 4
ENDMDL
