MODEL 1
REMARK VINA RESULT:      -9.5      0.000      0.000
REMARK  Name = 
REMARK  5 active torsions:
REMARK  status: ('A' for Active; 'I' for Inactive)
REMARK    1  A    between atoms: C_4  and  C_5
REMARK    2  A    between atoms: C_8  and  N_9
REMARK    3  A    between atoms: N_9  and  C_10
REMARK    4  A    between atoms: C_13  and  C_14
REMARK    5  A    between atoms: C_14  and  C_15
REMARK                            x       y       z     vdW  Elec       q    Type
REMARK                         _______ _______ _______ _____ _____    ______ ____
ROOT
ATOM      1  C   UNL     1       2.081   7.395  19.940  0.00  0.00    +0.000 A 
ATOM      2  N   UNL     1       1.865   8.253  18.896  0.00  0.00    +0.000 NA
ATOM      3  N   UNL     1       2.435   7.993  17.717  0.00  0.00    +0.000 NA
ATOM      4  C   UNL     1       3.082   6.840  17.632  0.00  0.00    +0.000 A 
ATOM      5  C   UNL     1       2.378   5.854  18.316  0.00  0.00    +0.000 A 
ATOM      6  C   UNL     1       1.611   4.794  17.787  0.00  0.00    +0.000 A 
ATOM      7  C   UNL     1       2.032   3.511  18.035  0.00  0.00    +0.000 A 
ATOM      8  C   UNL     1       3.101   3.421  18.907  0.00  0.00    +0.000 A 
ATOM      9  C   UNL     1       3.315   4.549  19.787  0.00  0.00    +0.000 A 
ATOM     10  C   UNL     1       2.604   5.921  19.621  0.00  0.00    +0.000 A 
ENDROOT
BRANCH   1  11
ATOM     11  N   UNL     1       1.950   8.041  21.222  0.00  0.00    +0.000 N 
ATOM     12  H   UNL     1       2.872   8.441  21.397  0.00  0.00    +0.000 HD
BRANCH  11  16
ATOM     13  C   UNL     1      -0.909  11.274  22.491  0.00  0.00    +0.000 A 
ATOM     14  C   UNL     1      -0.147  11.372  21.300  0.00  0.00    +0.000 A 
ATOM     15  C   UNL     1       0.756  10.319  20.846  0.00  0.00    +0.000 A 
ATOM     16  C   UNL     1       0.993   9.132  21.563  0.00  0.00    +0.000 A 
ATOM     17  C   UNL     1       0.121   8.980  22.663  0.00  0.00    +0.000 A 
ATOM     18  C   UNL     1      -0.776  10.019  23.105  0.00  0.00    +0.000 A 
BRANCH  13  22
ATOM     19  C   UNL     1      -3.250  14.655  24.204  0.00  0.00    +0.000 A 
ATOM     20  C   UNL     1      -3.853  13.419  23.995  0.00  0.00    +0.000 A 
ATOM     21  C   UNL     1      -3.117  12.334  23.432  0.00  0.00    +0.000 A 
ATOM     22  C   UNL     1      -1.763  12.410  23.086  0.00  0.00    +0.000 A 
ATOM     23  C   UNL     1      -1.190  13.695  23.325  0.00  0.00    +0.000 A 
ATOM     24  C   UNL     1      -1.903  14.797  23.855  0.00  0.00    +0.000 A 
ENDBRANCH  13  22
ENDBRANCH  11  16
ENDBRANCH   1  11
BRANCH   4  25
ATOM     25  C   UNL     1       4.621   6.942  18.055  0.00  0.00    +0.000 C 
BRANCH  25  26
ATOM     26  C   UNL     1       5.580   6.028  17.351  0.00  0.00    +0.000 A 
ATOM     27  C   UNL     1       6.569   5.358  18.068  0.00  0.00    +0.000 A 
ATOM     28  C   UNL     1       7.511   4.632  17.363  0.00  0.00    +0.000 A 
ATOM     29  N   UNL     1       7.490   4.476  16.023  0.00  0.00    +0.000 NA
ATOM     30  C   UNL     1       6.464   5.049  15.362  0.00  0.00    +0.000 A 
ATOM     31  C   UNL     1       5.482   5.808  15.975  0.00  0.00    +0.000 A 
ENDBRANCH  25  26
ENDBRANCH   4  25
TORSDOF 5
ENDMDL
MODEL 2
REMARK VINA RESULT:      -9.4      1.211      1.493
REMARK  Name = 
REMARK  5 active torsions:
REMARK  status: ('A' for Active; 'I' for Inactive)
REMARK    1  A    between atoms: C_4  and  C_5
REMARK    2  A    between atoms: C_8  and  N_9
REMARK    3  A    between atoms: N_9  and  C_10
REMARK    4  A    between atoms: C_13  and  C_14
REMARK    5  A    between atoms: C_14  and  C_15
REMARK                            x       y       z     vdW  Elec       q    Type
REMARK                         _______ _______ _______ _____ _____    ______ ____
ROOT
ATOM      1  C   UNL     1       1.912   6.999  20.502  0.00  0.00    +0.000 A 
ATOM      2  N   UNL     1       2.083   7.519  19.248  0.00  0.00    +0.000 NA
ATOM      3  N   UNL     1       2.673   6.770  18.313  0.00  0.00    +0.000 NA
ATOM      4  C   UNL     1       2.944   5.522  18.661  0.00  0.00    +0.000 A 
ATOM      5  C   UNL     1       1.904   5.011  19.431  0.00  0.00    +0.000 A 
ATOM      6  C   UNL     1       0.913   4.076  19.062  0.00  0.00    +0.000 A 
ATOM      7  C   UNL     1       0.895   2.869  19.716  0.00  0.00    +0.000 A 
ATOM      8  C   UNL     1       1.784   2.779  20.770  0.00  0.00    +0.000 A 
ATOM      9  C   UNL     1       2.233   4.028  21.347  0.00  0.00    +0.000 A 
ATOM     10  C   UNL     1       1.995   5.417  20.691  0.00  0.00    +0.000 A 
ENDROOT
BRANCH   1  11
ATOM     11  N   UNL     1       1.844   8.020  21.518  0.00  0.00    +0.000 N 
ATOM     12  H   UNL     1       2.714   8.542  21.408  0.00  0.00    +0.000 HD
BRANCH  11  16
ATOM     13  C   UNL     1      -1.265  11.211  22.137  0.00  0.00    +0.000 A 
ATOM     14  C   UNL     1      -0.728  10.926  20.856  0.00  0.00    +0.000 A 
ATOM     15  C   UNL     1       0.251   9.869  20.624  0.00  0.00    +0.000 A 
ATOM     16  C   UNL     1       0.788   9.065  21.645  0.00  0.00    +0.000 A 
ATOM     17  C   UNL     1       0.138   9.255  22.884  0.00  0.00    +0.000 A 
ATOM     18  C   UNL     1      -0.835  10.295  23.110  0.00  0.00    +0.000 A 
BRANCH  13  22
ATOM     19  C   UNL     1      -4.004  14.565  23.184  0.00  0.00    +0.000 A 
ATOM     20  C   UNL     1      -3.065  14.717  22.170  0.00  0.00    +0.000 A 
ATOM     21  C   UNL     1      -2.172  13.655  21.836  0.00  0.00    +0.000 A 
ATOM     22  C   UNL     1      -2.189  12.402  22.459  0.00  0.00    +0.000 A 
ATOM     23  C   UNL     1      -3.173  12.294  23.486  0.00  0.00    +0.000 A 
ATOM     24  C   UNL     1      -4.052  13.340  23.858  0.00  0.00    +0.000 A 
ENDBRANCH  13  22
ENDBRANCH  11  16
ENDBRANCH   1  11
BRANCH   4  25
ATOM     25  C   UNL     1       4.385   5.348  19.333  0.00  0.00    +0.000 C 
BRANCH  25  26
ATOM     26  C   UNL     1       5.518   4.975  18.422  0.00  0.00    +0.000 A 
ATOM     27  C   UNL     1       6.836   5.079  18.859  0.00  0.00    +0.000 A 
ATOM     28  C   UNL     1       7.849   4.852  17.946  0.00  0.00    +0.000 A 
ATOM     29  N   UNL     1       7.637   4.466  16.670  0.00  0.00    +0.000 NA
ATOM     30  C   UNL     1       6.355   4.272  16.300  0.00  0.00    +0.000 A 
ATOM     31  C   UNL     1       5.272   4.488  17.135  0.00  0.00    +0.000 A 
ENDBRANCH  25  26
ENDBRANCH   4  25
TORSDOF 5
ENDMDL
MODEL 3
REMARK VINA RESULT:      -9.2      1.386      1.632
REMARK  Name = 
REMARK  5 active torsions:
REMARK  status: ('A' for Active; 'I' for Inactive)
REMARK    1  A    between atoms: C_4  and  C_5
REMARK    2  A    between atoms: C_8  and  N_9
REMARK    3  A    between atoms: N_9  and  C_10
REMARK    4  A    between atoms: C_13  and  C_14
REMARK    5  A    between atoms: C_14  and  C_15
REMARK                            x       y       z     vdW  Elec       q    Type
REMARK                         _______ _______ _______ _____ _____    ______ ____
ROOT
ATOM      1  C   UNL     1       2.118   6.730  20.084  0.00  0.00    +0.000 A 
ATOM      2  N   UNL     1       2.089   6.964  18.735  0.00  0.00    +0.000 NA
ATOM      3  N   UNL     1       2.504   6.004  17.904  0.00  0.00    +0.000 NA
ATOM      4  C   UNL     1       2.808   4.845  18.468  0.00  0.00    +0.000 A 
ATOM      5  C   UNL     1       1.899   4.564  19.484  0.00  0.00    +0.000 A 
ATOM      6  C   UNL     1       0.846   3.625  19.487  0.00  0.00    +0.000 A 
ATOM      7  C   UNL     1       0.915   2.586  20.381  0.00  0.00    +0.000 A 
ATOM      8  C   UNL     1       1.964   2.674  21.277  0.00  0.00    +0.000 A 
ATOM      9  C   UNL     1       2.522   3.992  21.491  0.00  0.00    +0.000 A 
ATOM     10  C   UNL     1       2.204   5.221  20.595  0.00  0.00    +0.000 A 
ENDROOT
BRANCH   1  11
ATOM     11  N   UNL     1       2.236   7.944  20.851  0.00  0.00    +0.000 N 
ATOM     12  H   UNL     1       2.942   8.488  20.355  0.00  0.00    +0.000 HD
BRANCH  11  16
ATOM     13  C   UNL     1      -0.968  10.912  21.930  0.00  0.00    +0.000 A 
ATOM     14  C   UNL     1      -0.578  10.685  20.587  0.00  0.00    +0.000 A 
ATOM     15  C   UNL     1       0.429   9.699  20.208  0.00  0.00    +0.000 A 
ATOM     16  C   UNL     1       1.140   8.915  21.135  0.00  0.00    +0.000 A 
ATOM     17  C   UNL     1       0.639   9.042  22.449  0.00  0.00    +0.000 A 
ATOM     18  C   UNL     1      -0.362  10.011  22.819  0.00  0.00    +0.000 A 
BRANCH  13  22
ATOM     19  C   UNL     1      -3.663  14.245  23.146  0.00  0.00    +0.000 A 
ATOM     20  C   UNL     1      -3.615  13.073  23.893  0.00  0.00    +0.000 A 
ATOM     21  C   UNL     1      -2.768  11.993  23.505  0.00  0.00    +0.000 A 
ATOM     22  C   UNL     1      -1.917  12.035  22.395  0.00  0.00    +0.000 A 
ATOM     23  C   UNL     1      -1.998  13.258  21.665  0.00  0.00    +0.000 A 
ATOM     24  C   UNL     1      -2.850  14.334  22.011  0.00  0.00    +0.000 A 
ENDBRANCH  13  22
ENDBRANCH  11  16
ENDBRANCH   1  11
BRANCH   4  25
ATOM     25  C   UNL     1       4.336   4.743  18.927  0.00  0.00    +0.000 C 
BRANCH  25  26
ATOM     26  C   UNL     1       5.376   5.096  17.905  0.00  0.00    +0.000 A 
ATOM     27  C   UNL     1       5.499   4.347  16.737  0.00  0.00    +0.000 A 
ATOM     28  C   UNL     1       6.554   4.624  15.887  0.00  0.00    +0.000 A 
ATOM     29  N   UNL     1       7.435   5.627  16.088  0.00  0.00    +0.000 NA
ATOM     30  C   UNL     1       7.234   6.404  17.172  0.00  0.00    +0.000 A 
ATOM     31  C   UNL     1       6.218   6.196  18.089  0.00  0.00    +0.000 A 
ENDBRANCH  25  26
ENDBRANCH   4  25
TORSDOF 5
ENDMDL
MODEL 4
REMARK VINA RESULT:      -9.1      0.751      1.305
REMARK  Name = 
REMARK  5 active torsions:
REMARK  status: ('A' for Active; 'I' for Inactive)
REMARK    1  A    between atoms: C_4  and  C_5
REMARK    2  A    between atoms: C_8  and  N_9
REMARK    3  A    between atoms: N_9  and  C_10
REMARK    4  A    between atoms: C_13  and  C_14
REMARK    5  A    between atoms: C_14  and  C_15
REMARK                            x       y       z     vdW  Elec       q    Type
REMARK                         _______ _______ _______ _____ _____    ______ ____
ROOT
ATOM      1  C   UNL     1       2.026   7.447  20.009  0.00  0.00    +0.000 A 
ATOM      2  N   UNL     1       1.846   8.338  18.986  0.00  0.00    +0.000 NA
ATOM      3  N   UNL     1       2.417   8.089  17.805  0.00  0.00    +0.000 NA
ATOM      4  C   UNL     1       3.028   6.919  17.695  0.00  0.00    +0.000 A 
ATOM      5  C   UNL     1       2.288   5.939  18.348  0.00  0.00    +0.000 A 
ATOM      6  C   UNL     1       1.492   4.918  17.787  0.00  0.00    +0.000 A 
ATOM      7  C   UNL     1       1.871   3.616  18.005  0.00  0.00    +0.000 A 
ATOM      8  C   UNL     1       2.929   3.470  18.882  0.00  0.00    +0.000 A 
ATOM      9  C   UNL     1       3.171   4.568  19.793  0.00  0.00    +0.000 A 
ATOM     10  C   UNL     1       2.505   5.966  19.657  0.00  0.00    +0.000 A 
ENDROOT
BRANCH   1  11
ATOM     11  N   UNL     1       1.904   8.064  21.306  0.00  0.00    +0.000 N 
ATOM     12  H   UNL     1       2.813   8.501  21.462  0.00  0.00    +0.000 HD
BRANCH  11  16
ATOM     13  C   UNL     1      -1.143  11.240  22.236  0.00  0.00    +0.000 A 
ATOM     14  C   UNL     1      -0.837  10.203  23.152  0.00  0.00    +0.000 A 
ATOM     15  C   UNL     1       0.176   9.185  22.891  0.00  0.00    +0.000 A 
ATOM     16  C   UNL     1       0.911   9.107  21.694  0.00  0.00    +0.000 A 
ATOM     17  C   UNL     1       0.707  10.225  20.857  0.00  0.00    +0.000 A 
ATOM     18  C   UNL     1      -0.289  11.234  21.122  0.00  0.00    +0.000 A 
BRANCH  13  22
ATOM     19  C   UNL     1      -4.507  14.094  22.855  0.00  0.00    +0.000 A 
ATOM     20  C   UNL     1      -3.764  14.130  21.680  0.00  0.00    +0.000 A 
ATOM     21  C   UNL     1      -2.675  13.231  21.477  0.00  0.00    +0.000 A 
ATOM     22  C   UNL     1      -2.296  12.249  22.400  0.00  0.00    +0.000 A 
ATOM     23  C   UNL     1      -3.092  12.249  23.584  0.00  0.00    +0.000 A 
ATOM     24  C   UNL     1      -4.159  13.147  23.824  0.00  0.00    +0.000 A 
ENDBRANCH  13  22
ENDBRANCH  11  16
ENDBRANCH   1  11
BRANCH   4  25
ATOM     25  C   UNL     1       4.566   6.962  18.133  0.00  0.00    +0.000 C 
BRANCH  25  26
ATOM     26  C   UNL     1       5.508   6.061  17.390  0.00  0.00    +0.000 A 
ATOM     27  C   UNL     1       6.542   5.414  18.063  0.00  0.00    +0.000 A 
ATOM     28  C   UNL     1       7.464   4.701  17.319  0.00  0.00    +0.000 A 
ATOM     29  N   UNL     1       7.382   4.535  15.982  0.00  0.00    +0.000 NA
ATOM     30  C   UNL     1       6.314   5.084  15.367  0.00  0.00    +0.000 A 
ATOM     31  C   UNL     1       5.348   5.829  16.021  0.00  0.00    +0.000 A 
ENDBRANCH  25  26
ENDBRANCH   4  25
TORSDOF 5
ENDMDL
MODEL 5
REMARK VINA RESULT:      -9.1      1.642      2.498
REMARK  Name = 
REMARK  5 active torsions:
REMARK  status: ('A' for Active; 'I' for Inactive)
REMARK    1  A    between atoms: C_4  and  C_5
REMARK    2  A    between atoms: C_8  and  N_9
REMARK    3  A    between atoms: N_9  and  C_10
REMARK    4  A    between atoms: C_13  and  C_14
REMARK    5  A    between atoms: C_14  and  C_15
REMARK                            x       y       z     vdW  Elec       q    Type
REMARK                         _______ _______ _______ _____ _____    ______ ____
ROOT
ATOM      1  C   UNL     1       2.481   6.086  18.767  0.00  0.00    +0.000 A 
ATOM      2  N   UNL     1       2.551   5.609  17.486  0.00  0.00    +0.000 NA
ATOM      3  N   UNL     1       2.969   4.357  17.285  0.00  0.00    +0.000 NA
ATOM      4  C   UNL     1       3.176   3.636  18.377  0.00  0.00    +0.000 A 
ATOM      5  C   UNL     1       2.191   3.915  19.318  0.00  0.00    +0.000 A 
ATOM      6  C   UNL     1       1.092   3.118  19.705  0.00  0.00    +0.000 A 
ATOM      7  C   UNL     1       1.050   2.670  21.003  0.00  0.00    +0.000 A 
ATOM      8  C   UNL     1       2.042   3.186  21.816  0.00  0.00    +0.000 A 
ATOM      9  C   UNL     1       2.652   4.425  21.385  0.00  0.00    +0.000 A 
ATOM     10  C   UNL     1       2.455   5.039  19.971  0.00  0.00    +0.000 A 
ENDROOT
BRANCH   1  11
ATOM     11  N   UNL     1       2.610   7.520  18.830  0.00  0.00    +0.000 N 
ATOM     12  H   UNL     1       2.508   7.824  17.861  0.00  0.00    +0.000 HD
BRANCH  11  16
ATOM     13  C   UNL     1      -0.124  10.375  20.977  0.00  0.00    +0.000 A 
ATOM     14  C   UNL     1       0.462   9.263  21.631  0.00  0.00    +0.000 A 
ATOM     15  C   UNL     1       1.384   8.347  20.967  0.00  0.00    +0.000 A 
ATOM     16  C   UNL     1       1.743   8.449  19.612  0.00  0.00    +0.000 A 
ATOM     17  C   UNL     1       1.275   9.639  19.014  0.00  0.00    +0.000 A 
ATOM     18  C   UNL     1       0.371  10.547  19.675  0.00  0.00    +0.000 A 
BRANCH  13  22
ATOM     19  C   UNL     1      -3.286  13.065  22.592  0.00  0.00    +0.000 A 
ATOM     20  C   UNL     1      -2.587  12.215  23.442  0.00  0.00    +0.000 A 
ATOM     21  C   UNL     1      -1.583  11.338  22.934  0.00  0.00    +0.000 A 
ATOM     22  C   UNL     1      -1.208  11.286  21.587  0.00  0.00    +0.000 A 
ATOM     23  C   UNL     1      -1.949  12.179  20.758  0.00  0.00    +0.000 A 
ATOM     24  C   UNL     1      -2.969  13.039  21.230  0.00  0.00    +0.000 A 
ENDBRANCH  13  22
ENDBRANCH  11  16
ENDBRANCH   1  11
BRANCH   4  25
ATOM     25  C   UNL     1       4.664   3.761  18.948  0.00  0.00    +0.000 C 
BRANCH  25  26
ATOM     26  C   UNL     1       5.655   4.507  18.103  0.00  0.00    +0.000 A 
ATOM     27  C   UNL     1       6.244   5.677  18.576  0.00  0.00    +0.000 A 
ATOM     28  C   UNL     1       7.048   6.401  17.715  0.00  0.00    +0.000 A 
ATOM     29  N   UNL     1       7.354   6.004  16.462  0.00  0.00    +0.000 NA
ATOM     30  C   UNL     1       6.855   4.816  16.063  0.00  0.00    +0.000 A 
ATOM     31  C   UNL     1       6.029   4.027  16.845  0.00  0.00    +0.000 A 
ENDBRANCH  25  26
ENDBRANCH   4  25
TORSDOF 5
ENDMDL
MODEL 6
REMARK VINA RESULT:      -9.1      1.411      1.860
REMARK  Name = 
REMARK  5 active torsions:
REMARK  status: ('A' for Active; 'I' for Inactive)
REMARK    1  A    between atoms: C_4  and  C_5
REMARK    2  A    between atoms: C_8  and  N_9
REMARK    3  A    between atoms: N_9  and  C_10
REMARK    4  A    between atoms: C_13  and  C_14
REMARK    5  A    between atoms: C_14  and  C_15
REMARK                            x       y       z     vdW  Elec       q    Type
REMARK                         _______ _______ _______ _____ _____    ______ ____
ROOT
ATOM      1  C   UNL     1       1.966   6.960  20.581  0.00  0.00    +0.000 A 
ATOM      2  N   UNL     1       2.116   7.486  19.326  0.00  0.00    +0.000 NA
ATOM      3  N   UNL     1       2.641   6.722  18.365  0.00  0.00    +0.000 NA
ATOM      4  C   UNL     1       2.870   5.459  18.692  0.00  0.00    +0.000 A 
ATOM      5  C   UNL     1       1.835   4.986  19.493  0.00  0.00    +0.000 A 
ATOM      6  C   UNL     1       0.793   4.098  19.150  0.00  0.00    +0.000 A 
ATOM      7  C   UNL     1       0.745   2.886  19.793  0.00  0.00    +0.000 A 
ATOM      8  C   UNL     1       1.665   2.747  20.816  0.00  0.00    +0.000 A 
ATOM      9  C   UNL     1       2.186   3.969  21.387  0.00  0.00    +0.000 A 
ATOM     10  C   UNL     1       1.987   5.374  20.752  0.00  0.00    +0.000 A 
ENDROOT
BRANCH   1  11
ATOM     11  N   UNL     1       1.977   7.972  21.608  0.00  0.00    +0.000 N 
ATOM     12  H   UNL     1       2.853   8.473  21.458  0.00  0.00    +0.000 HD
BRANCH  11  16
ATOM     13  C   UNL     1      -1.149  11.190  21.939  0.00  0.00    +0.000 A 
ATOM     14  C   UNL     1      -0.844  10.327  23.021  0.00  0.00    +0.000 A 
ATOM     15  C   UNL     1       0.193   9.303  22.952  0.00  0.00    +0.000 A 
ATOM     16  C   UNL     1       0.956   9.042  21.799  0.00  0.00    +0.000 A 
ATOM     17  C   UNL     1       0.750  10.002  20.784  0.00  0.00    +0.000 A 
ATOM     18  C   UNL     1      -0.270  11.018  20.858  0.00  0.00    +0.000 A 
BRANCH  13  22
ATOM     19  C   UNL     1      -4.570  14.042  22.017  0.00  0.00    +0.000 A 
ATOM     20  C   UNL     1      -3.867  13.822  20.837  0.00  0.00    +0.000 A 
ATOM     21  C   UNL     1      -2.760  12.922  20.804  0.00  0.00    +0.000 A 
ATOM     22  C   UNL     1      -2.324  12.187  21.912  0.00  0.00    +0.000 A 
ATOM     23  C   UNL     1      -3.080  12.443  23.094  0.00  0.00    +0.000 A 
ATOM     24  C   UNL     1      -4.164  13.351  23.163  0.00  0.00    +0.000 A 
ENDBRANCH  13  22
ENDBRANCH  11  16
ENDBRANCH   1  11
BRANCH   4  25
ATOM     25  C   UNL     1       4.324   5.217  19.312  0.00  0.00    +0.000 C 
BRANCH  25  26
ATOM     26  C   UNL     1       5.430   4.911  18.347  0.00  0.00    +0.000 A 
ATOM     27  C   UNL     1       6.754   5.183  18.683  0.00  0.00    +0.000 A 
ATOM     28  C   UNL     1       7.726   5.009  17.715  0.00  0.00    +0.000 A 
ATOM     29  N   UNL     1       7.478   4.523  16.481  0.00  0.00    +0.000 NA
ATOM     30  C   UNL     1       6.204   4.169  16.214  0.00  0.00    +0.000 A 
ATOM     31  C   UNL     1       5.159   4.321  17.109  0.00  0.00    +0.000 A 
ENDBRANCH  25  26
ENDBRANCH   4  25
TORSDOF 5
ENDMDL
MODEL 7
REMARK VINA RESULT:      -9.0      1.611      1.994
REMARK  Name = 
REMARK  5 active torsions:
REMARK  status: ('A' for Active; 'I' for Inactive)
REMARK    1  A    between atoms: C_4  and  C_5
REMARK    2  A    between atoms: C_8  and  N_9
REMARK    3  A    between atoms: N_9  and  C_10
REMARK    4  A    between atoms: C_13  and  C_14
REMARK    5  A    between atoms: C_14  and  C_15
REMARK                            x       y       z     vdW  Elec       q    Type
REMARK                         _______ _______ _______ _____ _____    ______ ____
ROOT
ATOM      1  C   UNL     1       2.400   6.374  19.491  0.00  0.00    +0.000 A 
ATOM      2  N   UNL     1       2.436   6.290  18.126  0.00  0.00    +0.000 NA
ATOM      3  N   UNL     1       2.825   5.146  17.559  0.00  0.00    +0.000 NA
ATOM      4  C   UNL     1       3.038   4.135  18.388  0.00  0.00    +0.000 A 
ATOM      5  C   UNL     1       2.077   4.141  19.394  0.00  0.00    +0.000 A 
ATOM      6  C   UNL     1       0.970   3.281  19.559  0.00  0.00    +0.000 A 
ATOM      7  C   UNL     1       0.945   2.475  20.671  0.00  0.00    +0.000 A 
ATOM      8  C   UNL     1       1.962   2.718  21.574  0.00  0.00    +0.000 A 
ATOM      9  C   UNL     1       2.589   4.020  21.508  0.00  0.00    +0.000 A 
ATOM     10  C   UNL     1       2.377   5.023  20.339  0.00  0.00    +0.000 A 
ENDROOT
BRANCH   1  11
ATOM     11  N   UNL     1       2.560   7.726  19.965  0.00  0.00    +0.000 N 
ATOM     12  H   UNL     1       3.089   8.190  19.227  0.00  0.00    +0.000 HD
BRANCH  11  16
ATOM     13  C   UNL     1      -0.668  10.605  21.203  0.00  0.00    +0.000 A 
ATOM     14  C   UNL     1      -0.201  10.531  19.867  0.00  0.00    +0.000 A 
ATOM     15  C   UNL     1       0.816   9.578  19.433  0.00  0.00    +0.000 A 
ATOM     16  C   UNL     1       1.460   8.677  20.299  0.00  0.00    +0.000 A 
ATOM     17  C   UNL     1       0.883   8.656  21.587  0.00  0.00    +0.000 A 
ATOM     18  C   UNL     1      -0.126   9.593  22.012  0.00  0.00    +0.000 A 
BRANCH  13  22
ATOM     19  C   UNL     1      -3.467  13.772  22.611  0.00  0.00    +0.000 A 
ATOM     20  C   UNL     1      -2.905  12.879  23.517  0.00  0.00    +0.000 A 
ATOM     21  C   UNL     1      -2.020  11.851  23.076  0.00  0.00    +0.000 A 
ATOM     22  C   UNL     1      -1.630  11.682  21.743  0.00  0.00    +0.000 A 
ATOM     23  C   UNL     1      -2.227  12.625  20.854  0.00  0.00    +0.000 A 
ATOM     24  C   UNL     1      -3.130  13.636  21.260  0.00  0.00    +0.000 A 
ENDBRANCH  13  22
ENDBRANCH  11  16
ENDBRANCH   1  11
BRANCH   4  25
ATOM     25  C   UNL     1       4.539   4.067  18.934  0.00  0.00    +0.000 C 
BRANCH  25  26
ATOM     26  C   UNL     1       5.606   4.663  18.063  0.00  0.00    +0.000 A 
ATOM     27  C   UNL     1       6.298   5.800  18.475  0.00  0.00    +0.000 A 
ATOM     28  C   UNL     1       7.177   6.391  17.585  0.00  0.00    +0.000 A 
ATOM     29  N   UNL     1       7.457   5.891  16.363  0.00  0.00    +0.000 NA
ATOM     30  C   UNL     1       6.852   4.733  16.028  0.00  0.00    +0.000 A 
ATOM     31  C   UNL     1       5.945   4.075  16.842  0.00  0.00    +0.000 A 
ENDBRANCH  25  26
ENDBRANCH   4  25
TORSDOF 5
ENDMDL
MODEL 8
REMARK VINA RESULT:      -9.0      1.874      4.572
REMARK  Name = 
REMARK  5 active torsions:
REMARK  status: ('A' for Active; 'I' for Inactive)
REMARK    1  A    between atoms: C_4  and  C_5
REMARK    2  A    between atoms: C_8  and  N_9
REMARK    3  A    between atoms: N_9  and  C_10
REMARK    4  A    between atoms: C_13  and  C_14
REMARK    5  A    between atoms: C_14  and  C_15
REMARK                            x       y       z     vdW  Elec       q    Type
REMARK                         _______ _______ _______ _____ _____    ______ ____
ROOT
ATOM      1  C   UNL     1       4.015   6.351  17.762  0.00  0.00    +0.000 A 
ATOM      2  N   UNL     1       4.344   6.317  19.090  0.00  0.00    +0.000 NA
ATOM      3  N   UNL     1       4.997   5.254  19.567  0.00  0.00    +0.000 NA
ATOM      4  C   UNL     1       5.375   4.359  18.667  0.00  0.00    +0.000 A 
ATOM      5  C   UNL     1       5.811   5.005  17.515  0.00  0.00    +0.000 A 
ATOM      6  C   UNL     1       7.132   5.173  17.047  0.00  0.00    +0.000 A 
ATOM      7  C   UNL     1       7.470   4.581  15.855  0.00  0.00    +0.000 A 
ATOM      8  C   UNL     1       6.410   4.000  15.186  0.00  0.00    +0.000 A 
ATOM      9  C   UNL     1       5.088   4.480  15.528  0.00  0.00    +0.000 A 
ATOM     10  C   UNL     1       4.788   5.381  16.759  0.00  0.00    +0.000 A 
ENDROOT
BRANCH   1  11
ATOM     11  N   UNL     1       2.862   7.176  17.500  0.00  0.00    +0.000 N 
ATOM     12  H   UNL     1       2.160   6.523  17.151  0.00  0.00    +0.000 HD
BRANCH  11  16
ATOM     13  C   UNL     1       0.537   9.799  20.319  0.00  0.00    +0.000 A 
ATOM     14  C   UNL     1       1.112   8.573  20.738  0.00  0.00    +0.000 A 
ATOM     15  C   UNL     1       1.904   7.725  19.853  0.00  0.00    +0.000 A 
ATOM     16  C   UNL     1       2.136   8.015  18.497  0.00  0.00    +0.000 A 
ATOM     17  C   UNL     1       1.689   9.304  18.133  0.00  0.00    +0.000 A 
ATOM     18  C   UNL     1       0.913  10.144  19.011  0.00  0.00    +0.000 A 
BRANCH  13  22
ATOM     19  C   UNL     1      -2.276  12.362  22.635  0.00  0.00    +0.000 A 
ATOM     20  C   UNL     1      -1.544  11.368  23.276  0.00  0.00    +0.000 A 
ATOM     21  C   UNL     1      -0.651  10.531  22.541  0.00  0.00    +0.000 A 
ATOM     22  C   UNL     1      -0.422  10.658  21.167  0.00  0.00    +0.000 A 
ATOM     23  C   UNL     1      -1.191  11.694  20.558  0.00  0.00    +0.000 A 
ATOM     24  C   UNL     1      -2.105  12.520  21.256  0.00  0.00    +0.000 A 
ENDBRANCH  13  22
ENDBRANCH  11  16
ENDBRANCH   1  11
BRANCH   4  25
ATOM     25  C   UNL     1       4.276   3.230  18.393  0.00  0.00    +0.000 C 
BRANCH  25  26
ATOM     26  C   UNL     1       3.146   3.130  19.376  0.00  0.00    +0.000 A 
ATOM     27  C   UNL     1       1.873   3.578  19.033  0.00  0.00    +0.000 A 
ATOM     28  C   UNL     1       0.896   3.589  20.012  0.00  0.00    +0.000 A 
ATOM     29  N   UNL     1       1.084   3.125  21.265  0.00  0.00    +0.000 NA
ATOM     30  C   UNL     1       2.296   2.601  21.542  0.00  0.00    +0.000 A 
ATOM     31  C   UNL     1       3.342   2.559  20.637  0.00  0.00    +0.000 A 
ENDBRANCH  25  26
ENDBRANCH   4  25
TORSDOF 5
ENDMDL
MODEL 9
REMARK VINA RESULT:      -9.0      1.425      1.996
REMARK  Name = 
REMARK  5 active torsions:
REMARK  status: ('A' for Active; 'I' for Inactive)
REMARK    1  A    between atoms: C_4  and  C_5
REMARK    2  A    between atoms: C_8  and  N_9
REMARK    3  A    between atoms: N_9  and  C_10
REMARK    4  A    between atoms: C_13  and  C_14
REMARK    5  A    between atoms: C_14  and  C_15
REMARK                            x       y       z     vdW  Elec       q    Type
REMARK                         _______ _______ _______ _____ _____    ______ ____
ROOT
ATOM      1  C   UNL     1       1.992   7.082  20.670  0.00  0.00    +0.000 A 
ATOM      2  N   UNL     1       2.151   7.601  19.413  0.00  0.00    +0.000 NA
ATOM      3  N   UNL     1       2.689   6.834  18.462  0.00  0.00    +0.000 NA
ATOM      4  C   UNL     1       2.922   5.575  18.799  0.00  0.00    +0.000 A 
ATOM      5  C   UNL     1       1.882   5.100  19.592  0.00  0.00    +0.000 A 
ATOM      6  C   UNL     1       0.849   4.204  19.244  0.00  0.00    +0.000 A 
ATOM      7  C   UNL     1       0.802   2.996  19.895  0.00  0.00    +0.000 A 
ATOM      8  C   UNL     1       1.712   2.868  20.926  0.00  0.00    +0.000 A 
ATOM      9  C   UNL     1       2.221   4.097  21.496  0.00  0.00    +0.000 A 
ATOM     10  C   UNL     1       2.020   5.497  20.850  0.00  0.00    +0.000 A 
ENDROOT
BRANCH   1  11
ATOM     11  N   UNL     1       1.987   8.100  21.690  0.00  0.00    +0.000 N 
ATOM     12  H   UNL     1       2.838   8.634  21.517  0.00  0.00    +0.000 HD
BRANCH  11  16
ATOM     13  C   UNL     1      -1.242  11.208  22.076  0.00  0.00    +0.000 A 
ATOM     14  C   UNL     1      -0.947  10.300  23.123  0.00  0.00    +0.000 A 
ATOM     15  C   UNL     1       0.122   9.311  23.038  0.00  0.00    +0.000 A 
ATOM     16  C   UNL     1       0.929   9.130  21.900  0.00  0.00    +0.000 A 
ATOM     17  C   UNL     1       0.727  10.134  20.927  0.00  0.00    +0.000 A 
ATOM     18  C   UNL     1      -0.325  11.116  21.017  0.00  0.00    +0.000 A 
BRANCH  13  22
ATOM     19  C   UNL     1      -4.697  14.013  21.866  0.00  0.00    +0.000 A 
ATOM     20  C   UNL     1      -4.329  13.443  23.080  0.00  0.00    +0.000 A 
ATOM     21  C   UNL     1      -3.234  12.532  23.156  0.00  0.00    +0.000 A 
ATOM     22  C   UNL     1      -2.445  12.172  22.058  0.00  0.00    +0.000 A 
ATOM     23  C   UNL     1      -2.858  12.787  20.839  0.00  0.00    +0.000 A 
ATOM     24  C   UNL     1      -3.957  13.672  20.729  0.00  0.00    +0.000 A 
ENDBRANCH  13  22
ENDBRANCH  11  16
ENDBRANCH   1  11
BRANCH   4  25
ATOM     25  C   UNL     1       4.371   5.345  19.434  0.00  0.00    +0.000 C 
BRANCH  25  26
ATOM     26  C   UNL     1       5.499   5.092  18.478  0.00  0.00    +0.000 A 
ATOM     27  C   UNL     1       5.244   4.587  17.205  0.00  0.00    +0.000 A 
ATOM     28  C   UNL     1       6.320   4.244  16.407  0.00  0.00    +0.000 A 
ATOM     29  N   UNL     1       7.608   4.436  16.761  0.00  0.00    +0.000 NA
ATOM     30  C   UNL     1       7.828   5.022  17.956  0.00  0.00    +0.000 A 
ATOM     31  C   UNL     1       6.819   5.385  18.832  0.00  0.00    +0.000 A 
ENDBRANCH  25  26
ENDBRANCH   4  25
TORSDOF 5
ENDMDL
