MODEL 1
REMARK VINA RESULT:      -8.7      0.000      0.000
REMARK  Name = 
REMARK  3 active torsions:
REMARK  status: ('A' for Active; 'I' for Inactive)
REMARK    1  A    between atoms: C_1  and  C_2
REMARK    2  A    between atoms: C_4  and  C_5
REMARK    3  A    between atoms: C_18  and  C_19
REMARK                            x       y       z     vdW  Elec       q    Type
REMARK                         _______ _______ _______ _____ _____    ______ ____
ROOT
ATOM      1  C   UNL     1       3.955   1.111  18.573  0.00  0.00    +0.000 C 
ATOM      2  C   UNL     1       3.878   2.590  18.505  0.00  0.00    +0.000 A 
ATOM      3  N   UNL     1       4.543   3.354  17.663  0.00  0.00    +0.000 NA
ATOM      4  C   UNL     1       4.077   4.632  17.857  0.00  0.00    +0.000 A 
ATOM      5  C   UNL     1       3.130   4.659  18.867  0.00  0.00    +0.000 A 
ATOM      6  C   UNL     1       2.274   5.623  19.556  0.00  0.00    +0.000 A 
ATOM      7  N   UNL     1       2.168   6.986  19.280  0.00  0.00    +0.000 N 
ATOM      8  C   UNL     1       2.001   7.490  17.920  0.00  0.00    +0.000 C 
ATOM      9  C   UNL     1       2.784   8.822  17.823  0.00  0.00    +0.000 C 
ATOM     10  C   UNL     1       2.009   9.818  18.648  0.00  0.00    +0.000 A 
ATOM     11  C   UNL     1       1.817  11.119  18.209  0.00  0.00    +0.000 A 
ATOM     12  C   UNL     1       0.624  11.736  18.536  0.00  0.00    +0.000 A 
ATOM     13  C   UNL     1      -0.321  11.011  19.269  0.00  0.00    +0.000 A 
ATOM     14  N   UNL     1       0.006   9.854  19.944  0.00  0.00    +0.000 NA
ATOM     15  C   UNL     1       1.211   9.298  19.672  0.00  0.00    +0.000 A 
ATOM     16  C   UNL     1       1.672   7.963  20.305  0.00  0.00    +0.000 C 
ATOM     17  N   UNL     1       1.535   5.153  20.530  0.00  0.00    +0.000 NA
ATOM     18  C   UNL     1       1.523   3.817  20.814  0.00  0.00    +0.000 A 
ATOM     19  N   UNL     1       2.224   2.892  20.255  0.00  0.00    +0.000 NA
ATOM     20  N   UNL     1       3.044   3.352  19.289  0.00  0.00    +0.000 N 
ENDROOT
BRANCH   4  21
ATOM     21  C   UNL     1       4.526   5.665  16.875  0.00  0.00    +0.000 C 
ATOM     22  C   UNL     1       5.150   4.984  15.662  0.00  0.00    +0.000 C 
ATOM     23  C   UNL     1       6.635   5.091  15.927  0.00  0.00    +0.000 C 
ATOM     24  O   UNL     1       6.829   6.319  16.629  0.00  0.00    +0.000 OA
ATOM     25  C   UNL     1       5.617   6.621  17.337  0.00  0.00    +0.000 C 
ENDBRANCH   4  21
BRANCH  13  26
ATOM     26  C   UNL     1      -1.791  11.393  19.053  0.00  0.00    +0.000 C 
ATOM     27  F   UNL     1      -1.962  12.298  18.037  0.00  0.00    +0.000 F 
ATOM     28  F   UNL     1      -2.553  10.317  18.681  0.00  0.00    +0.000 F 
ATOM     29  F   UNL     1      -2.405  11.939  20.135  0.00  0.00    +0.000 F 
ENDBRANCH  13  26
TORSDOF 2
ENDMDL
MODEL 2
REMARK VINA RESULT:      -7.6      4.443      8.018
REMARK  Name = 
REMARK  3 active torsions:
REMARK  status: ('A' for Active; 'I' for Inactive)
REMARK    1  A    between atoms: C_1  and  C_2
REMARK    2  A    between atoms: C_4  and  C_5
REMARK    3  A    between atoms: C_18  and  C_19
REMARK                            x       y       z     vdW  Elec       q    Type
REMARK                         _______ _______ _______ _____ _____    ______ ____
ROOT
ATOM      1  C   UNL     1      -1.952  12.669  22.756  0.00  0.00    +0.000 C 
ATOM      2  C   UNL     1      -1.354  11.735  21.773  0.00  0.00    +0.000 A 
ATOM      3  N   UNL     1      -1.463  11.827  20.464  0.00  0.00    +0.000 NA
ATOM      4  C   UNL     1      -0.654  10.846  19.943  0.00  0.00    +0.000 A 
ATOM      5  C   UNL     1      -0.063  10.110  20.957  0.00  0.00    +0.000 A 
ATOM      6  C   UNL     1       0.856   8.985  21.116  0.00  0.00    +0.000 A 
ATOM      7  N   UNL     1       1.496   8.284  20.095  0.00  0.00    +0.000 N 
ATOM      8  C   UNL     1       2.184   8.964  19.002  0.00  0.00    +0.000 C 
ATOM      9  C   UNL     1       1.965   8.119  17.724  0.00  0.00    +0.000 C 
ATOM     10  C   UNL     1       2.786   6.868  17.910  0.00  0.00    +0.000 A 
ATOM     11  C   UNL     1       3.527   6.332  16.866  0.00  0.00    +0.000 A 
ATOM     12  C   UNL     1       4.725   5.719  17.180  0.00  0.00    +0.000 A 
ATOM     13  C   UNL     1       5.129   5.692  18.519  0.00  0.00    +0.000 A 
ATOM     14  N   UNL     1       4.254   5.952  19.553  0.00  0.00    +0.000 NA
ATOM     15  C   UNL     1       3.050   6.482  19.228  0.00  0.00    +0.000 A 
ATOM     16  C   UNL     1       2.005   6.887  20.295  0.00  0.00    +0.000 C 
ATOM     17  N   UNL     1       1.097   8.600  22.345  0.00  0.00    +0.000 NA
ATOM     18  C   UNL     1       0.570   9.282  23.406  0.00  0.00    +0.000 A 
ATOM     19  N   UNL     1      -0.230  10.291  23.368  0.00  0.00    +0.000 NA
ATOM     20  N   UNL     1      -0.550  10.673  22.114  0.00  0.00    +0.000 N 
ENDROOT
BRANCH   4  21
ATOM     21  C   UNL     1      -0.438  10.870  18.465  0.00  0.00    +0.000 C 
ATOM     22  C   UNL     1      -1.068  12.127  17.874  0.00  0.00    +0.000 C 
ATOM     23  C   UNL     1      -2.387  11.631  17.324  0.00  0.00    +0.000 C 
ATOM     24  O   UNL     1      -2.159  10.292  16.885  0.00  0.00    +0.000 OA
ATOM     25  C   UNL     1      -1.080   9.748  17.661  0.00  0.00    +0.000 C 
ENDBRANCH   4  21
BRANCH  13  26
ATOM     26  C   UNL     1       6.641   5.650  18.775  0.00  0.00    +0.000 C 
ATOM     27  F   UNL     1       7.252   4.577  18.178  0.00  0.00    +0.000 F 
ATOM     28  F   UNL     1       7.282   6.741  18.251  0.00  0.00    +0.000 F 
ATOM     29  F   UNL     1       6.997   5.590  20.085  0.00  0.00    +0.000 F 
ENDBRANCH  13  26
TORSDOF 2
ENDMDL
MODEL 3
REMARK VINA RESULT:      -7.2      2.778      4.276
REMARK  Name = 
REMARK  3 active torsions:
REMARK  status: ('A' for Active; 'I' for Inactive)
REMARK    1  A    between atoms: C_1  and  C_2
REMARK    2  A    between atoms: C_4  and  C_5
REMARK    3  A    between atoms: C_18  and  C_19
REMARK                            x       y       z     vdW  Elec       q    Type
REMARK                         _______ _______ _______ _____ _____    ______ ____
ROOT
ATOM      1  C   UNL     1       5.062   2.967  17.102  0.00  0.00    +0.000 C 
ATOM      2  C   UNL     1       4.074   3.925  17.653  0.00  0.00    +0.000 A 
ATOM      3  N   UNL     1       3.169   3.651  18.569  0.00  0.00    +0.000 NA
ATOM      4  C   UNL     1       2.563   4.845  18.877  0.00  0.00    +0.000 A 
ATOM      5  C   UNL     1       3.083   5.871  18.106  0.00  0.00    +0.000 A 
ATOM      6  C   UNL     1       2.913   7.310  17.919  0.00  0.00    +0.000 A 
ATOM      7  N   UNL     1       2.052   8.144  18.631  0.00  0.00    +0.000 N 
ATOM      8  C   UNL     1       1.970   8.110  20.088  0.00  0.00    +0.000 C 
ATOM      9  C   UNL     1       0.492   8.366  20.472  0.00  0.00    +0.000 C 
ATOM     10  C   UNL     1       0.227   9.815  20.155  0.00  0.00    +0.000 A 
ATOM     11  C   UNL     1      -0.512  10.616  21.014  0.00  0.00    +0.000 A 
ATOM     12  C   UNL     1      -0.159  11.949  21.109  0.00  0.00    +0.000 A 
ATOM     13  C   UNL     1       0.926  12.406  20.355  0.00  0.00    +0.000 A 
ATOM     14  N   UNL     1       1.441  11.683  19.300  0.00  0.00    +0.000 NA
ATOM     15  C   UNL     1       1.030  10.399  19.169  0.00  0.00    +0.000 A 
ATOM     16  C   UNL     1       1.583   9.457  18.074  0.00  0.00    +0.000 C 
ATOM     17  N   UNL     1       3.645   7.866  16.986  0.00  0.00    +0.000 NA
ATOM     18  C   UNL     1       4.568   7.134  16.295  0.00  0.00    +0.000 A 
ATOM     19  N   UNL     1       4.804   5.872  16.400  0.00  0.00    +0.000 NA
ATOM     20  N   UNL     1       4.021   5.255  17.309  0.00  0.00    +0.000 N 
ENDROOT
BRANCH   4  21
ATOM     21  C   UNL     1       1.633   4.842  20.047  0.00  0.00    +0.000 C 
ATOM     22  C   UNL     1       2.431   4.688  21.337  0.00  0.00    +0.000 C 
ATOM     23  C   UNL     1       2.289   3.218  21.663  0.00  0.00    +0.000 C 
ATOM     24  O   UNL     1       0.995   2.829  21.202  0.00  0.00    +0.000 OA
ATOM     25  C   UNL     1       0.629   3.700  20.120  0.00  0.00    +0.000 C 
ENDBRANCH   4  21
BRANCH  13  26
ATOM     26  C   UNL     1       1.702  13.599  20.929  0.00  0.00    +0.000 C 
ATOM     27  F   UNL     1       1.746  14.668  20.071  0.00  0.00    +0.000 F 
ATOM     28  F   UNL     1       1.116  14.096  22.062  0.00  0.00    +0.000 F 
ATOM     29  F   UNL     1       2.996  13.336  21.251  0.00  0.00    +0.000 F 
ENDBRANCH  13  26
TORSDOF 2
ENDMDL
MODEL 4
REMARK VINA RESULT:      -7.1      6.051      8.977
REMARK  Name = 
REMARK  3 active torsions:
REMARK  status: ('A' for Active; 'I' for Inactive)
REMARK    1  A    between atoms: C_1  and  C_2
REMARK    2  A    between atoms: C_4  and  C_5
REMARK    3  A    between atoms: C_18  and  C_19
REMARK                            x       y       z     vdW  Elec       q    Type
REMARK                         _______ _______ _______ _____ _____    ______ ____
ROOT
ATOM      1  C   UNL     1      -2.791  10.228  15.003  0.00  0.00    +0.000 C 
ATOM      2  C   UNL     1      -2.670  10.592  16.436  0.00  0.00    +0.000 A 
ATOM      3  N   UNL     1      -1.589  10.450  17.174  0.00  0.00    +0.000 NA
ATOM      4  C   UNL     1      -1.875  11.029  18.386  0.00  0.00    +0.000 A 
ATOM      5  C   UNL     1      -3.174  11.505  18.406  0.00  0.00    +0.000 A 
ATOM      6  C   UNL     1      -4.088  12.192  19.317  0.00  0.00    +0.000 A 
ATOM      7  N   UNL     1      -3.795  12.640  20.605  0.00  0.00    +0.000 N 
ATOM      8  C   UNL     1      -2.587  13.404  20.903  0.00  0.00    +0.000 C 
ATOM      9  C   UNL     1      -2.107  12.972  22.310  0.00  0.00    +0.000 C 
ATOM     10  C   UNL     1      -3.110  13.539  23.282  0.00  0.00    +0.000 A 
ATOM     11  C   UNL     1      -2.706  14.117  24.476  0.00  0.00    +0.000 A 
ATOM     12  C   UNL     1      -3.444  15.184  24.953  0.00  0.00    +0.000 A 
ATOM     13  C   UNL     1      -4.536  15.629  24.199  0.00  0.00    +0.000 A 
ATOM     14  N   UNL     1      -5.092  14.865  23.196  0.00  0.00    +0.000 NA
ATOM     15  C   UNL     1      -4.397  13.776  22.788  0.00  0.00    +0.000 A 
ATOM     16  C   UNL     1      -4.872  12.875  21.623  0.00  0.00    +0.000 C 
ATOM     17  N   UNL     1      -5.303  12.403  18.874  0.00  0.00    +0.000 NA
ATOM     18  C   UNL     1      -5.648  12.063  17.597  0.00  0.00    +0.000 A 
ATOM     19  N   UNL     1      -4.913  11.475  16.717  0.00  0.00    +0.000 NA
ATOM     20  N   UNL     1      -3.674  11.185  17.164  0.00  0.00    +0.000 N 
ENDROOT
BRANCH   4  21
ATOM     21  C   UNL     1      -0.735  11.185  19.339  0.00  0.00    +0.000 C 
ATOM     22  C   UNL     1       0.584  11.150  18.575  0.00  0.00    +0.000 C 
ATOM     23  C   UNL     1       1.066   9.730  18.774  0.00  0.00    +0.000 C 
ATOM     24  O   UNL     1       0.618   9.334  20.070  0.00  0.00    +0.000 OA
ATOM     25  C   UNL     1      -0.561  10.091  20.384  0.00  0.00    +0.000 C 
ENDBRANCH   4  21
BRANCH  13  26
ATOM     26  C   UNL     1      -4.900  17.113  24.337  0.00  0.00    +0.000 C 
ATOM     27  F   UNL     1      -4.920  17.537  25.641  0.00  0.00    +0.000 F 
ATOM     28  F   UNL     1      -3.983  17.927  23.729  0.00  0.00    +0.000 F 
ATOM     29  F   UNL     1      -6.112  17.453  23.825  0.00  0.00    +0.000 F 
ENDBRANCH  13  26
TORSDOF 2
ENDMDL
MODEL 5
REMARK VINA RESULT:      -6.6      4.480      8.033
REMARK  Name = 
REMARK  3 active torsions:
REMARK  status: ('A' for Active; 'I' for Inactive)
REMARK    1  A    between atoms: C_1  and  C_2
REMARK    2  A    between atoms: C_4  and  C_5
REMARK    3  A    between atoms: C_18  and  C_19
REMARK                            x       y       z     vdW  Elec       q    Type
REMARK                         _______ _______ _______ _____ _____    ______ ____
ROOT
ATOM      1  C   UNL     1      -1.723  12.786  23.248  0.00  0.00    +0.000 C 
ATOM      2  C   UNL     1      -1.146  11.961  22.159  0.00  0.00    +0.000 A 
ATOM      3  N   UNL     1      -1.155  12.268  20.879  0.00  0.00    +0.000 NA
ATOM      4  C   UNL     1      -0.406  11.303  20.249  0.00  0.00    +0.000 A 
ATOM      5  C   UNL     1       0.042  10.361  21.159  0.00  0.00    +0.000 A 
ATOM      6  C   UNL     1       0.838   9.135  21.182  0.00  0.00    +0.000 A 
ATOM      7  N   UNL     1       1.480   8.542  20.097  0.00  0.00    +0.000 N 
ATOM      8  C   UNL     1       2.304   9.311  19.168  0.00  0.00    +0.000 C 
ATOM      9  C   UNL     1       2.098   8.704  17.759  0.00  0.00    +0.000 C 
ATOM     10  C   UNL     1       2.783   7.361  17.783  0.00  0.00    +0.000 A 
ATOM     11  C   UNL     1       3.542   6.922  16.708  0.00  0.00    +0.000 A 
ATOM     12  C   UNL     1       4.653   6.148  16.982  0.00  0.00    +0.000 A 
ATOM     13  C   UNL     1       4.958   5.869  18.318  0.00  0.00    +0.000 A 
ATOM     14  N   UNL     1       4.041   6.052  19.331  0.00  0.00    +0.000 NA
ATOM     15  C   UNL     1       2.917   6.747  19.033  0.00  0.00    +0.000 A 
ATOM     16  C   UNL     1       1.842   7.085  20.093  0.00  0.00    +0.000 C 
ATOM     17  N   UNL     1       0.956   8.540  22.343  0.00  0.00    +0.000 NA
ATOM     18  C   UNL     1       0.422   9.097  23.471  0.00  0.00    +0.000 A 
ATOM     19  N   UNL     1      -0.276  10.176  23.555  0.00  0.00    +0.000 NA
ATOM     20  N   UNL     1      -0.471  10.782  22.365  0.00  0.00    +0.000 N 
ENDROOT
BRANCH   4  21
ATOM     21  C   UNL     1      -0.086  11.537  18.808  0.00  0.00    +0.000 C 
ATOM     22  C   UNL     1       1.231  12.297  18.691  0.00  0.00    +0.000 C 
ATOM     23  C   UNL     1       0.791  13.727  18.467  0.00  0.00    +0.000 C 
ATOM     24  O   UNL     1      -0.426  13.659  17.724  0.00  0.00    +0.000 OA
ATOM     25  C   UNL     1      -1.060  12.405  18.023  0.00  0.00    +0.000 C 
ENDBRANCH   4  21
BRANCH  13  26
ATOM     26  C   UNL     1       6.438   5.631  18.645  0.00  0.00    +0.000 C 
ATOM     27  F   UNL     1       7.246   6.655  18.223  0.00  0.00    +0.000 F 
ATOM     28  F   UNL     1       6.661   5.556  19.994  0.00  0.00    +0.000 F 
ATOM     29  F   UNL     1       6.968   4.503  18.106  0.00  0.00    +0.000 F 
ENDBRANCH  13  26
TORSDOF 2
ENDMDL
MODEL 6
REMARK VINA RESULT:      -6.6      9.299     10.984
REMARK  Name = 
REMARK  3 active torsions:
REMARK  status: ('A' for Active; 'I' for Inactive)
REMARK    1  A    between atoms: C_1  and  C_2
REMARK    2  A    between atoms: C_4  and  C_5
REMARK    3  A    between atoms: C_18  and  C_19
REMARK                            x       y       z     vdW  Elec       q    Type
REMARK                         _______ _______ _______ _____ _____    ______ ____
ROOT
ATOM      1  C   UNL     1      10.415  16.744  17.097  0.00  0.00    +0.000 C 
ATOM      2  C   UNL     1       9.913  15.778  18.103  0.00  0.00    +0.000 A 
ATOM      3  N   UNL     1      10.496  14.646  18.436  0.00  0.00    +0.000 NA
ATOM      4  C   UNL     1       9.772  14.137  19.487  0.00  0.00    +0.000 A 
ATOM      5  C   UNL     1       8.697  14.958  19.782  0.00  0.00    +0.000 A 
ATOM      6  C   UNL     1       7.579  15.022  20.722  0.00  0.00    +0.000 A 
ATOM      7  N   UNL     1       7.307  14.123  21.751  0.00  0.00    +0.000 N 
ATOM      8  C   UNL     1       8.339  13.676  22.683  0.00  0.00    +0.000 C 
ATOM      9  C   UNL     1       8.045  12.193  23.017  0.00  0.00    +0.000 C 
ATOM     10  C   UNL     1       6.803  12.200  23.871  0.00  0.00    +0.000 A 
ATOM     11  C   UNL     1       6.689  11.377  24.982  0.00  0.00    +0.000 A 
ATOM     12  C   UNL     1       5.982  11.859  26.067  0.00  0.00    +0.000 A 
ATOM     13  C   UNL     1       5.442  13.147  25.991  0.00  0.00    +0.000 A 
ATOM     14  N   UNL     1       5.306  13.814  24.792  0.00  0.00    +0.000 NA
ATOM     15  C   UNL     1       5.940  13.290  23.716  0.00  0.00    +0.000 A 
ATOM     16  C   UNL     1       5.929  13.976  22.329  0.00  0.00    +0.000 C 
ATOM     17  N   UNL     1       6.753  16.029  20.575  0.00  0.00    +0.000 NA
ATOM     18  C   UNL     1       6.990  16.995  19.640  0.00  0.00    +0.000 A 
ATOM     19  N   UNL     1       7.952  17.037  18.784  0.00  0.00    +0.000 NA
ATOM     20  N   UNL     1       8.787  15.980  18.866  0.00  0.00    +0.000 N 
ENDROOT
BRANCH   4  21
ATOM     21  C   UNL     1      10.352  12.952  20.189  0.00  0.00    +0.000 C 
ATOM     22  C   UNL     1      11.811  12.777  19.782  0.00  0.00    +0.000 C 
ATOM     23  C   UNL     1      11.753  11.690  18.732  0.00  0.00    +0.000 C 
ATOM     24  O   UNL     1      10.679  10.827  19.109  0.00  0.00    +0.000 OA
ATOM     25  C   UNL     1       9.736  11.597  19.868  0.00  0.00    +0.000 C 
ENDBRANCH   4  21
BRANCH  13  26
ATOM     26  C   UNL     1       5.279  13.898  27.318  0.00  0.00    +0.000 C 
ATOM     27  F   UNL     1       5.893  13.264  28.367  0.00  0.00    +0.000 F 
ATOM     28  F   UNL     1       5.861  15.137  27.283  0.00  0.00    +0.000 F 
ATOM     29  F   UNL     1       3.993  14.091  27.711  0.00  0.00    +0.000 F 
ENDBRANCH  13  26
TORSDOF 2
ENDMDL
MODEL 7
REMARK VINA RESULT:      -6.4      9.389     11.267
REMARK  Name = 
REMARK  3 active torsions:
REMARK  status: ('A' for Active; 'I' for Inactive)
REMARK    1  A    between atoms: C_1  and  C_2
REMARK    2  A    between atoms: C_4  and  C_5
REMARK    3  A    between atoms: C_18  and  C_19
REMARK                            x       y       z     vdW  Elec       q    Type
REMARK                         _______ _______ _______ _____ _____    ______ ____
ROOT
ATOM      1  C   UNL     1      10.285  17.820  17.191  0.00  0.00    +0.000 C 
ATOM      2  C   UNL     1       9.846  16.722  18.085  0.00  0.00    +0.000 A 
ATOM      3  N   UNL     1      10.507  15.605  18.308  0.00  0.00    +0.000 NA
ATOM      4  C   UNL     1       9.813  14.939  19.289  0.00  0.00    +0.000 A 
ATOM      5  C   UNL     1       8.679  15.647  19.651  0.00  0.00    +0.000 A 
ATOM      6  C   UNL     1       7.551  15.533  20.574  0.00  0.00    +0.000 A 
ATOM      7  N   UNL     1       7.337  14.514  21.501  0.00  0.00    +0.000 N 
ATOM      8  C   UNL     1       8.390  14.047  22.398  0.00  0.00    +0.000 C 
ATOM      9  C   UNL     1       8.202  12.521  22.572  0.00  0.00    +0.000 C 
ATOM     10  C   UNL     1       6.956  12.350  23.403  0.00  0.00    +0.000 A 
ATOM     11  C   UNL     1       6.893  11.410  24.421  0.00  0.00    +0.000 A 
ATOM     12  C   UNL     1       6.144  11.725  25.539  0.00  0.00    +0.000 A 
ATOM     13  C   UNL     1       5.513  12.972  25.588  0.00  0.00    +0.000 A 
ATOM     14  N   UNL     1       5.338  13.749  24.462  0.00  0.00    +0.000 NA
ATOM     15  C   UNL     1       6.018  13.387  23.348  0.00  0.00    +0.000 A 
ATOM     16  C   UNL     1       5.968  14.211  22.039  0.00  0.00    +0.000 C 
ATOM     17  N   UNL     1       6.656  16.488  20.520  0.00  0.00    +0.000 NA
ATOM     18  C   UNL     1       6.831  17.561  19.693  0.00  0.00    +0.000 A 
ATOM     19  N   UNL     1       7.794  17.760  18.861  0.00  0.00    +0.000 NA
ATOM     20  N   UNL     1       8.702  16.763  18.846  0.00  0.00    +0.000 N 
ENDROOT
BRANCH   4  21
ATOM     21  C   UNL     1      10.471  13.732  19.874  0.00  0.00    +0.000 C 
ATOM     22  C   UNL     1      11.941  13.703  19.472  0.00  0.00    +0.000 C 
ATOM     23  C   UNL     1      11.968  12.729  18.315  0.00  0.00    +0.000 C 
ATOM     24  O   UNL     1      10.957  11.758  18.586  0.00  0.00    +0.000 OA
ATOM     25  C   UNL     1       9.955  12.378  19.407  0.00  0.00    +0.000 C 
ENDBRANCH   4  21
BRANCH  13  26
ATOM     26  C   UNL     1       5.285  13.568  26.983  0.00  0.00    +0.000 C 
ATOM     27  F   UNL     1       4.874  14.875  26.943  0.00  0.00    +0.000 F 
ATOM     28  F   UNL     1       4.290  12.919  27.664  0.00  0.00    +0.000 F 
ATOM     29  F   UNL     1       6.375  13.554  27.794  0.00  0.00    +0.000 F 
ENDBRANCH  13  26
TORSDOF 2
ENDMDL
MODEL 8
REMARK VINA RESULT:      -6.3      8.970     10.529
REMARK  Name = 
REMARK  3 active torsions:
REMARK  status: ('A' for Active; 'I' for Inactive)
REMARK    1  A    between atoms: C_1  and  C_2
REMARK    2  A    between atoms: C_4  and  C_5
REMARK    3  A    between atoms: C_18  and  C_19
REMARK                            x       y       z     vdW  Elec       q    Type
REMARK                         _______ _______ _______ _____ _____    ______ ____
ROOT
ATOM      1  C   UNL     1      10.030  13.507  17.084  0.00  0.00    +0.000 C 
ATOM      2  C   UNL     1       9.487  13.768  18.439  0.00  0.00    +0.000 A 
ATOM      3  N   UNL     1       8.928  14.891  18.837  0.00  0.00    +0.000 NA
ATOM      4  C   UNL     1       8.453  14.654  20.104  0.00  0.00    +0.000 A 
ATOM      5  C   UNL     1       8.760  13.366  20.508  0.00  0.00    +0.000 A 
ATOM      6  C   UNL     1       8.573  12.495  21.667  0.00  0.00    +0.000 A 
ATOM      7  N   UNL     1       7.884  12.808  22.838  0.00  0.00    +0.000 N 
ATOM      8  C   UNL     1       6.558  13.418  22.817  0.00  0.00    +0.000 C 
ATOM      9  C   UNL     1       6.484  14.398  24.013  0.00  0.00    +0.000 C 
ATOM     10  C   UNL     1       6.437  13.537  25.250  0.00  0.00    +0.000 A 
ATOM     11  C   UNL     1       5.592  13.842  26.307  0.00  0.00    +0.000 A 
ATOM     12  C   UNL     1       5.047  12.788  27.015  0.00  0.00    +0.000 A 
ATOM     13  C   UNL     1       5.361  11.485  26.618  0.00  0.00    +0.000 A 
ATOM     14  N   UNL     1       6.421  11.211  25.780  0.00  0.00    +0.000 NA
ATOM     15  C   UNL     1       6.999  12.260  25.148  0.00  0.00    +0.000 A 
ATOM     16  C   UNL     1       8.149  12.086  24.127  0.00  0.00    +0.000 C 
ATOM     17  N   UNL     1       9.110  11.303  21.591  0.00  0.00    +0.000 NA
ATOM     18  C   UNL     1       9.737  10.890  20.450  0.00  0.00    +0.000 A 
ATOM     19  N   UNL     1       9.934  11.574  19.375  0.00  0.00    +0.000 NA
ATOM     20  N   UNL     1       9.449  12.830  19.444  0.00  0.00    +0.000 N 
ENDROOT
BRANCH   4  21
ATOM     21  C   UNL     1       7.588  15.714  20.705  0.00  0.00    +0.000 C 
ATOM     22  C   UNL     1       6.203  15.669  20.069  0.00  0.00    +0.000 C 
ATOM     23  C   UNL     1       6.254  16.779  19.043  0.00  0.00    +0.000 C 
ATOM     24  O   UNL     1       7.102  17.790  19.588  0.00  0.00    +0.000 OA
ATOM     25  C   UNL     1       8.024  17.157  20.488  0.00  0.00    +0.000 C 
ENDBRANCH   4  21
BRANCH  13  26
ATOM     26  C   UNL     1       4.309  10.408  26.914  0.00  0.00    +0.000 C 
ATOM     27  F   UNL     1       3.817   9.818  25.778  0.00  0.00    +0.000 F 
ATOM     28  F   UNL     1       4.826   9.369  27.640  0.00  0.00    +0.000 F 
ATOM     29  F   UNL     1       3.220  10.847  27.598  0.00  0.00    +0.000 F 
ENDBRANCH  13  26
TORSDOF 2
ENDMDL
MODEL 9
REMARK VINA RESULT:      -6.2      5.943     10.836
REMARK  Name = 
REMARK  3 active torsions:
REMARK  status: ('A' for Active; 'I' for Inactive)
REMARK    1  A    between atoms: C_1  and  C_2
REMARK    2  A    between atoms: C_4  and  C_5
REMARK    3  A    between atoms: C_18  and  C_19
REMARK                            x       y       z     vdW  Elec       q    Type
REMARK                         _______ _______ _______ _____ _____    ______ ____
ROOT
ATOM      1  C   UNL     1      -7.882  14.024  23.873  0.00  0.00    +0.000 C 
ATOM      2  C   UNL     1      -6.556  14.099  23.214  0.00  0.00    +0.000 A 
ATOM      3  N   UNL     1      -5.557  14.871  23.589  0.00  0.00    +0.000 NA
ATOM      4  C   UNL     1      -4.491  14.529  22.793  0.00  0.00    +0.000 A 
ATOM      5  C   UNL     1      -4.854  13.550  21.883  0.00  0.00    +0.000 A 
ATOM      6  C   UNL     1      -4.257  12.769  20.801  0.00  0.00    +0.000 A 
ATOM      7  N   UNL     1      -2.929  12.812  20.380  0.00  0.00    +0.000 N 
ATOM      8  C   UNL     1      -1.815  12.751  21.322  0.00  0.00    +0.000 C 
ATOM      9  C   UNL     1      -0.696  13.668  20.772  0.00  0.00    +0.000 C 
ATOM     10  C   UNL     1      -0.146  12.965  19.557  0.00  0.00    +0.000 A 
ATOM     11  C   UNL     1       1.217  12.923  19.306  0.00  0.00    +0.000 A 
ATOM     12  C   UNL     1       1.723  11.786  18.704  0.00  0.00    +0.000 A 
ATOM     13  C   UNL     1       0.841  10.744  18.401  0.00  0.00    +0.000 A 
ATOM     14  N   UNL     1      -0.526  10.926  18.378  0.00  0.00    +0.000 NA
ATOM     15  C   UNL     1      -1.007  12.079  18.901  0.00  0.00    +0.000 A 
ATOM     16  C   UNL     1      -2.522  12.377  19.003  0.00  0.00    +0.000 C 
ATOM     17  N   UNL     1      -5.057  11.948  20.167  0.00  0.00    +0.000 NA
ATOM     18  C   UNL     1      -6.354  11.790  20.566  0.00  0.00    +0.000 A 
ATOM     19  N   UNL     1      -6.963  12.415  21.514  0.00  0.00    +0.000 NA
ATOM     20  N   UNL     1      -6.184  13.316  22.147  0.00  0.00    +0.000 N 
ENDROOT
BRANCH   4  21
ATOM     21  C   UNL     1      -3.167  15.118  23.157  0.00  0.00    +0.000 C 
ATOM     22  C   UNL     1      -2.533  14.305  24.280  0.00  0.00    +0.000 C 
ATOM     23  C   UNL     1      -2.845  15.116  25.518  0.00  0.00    +0.000 C 
ATOM     24  O   UNL     1      -2.840  16.485  25.111  0.00  0.00    +0.000 OA
ATOM     25  C   UNL     1      -3.179  16.534  23.717  0.00  0.00    +0.000 C 
ENDBRANCH   4  21
BRANCH  13  26
ATOM     26  C   UNL     1       1.435   9.330  18.385  0.00  0.00    +0.000 C 
ATOM     27  F   UNL     1       1.283   8.675  19.580  0.00  0.00    +0.000 F 
ATOM     28  F   UNL     1       0.813   8.521  17.472  0.00  0.00    +0.000 F 
ATOM     29  F   UNL     1       2.763   9.272  18.104  0.00  0.00    +0.000 F 
ENDBRANCH  13  26
TORSDOF 2
ENDMDL
