MODEL 1
REMARK VINA RESULT:      -7.9      0.000      0.000
REMARK  Name = 
REMARK  4 active torsions:
REMARK  status: ('A' for Active; 'I' for Inactive)
REMARK    1  A    between atoms: C_1  and  N_2
REMARK    2  A    between atoms: N_7  and  C_8
REMARK    3  A    between atoms: C_11  and  C_12
REMARK    4  A    between atoms: C_23  and  C_24
REMARK                            x       y       z     vdW  Elec       q    Type
REMARK                         _______ _______ _______ _____ _____    ______ ____
ROOT
ATOM      1  C   UNL     1       5.052   7.307  14.927  0.00  0.00    +0.000 C 
ATOM      2  N   UNL     1       5.097   6.634  16.219  0.00  0.00    +0.000 N 
ATOM      3  C   UNL     1       4.204   6.924  17.237  0.00  0.00    +0.000 A 
ATOM      4  C   UNL     1       4.294   6.255  18.406  0.00  0.00    +0.000 A 
ATOM      5  C   UNL     1       5.372   5.268  18.620  0.00  0.00    +0.000 A 
ATOM      6  O   UNL     1       5.530   4.757  19.726  0.00  0.00    +0.000 OA
ATOM      7  N   UNL     1       6.155   4.978  17.530  0.00  0.00    +0.000 N 
ATOM      8  C   UNL     1       7.188   3.961  17.663  0.00  0.00    +0.000 C 
ATOM      9  C   UNL     1       6.083   5.649  16.324  0.00  0.00    +0.000 A 
ATOM     10  O   UNL     1       6.852   5.398  15.392  0.00  0.00    +0.000 OA
ATOM     11  C   UNL     1       3.319   6.467  19.565  0.00  0.00    +0.000 C 
ATOM     12  C   UNL     1       2.332   7.591  19.302  0.00  0.00    +0.000 C 
ATOM     13  C   UNL     1       2.306   8.224  18.115  0.00  0.00    +0.000 C 
ATOM     14  C   UNL     1       1.314   9.310  17.783  0.00  0.00    +0.000 C 
ATOM     15  C   UNL     1       0.080   9.261  18.689  0.00  0.00    +0.000 C 
ATOM     16  C   UNL     1       0.498   9.185  20.151  0.00  0.00    +0.000 C 
ATOM     17  C   UNL     1       1.389   7.994  20.386  0.00  0.00    +0.000 C 
ATOM     18  O   UNL     1       1.387   7.418  21.471  0.00  0.00    +0.000 OA
ATOM     19  N   UNL     1       3.198   7.872  17.120  0.00  0.00    +0.000 N 
ATOM     20  H   UNL     1       3.142   8.407  16.265  0.00  0.00    +0.000 HD
ENDROOT
BRANCH  11  21
ATOM     21  C   UNL     1       2.573   5.175  19.888  0.00  0.00    +0.000 A 
ATOM     22  C   UNL     1       1.867   4.506  18.875  0.00  0.00    +0.000 A 
ATOM     23  C   UNL     1       1.205   3.317  19.156  0.00  0.00    +0.000 A 
ATOM     24  F   UNL     1       0.538   2.686  18.181  0.00  0.00    +0.000 F 
ATOM     25  C   UNL     1       1.228   2.771  20.431  0.00  0.00    +0.000 A 
ATOM     26  C   UNL     1       1.923   3.433  21.433  0.00  0.00    +0.000 A 
ATOM     27  F   UNL     1       1.954   2.916  22.668  0.00  0.00    +0.000 F 
ATOM     28  C   UNL     1       2.589   4.625  21.179  0.00  0.00    +0.000 A 
ENDBRANCH  11  21
BRANCH  15  29
ATOM     29  C   UNL     1      -0.793  10.442  18.447  0.00  0.00    +0.000 A 
ATOM     30  C   UNL     1      -2.108  10.586  18.063  0.00  0.00    +0.000 A 
ATOM     31  C   UNL     1      -2.352  11.978  18.005  0.00  0.00    +0.000 A 
ATOM     32  C   UNL     1      -1.173  12.592  18.357  0.00  0.00    +0.000 A 
ATOM     33  O   UNL     1      -0.220  11.667  18.625  0.00  0.00    +0.000 OA
ENDBRANCH  15  29
TORSDOF 2
ENDMDL
MODEL 2
REMARK VINA RESULT:      -7.8      0.049      1.453
REMARK  Name = 
REMARK  4 active torsions:
REMARK  status: ('A' for Active; 'I' for Inactive)
REMARK    1  A    between atoms: C_1  and  N_2
REMARK    2  A    between atoms: N_7  and  C_8
REMARK    3  A    between atoms: C_11  and  C_12
REMARK    4  A    between atoms: C_23  and  C_24
REMARK                            x       y       z     vdW  Elec       q    Type
REMARK                         _______ _______ _______ _____ _____    ______ ____
ROOT
ATOM      1  C   UNL     1       5.091   7.325  14.906  0.00  0.00    +0.000 C 
ATOM      2  N   UNL     1       5.133   6.645  16.195  0.00  0.00    +0.000 N 
ATOM      3  C   UNL     1       4.235   6.926  17.211  0.00  0.00    +0.000 A 
ATOM      4  C   UNL     1       4.323   6.252  18.377  0.00  0.00    +0.000 A 
ATOM      5  C   UNL     1       5.406   5.268  18.590  0.00  0.00    +0.000 A 
ATOM      6  O   UNL     1       5.561   4.753  19.694  0.00  0.00    +0.000 OA
ATOM      7  N   UNL     1       6.194   4.988  17.502  0.00  0.00    +0.000 N 
ATOM      8  C   UNL     1       7.232   3.975  17.635  0.00  0.00    +0.000 C 
ATOM      9  C   UNL     1       6.124   5.665  16.299  0.00  0.00    +0.000 A 
ATOM     10  O   UNL     1       6.898   5.422  15.369  0.00  0.00    +0.000 OA
ATOM     11  C   UNL     1       3.343   6.453  19.533  0.00  0.00    +0.000 C 
ATOM     12  C   UNL     1       2.351   7.574  19.271  0.00  0.00    +0.000 C 
ATOM     13  C   UNL     1       2.327   8.212  18.087  0.00  0.00    +0.000 C 
ATOM     14  C   UNL     1       1.332   9.296  17.757  0.00  0.00    +0.000 C 
ATOM     15  C   UNL     1       0.094   9.237  18.657  0.00  0.00    +0.000 C 
ATOM     16  C   UNL     1       0.507   9.155  20.121  0.00  0.00    +0.000 C 
ATOM     17  C   UNL     1       1.402   7.967  20.353  0.00  0.00    +0.000 C 
ATOM     18  O   UNL     1       1.399   7.386  21.435  0.00  0.00    +0.000 OA
ATOM     19  N   UNL     1       3.225   7.870  17.094  0.00  0.00    +0.000 N 
ATOM     20  H   UNL     1       3.170   8.409  16.241  0.00  0.00    +0.000 HD
ENDROOT
BRANCH  11  21
ATOM     21  C   UNL     1       2.602   5.156  19.846  0.00  0.00    +0.000 A 
ATOM     22  C   UNL     1       2.646   4.624  21.145  0.00  0.00    +0.000 A 
ATOM     23  C   UNL     1       1.954   3.456  21.443  0.00  0.00    +0.000 A 
ATOM     24  F   UNL     1       2.001   2.960  22.686  0.00  0.00    +0.000 F 
ATOM     25  C   UNL     1       1.213   2.798  20.472  0.00  0.00    +0.000 A 
ATOM     26  C   UNL     1       1.172   3.322  19.188  0.00  0.00    +0.000 A 
ATOM     27  F   UNL     1       0.457   2.697  18.243  0.00  0.00    +0.000 F 
ATOM     28  C   UNL     1       1.857   4.485  18.864  0.00  0.00    +0.000 A 
ENDBRANCH  11  21
BRANCH  15  29
ATOM     29  C   UNL     1      -0.783  10.415  18.417  0.00  0.00    +0.000 A 
ATOM     30  C   UNL     1      -2.093  10.554  18.013  0.00  0.00    +0.000 A 
ATOM     31  C   UNL     1      -2.346  11.945  17.971  0.00  0.00    +0.000 A 
ATOM     32  C   UNL     1      -1.178  12.563  18.352  0.00  0.00    +0.000 A 
ATOM     33  O   UNL     1      -0.223  11.640  18.623  0.00  0.00    +0.000 OA
ENDBRANCH  15  29
TORSDOF 2
ENDMDL
MODEL 3
REMARK VINA RESULT:      -7.6      5.997      8.985
REMARK  Name = 
REMARK  4 active torsions:
REMARK  status: ('A' for Active; 'I' for Inactive)
REMARK    1  A    between atoms: C_1  and  N_2
REMARK    2  A    between atoms: N_7  and  C_8
REMARK    3  A    between atoms: C_11  and  C_12
REMARK    4  A    between atoms: C_23  and  C_24
REMARK                            x       y       z     vdW  Elec       q    Type
REMARK                         _______ _______ _______ _____ _____    ______ ____
ROOT
ATOM      1  C   UNL     1      -1.260  17.696  18.774  0.00  0.00    +0.000 C 
ATOM      2  N   UNL     1      -0.377  16.565  19.033  0.00  0.00    +0.000 N 
ATOM      3  C   UNL     1      -0.761  15.489  19.814  0.00  0.00    +0.000 A 
ATOM      4  C   UNL     1       0.102  14.469  20.005  0.00  0.00    +0.000 A 
ATOM      5  C   UNL     1       1.466  14.529  19.437  0.00  0.00    +0.000 A 
ATOM      6  O   UNL     1       2.289  13.662  19.720  0.00  0.00    +0.000 OA
ATOM      7  N   UNL     1       1.730  15.587  18.604  0.00  0.00    +0.000 N 
ATOM      8  C   UNL     1       3.035  15.660  17.961  0.00  0.00    +0.000 C 
ATOM      9  C   UNL     1       0.864  16.644  18.394  0.00  0.00    +0.000 A 
ATOM     10  O   UNL     1       1.171  17.607  17.687  0.00  0.00    +0.000 OA
ATOM     11  C   UNL     1      -0.252  13.214  20.804  0.00  0.00    +0.000 C 
ATOM     12  C   UNL     1      -1.622  13.303  21.456  0.00  0.00    +0.000 C 
ATOM     13  C   UNL     1      -2.427  14.357  21.231  0.00  0.00    +0.000 C 
ATOM     14  C   UNL     1      -3.813  14.472  21.811  0.00  0.00    +0.000 C 
ATOM     15  C   UNL     1      -4.379  13.112  22.231  0.00  0.00    +0.000 C 
ATOM     16  C   UNL     1      -3.371  12.362  23.093  0.00  0.00    +0.000 C 
ATOM     17  C   UNL     1      -2.063  12.204  22.363  0.00  0.00    +0.000 C 
ATOM     18  O   UNL     1      -1.348  11.226  22.569  0.00  0.00    +0.000 OA
ATOM     19  N   UNL     1      -2.007  15.390  20.415  0.00  0.00    +0.000 N 
ATOM     20  H   UNL     1      -2.650  16.164  20.313  0.00  0.00    +0.000 HD
ENDROOT
BRANCH  11  21
ATOM     21  C   UNL     1      -0.168  11.970  19.924  0.00  0.00    +0.000 A 
ATOM     22  C   UNL     1       0.759  10.961  20.231  0.00  0.00    +0.000 A 
ATOM     23  C   UNL     1       0.825   9.814  19.448  0.00  0.00    +0.000 A 
ATOM     24  F   UNL     1       1.710   8.856  19.753  0.00  0.00    +0.000 F 
ATOM     25  C   UNL     1      -0.015   9.646  18.357  0.00  0.00    +0.000 A 
ATOM     26  C   UNL     1      -0.928  10.645  18.051  0.00  0.00    +0.000 A 
ATOM     27  F   UNL     1      -1.745  10.493  17.001  0.00  0.00    +0.000 F 
ATOM     28  C   UNL     1      -1.011  11.801  18.815  0.00  0.00    +0.000 A 
ENDBRANCH  11  21
BRANCH  15  29
ATOM     29  C   UNL     1      -5.671  13.281  22.949  0.00  0.00    +0.000 A 
ATOM     30  C   UNL     1      -6.261  14.342  23.600  0.00  0.00    +0.000 A 
ATOM     31  C   UNL     1      -7.502  13.866  24.085  0.00  0.00    +0.000 A 
ATOM     32  C   UNL     1      -7.588  12.549  23.699  0.00  0.00    +0.000 A 
ATOM     33  O   UNL     1      -6.479  12.185  23.011  0.00  0.00    +0.000 OA
ENDBRANCH  15  29
TORSDOF 2
ENDMDL
MODEL 4
REMARK VINA RESULT:      -7.4      5.855      8.699
REMARK  Name = 
REMARK  4 active torsions:
REMARK  status: ('A' for Active; 'I' for Inactive)
REMARK    1  A    between atoms: C_1  and  N_2
REMARK    2  A    between atoms: N_7  and  C_8
REMARK    3  A    between atoms: C_11  and  C_12
REMARK    4  A    between atoms: C_23  and  C_24
REMARK                            x       y       z     vdW  Elec       q    Type
REMARK                         _______ _______ _______ _____ _____    ______ ____
ROOT
ATOM      1  C   UNL     1      -0.424  17.463  19.711  0.00  0.00    +0.000 C 
ATOM      2  N   UNL     1       0.321  16.256  20.049  0.00  0.00    +0.000 N 
ATOM      3  C   UNL     1      -0.242  15.214  20.768  0.00  0.00    +0.000 A 
ATOM      4  C   UNL     1       0.501  14.121  21.038  0.00  0.00    +0.000 A 
ATOM      5  C   UNL     1       1.918  14.060  20.625  0.00  0.00    +0.000 A 
ATOM      6  O   UNL     1       2.625  13.122  20.984  0.00  0.00    +0.000 OA
ATOM      7  N   UNL     1       2.367  15.094  19.841  0.00  0.00    +0.000 N 
ATOM      8  C   UNL     1       3.736  15.052  19.347  0.00  0.00    +0.000 C 
ATOM      9  C   UNL     1       1.627  16.225  19.553  0.00  0.00    +0.000 A 
ATOM     10  O   UNL     1       2.095  17.160  18.897  0.00  0.00    +0.000 OA
ATOM     11  C   UNL     1      -0.051  12.899  21.775  0.00  0.00    +0.000 C 
ATOM     12  C   UNL     1      -1.471  13.108  22.273  0.00  0.00    +0.000 C 
ATOM     13  C   UNL     1      -2.149  14.231  21.976  0.00  0.00    +0.000 C 
ATOM     14  C   UNL     1      -3.575  14.467  22.402  0.00  0.00    +0.000 C 
ATOM     15  C   UNL     1      -4.302  13.162  22.736  0.00  0.00    +0.000 C 
ATOM     16  C   UNL     1      -3.467  12.321  23.694  0.00  0.00    +0.000 C 
ATOM     17  C   UNL     1      -2.106  12.049  23.110  0.00  0.00    +0.000 C 
ATOM     18  O   UNL     1      -1.508  11.010  23.379  0.00  0.00    +0.000 OA
ATOM     19  N   UNL     1      -1.551  15.226  21.226  0.00  0.00    +0.000 N 
ATOM     20  H   UNL     1      -2.107  16.054  21.065  0.00  0.00    +0.000 HD
ENDROOT
BRANCH  11  21
ATOM     21  C   UNL     1       0.020  11.656  20.892  0.00  0.00    +0.000 A 
ATOM     22  C   UNL     1      -0.678  11.626  19.673  0.00  0.00    +0.000 A 
ATOM     23  C   UNL     1      -0.599  10.507  18.853  0.00  0.00    +0.000 A 
ATOM     24  F   UNL     1      -1.266  10.492  17.691  0.00  0.00    +0.000 F 
ATOM     25  C   UNL     1       0.164   9.407  19.217  0.00  0.00    +0.000 A 
ATOM     26  C   UNL     1       0.850   9.435  20.423  0.00  0.00    +0.000 A 
ATOM     27  F   UNL     1       1.592   8.380  20.785  0.00  0.00    +0.000 F 
ATOM     28  C   UNL     1       0.785  10.539  21.262  0.00  0.00    +0.000 A 
ENDBRANCH  11  21
BRANCH  15  29
ATOM     29  C   UNL     1      -5.646  13.443  23.311  0.00  0.00    +0.000 A 
ATOM     30  C   UNL     1      -6.597  12.659  23.925  0.00  0.00    +0.000 A 
ATOM     31  C   UNL     1      -7.671  13.521  24.247  0.00  0.00    +0.000 A 
ATOM     32  C   UNL     1      -7.307  14.773  23.810  0.00  0.00    +0.000 A 
ATOM     33  O   UNL     1      -6.079  14.734  23.238  0.00  0.00    +0.000 OA
ENDBRANCH  15  29
TORSDOF 2
ENDMDL
MODEL 5
REMARK VINA RESULT:      -7.4      5.669      8.214
REMARK  Name = 
REMARK  4 active torsions:
REMARK  status: ('A' for Active; 'I' for Inactive)
REMARK    1  A    between atoms: C_1  and  N_2
REMARK    2  A    between atoms: N_7  and  C_8
REMARK    3  A    between atoms: C_11  and  C_12
REMARK    4  A    between atoms: C_23  and  C_24
REMARK                            x       y       z     vdW  Elec       q    Type
REMARK                         _______ _______ _______ _____ _____    ______ ____
ROOT
ATOM      1  C   UNL     1      -0.418  16.798  18.322  0.00  0.00    +0.000 C 
ATOM      2  N   UNL     1       0.353  15.791  19.041  0.00  0.00    +0.000 N 
ATOM      3  C   UNL     1      -0.236  14.884  19.906  0.00  0.00    +0.000 A 
ATOM      4  C   UNL     1       0.535  13.970  20.531  0.00  0.00    +0.000 A 
ATOM      5  C   UNL     1       2.001  13.976  20.343  0.00  0.00    +0.000 A 
ATOM      6  O   UNL     1       2.711  13.229  21.012  0.00  0.00    +0.000 OA
ATOM      7  N   UNL     1       2.489  14.848  19.403  0.00  0.00    +0.000 N 
ATOM      8  C   UNL     1       3.918  14.848  19.126  0.00  0.00    +0.000 C 
ATOM      9  C   UNL     1       1.720  15.794  18.750  0.00  0.00    +0.000 A 
ATOM     10  O   UNL     1       2.215  16.601  17.959  0.00  0.00    +0.000 OA
ATOM     11  C   UNL     1      -0.032  12.895  21.459  0.00  0.00    +0.000 C 
ATOM     12  C   UNL     1      -1.525  13.052  21.692  0.00  0.00    +0.000 C 
ATOM     13  C   UNL     1      -2.231  13.995  21.042  0.00  0.00    +0.000 C 
ATOM     14  C   UNL     1      -3.721  14.161  21.198  0.00  0.00    +0.000 C 
ATOM     15  C   UNL     1      -4.391  12.892  21.736  0.00  0.00    +0.000 C 
ATOM     16  C   UNL     1      -3.658  12.390  22.973  0.00  0.00    +0.000 C 
ATOM     17  C   UNL     1      -2.204  12.147  22.665  0.00  0.00    +0.000 C 
ATOM     18  O   UNL     1      -1.579  11.269  23.257  0.00  0.00    +0.000 OA
ATOM     19  N   UNL     1      -1.599  14.853  20.163  0.00  0.00    +0.000 N 
ATOM     20  H   UNL     1      -2.183  15.556  19.732  0.00  0.00    +0.000 HD
ENDROOT
BRANCH  11  21
ATOM     21  C   UNL     1       0.273  11.500  20.920  0.00  0.00    +0.000 A 
ATOM     22  C   UNL     1      -0.018  11.190  19.582  0.00  0.00    +0.000 A 
ATOM     23  C   UNL     1       0.280   9.929  19.078  0.00  0.00    +0.000 A 
ATOM     24  F   UNL     1       0.001   9.647  17.799  0.00  0.00    +0.000 F 
ATOM     25  C   UNL     1       0.864   8.960  19.881  0.00  0.00    +0.000 A 
ATOM     26  C   UNL     1       1.148   9.264  21.204  0.00  0.00    +0.000 A 
ATOM     27  F   UNL     1       1.714   8.337  21.988  0.00  0.00    +0.000 F 
ATOM     28  C   UNL     1       0.857  10.515  21.732  0.00  0.00    +0.000 A 
ENDBRANCH  11  21
BRANCH  15  29
ATOM     29  C   UNL     1      -5.826  13.145  22.035  0.00  0.00    +0.000 A 
ATOM     30  C   UNL     1      -6.539  14.275  22.373  0.00  0.00    +0.000 A 
ATOM     31  C   UNL     1      -7.882  13.860  22.534  0.00  0.00    +0.000 A 
ATOM     32  C   UNL     1      -7.902  12.508  22.283  0.00  0.00    +0.000 A 
ATOM     33  O   UNL     1      -6.657  12.065  21.981  0.00  0.00    +0.000 OA
ENDBRANCH  15  29
TORSDOF 2
ENDMDL
MODEL 6
REMARK VINA RESULT:      -7.3      6.065      9.078
REMARK  Name = 
REMARK  4 active torsions:
REMARK  status: ('A' for Active; 'I' for Inactive)
REMARK    1  A    between atoms: C_1  and  N_2
REMARK    2  A    between atoms: N_7  and  C_8
REMARK    3  A    between atoms: C_11  and  C_12
REMARK    4  A    between atoms: C_23  and  C_24
REMARK                            x       y       z     vdW  Elec       q    Type
REMARK                         _______ _______ _______ _____ _____    ______ ____
ROOT
ATOM      1  C   UNL     1      -0.282  17.834  20.483  0.00  0.00    +0.000 C 
ATOM      2  N   UNL     1       0.421  16.572  20.679  0.00  0.00    +0.000 N 
ATOM      3  C   UNL     1      -0.189  15.463  21.242  0.00  0.00    +0.000 A 
ATOM      4  C   UNL     1       0.516  14.322  21.386  0.00  0.00    +0.000 A 
ATOM      5  C   UNL     1       1.943  14.273  21.004  0.00  0.00    +0.000 A 
ATOM      6  O   UNL     1       2.615  13.276  21.255  0.00  0.00    +0.000 OA
ATOM      7  N   UNL     1       2.441  15.386  20.373  0.00  0.00    +0.000 N 
ATOM      8  C   UNL     1       3.822  15.367  19.912  0.00  0.00    +0.000 C 
ATOM      9  C   UNL     1       1.740  16.566  20.215  0.00  0.00    +0.000 A 
ATOM     10  O   UNL     1       2.251  17.564  19.699  0.00  0.00    +0.000 OA
ATOM     11  C   UNL     1      -0.088  13.032  21.944  0.00  0.00    +0.000 C 
ATOM     12  C   UNL     1      -1.515  13.217  22.429  0.00  0.00    +0.000 C 
ATOM     13  C   UNL     1      -2.155  14.389  22.264  0.00  0.00    +0.000 C 
ATOM     14  C   UNL     1      -3.587  14.611  22.681  0.00  0.00    +0.000 C 
ATOM     15  C   UNL     1      -4.357  13.295  22.825  0.00  0.00    +0.000 C 
ATOM     16  C   UNL     1      -3.572  12.313  23.685  0.00  0.00    +0.000 C 
ATOM     17  C   UNL     1      -2.202  12.079  23.105  0.00  0.00    +0.000 C 
ATOM     18  O   UNL     1      -1.640  10.996  23.252  0.00  0.00    +0.000 OA
ATOM     19  N   UNL     1      -1.510  15.455  21.665  0.00  0.00    +0.000 N 
ATOM     20  H   UNL     1      -2.040  16.313  21.599  0.00  0.00    +0.000 HD
ENDROOT
BRANCH  11  21
ATOM     21  C   UNL     1      -0.025  11.913  20.908  0.00  0.00    +0.000 A 
ATOM     22  C   UNL     1       0.749  10.769  21.165  0.00  0.00    +0.000 A 
ATOM     23  C   UNL     1       0.792   9.735  20.237  0.00  0.00    +0.000 A 
ATOM     24  F   UNL     1       1.529   8.647  20.495  0.00  0.00    +0.000 F 
ATOM     25  C   UNL     1       0.079   9.812  19.049  0.00  0.00    +0.000 A 
ATOM     26  C   UNL     1      -0.682  10.944  18.794  0.00  0.00    +0.000 A 
ATOM     27  F   UNL     1      -1.376  11.029  17.651  0.00  0.00    +0.000 F 
ATOM     28  C   UNL     1      -0.738  11.992  19.702  0.00  0.00    +0.000 A 
ENDBRANCH  11  21
BRANCH  15  29
ATOM     29  C   UNL     1      -5.709  13.540  23.397  0.00  0.00    +0.000 A 
ATOM     30  C   UNL     1      -6.610  12.746  24.072  0.00  0.00    +0.000 A 
ATOM     31  C   UNL     1      -7.727  13.568  24.352  0.00  0.00    +0.000 A 
ATOM     32  C   UNL     1      -7.435  14.807  23.832  0.00  0.00    +0.000 A 
ATOM     33  O   UNL     1      -6.212  14.798  23.248  0.00  0.00    +0.000 OA
ENDBRANCH  15  29
TORSDOF 2
ENDMDL
MODEL 7
REMARK VINA RESULT:      -7.2      5.712      8.432
REMARK  Name = 
REMARK  4 active torsions:
REMARK  status: ('A' for Active; 'I' for Inactive)
REMARK    1  A    between atoms: C_1  and  N_2
REMARK    2  A    between atoms: N_7  and  C_8
REMARK    3  A    between atoms: C_11  and  C_12
REMARK    4  A    between atoms: C_23  and  C_24
REMARK                            x       y       z     vdW  Elec       q    Type
REMARK                         _______ _______ _______ _____ _____    ______ ____
ROOT
ATOM      1  C   UNL     1      -0.646  16.868  18.472  0.00  0.00    +0.000 C 
ATOM      2  N   UNL     1       0.187  15.867  19.129  0.00  0.00    +0.000 N 
ATOM      3  C   UNL     1      -0.332  14.934  20.011  0.00  0.00    +0.000 A 
ATOM      4  C   UNL     1       0.492  14.028  20.576  0.00  0.00    +0.000 A 
ATOM      5  C   UNL     1       1.945  14.069  20.305  0.00  0.00    +0.000 A 
ATOM      6  O   UNL     1       2.707  13.328  20.919  0.00  0.00    +0.000 OA
ATOM      7  N   UNL     1       2.359  14.966  19.352  0.00  0.00    +0.000 N 
ATOM      8  C   UNL     1       3.770  15.002  18.994  0.00  0.00    +0.000 C 
ATOM      9  C   UNL     1       1.535  15.905  18.761  0.00  0.00    +0.000 A 
ATOM     10  O   UNL     1       1.966  16.735  17.956  0.00  0.00    +0.000 OA
ATOM     11  C   UNL     1       0.002  12.926  21.516  0.00  0.00    +0.000 C 
ATOM     12  C   UNL     1      -1.478  13.046  21.837  0.00  0.00    +0.000 C 
ATOM     13  C   UNL     1      -2.239  13.984  21.244  0.00  0.00    +0.000 C 
ATOM     14  C   UNL     1      -3.721  14.114  21.488  0.00  0.00    +0.000 C 
ATOM     15  C   UNL     1      -4.332  12.824  22.042  0.00  0.00    +0.000 C 
ATOM     16  C   UNL     1      -3.519  12.318  23.227  0.00  0.00    +0.000 C 
ATOM     17  C   UNL     1      -2.080  12.112  22.832  0.00  0.00    +0.000 C 
ATOM     18  O   UNL     1      -1.405  11.240  23.372  0.00  0.00    +0.000 OA
ATOM     19  N   UNL     1      -1.677  14.870  20.346  0.00  0.00    +0.000 N 
ATOM     20  H   UNL     1      -2.300  15.566  19.960  0.00  0.00    +0.000 HD
ENDROOT
BRANCH  11  21
ATOM     21  C   UNL     1       0.305  11.547  20.938  0.00  0.00    +0.000 A 
ATOM     22  C   UNL     1       0.880  10.559  21.755  0.00  0.00    +0.000 A 
ATOM     23  C   UNL     1       1.137   9.293  21.241  0.00  0.00    +0.000 A 
ATOM     24  F   UNL     1       1.681   8.359  22.031  0.00  0.00    +0.000 F 
ATOM     25  C   UNL     1       0.834   8.983  19.924  0.00  0.00    +0.000 A 
ATOM     26  C   UNL     1       0.270   9.959  19.116  0.00  0.00    +0.000 A 
ATOM     27  F   UNL     1      -0.029   9.670  17.842  0.00  0.00    +0.000 F 
ATOM     28  C   UNL     1       0.007  11.232  19.603  0.00  0.00    +0.000 A 
ENDBRANCH  11  21
BRANCH  15  29
ATOM     29  C   UNL     1      -5.753  13.040  22.427  0.00  0.00    +0.000 A 
ATOM     30  C   UNL     1      -6.824  13.636  21.799  0.00  0.00    +0.000 A 
ATOM     31  C   UNL     1      -7.916  13.525  22.692  0.00  0.00    +0.000 A 
ATOM     32  C   UNL     1      -7.441  12.870  23.803  0.00  0.00    +0.000 A 
ATOM     33  O   UNL     1      -6.127  12.573  23.652  0.00  0.00    +0.000 OA
ENDBRANCH  15  29
TORSDOF 2
ENDMDL
MODEL 8
REMARK VINA RESULT:      -7.1      7.263     10.086
REMARK  Name = 
REMARK  4 active torsions:
REMARK  status: ('A' for Active; 'I' for Inactive)
REMARK    1  A    between atoms: C_1  and  N_2
REMARK    2  A    between atoms: N_7  and  C_8
REMARK    3  A    between atoms: C_11  and  C_12
REMARK    4  A    between atoms: C_23  and  C_24
REMARK                            x       y       z     vdW  Elec       q    Type
REMARK                         _______ _______ _______ _____ _____    ______ ____
ROOT
ATOM      1  C   UNL     1      -6.240  13.949  20.905  0.00  0.00    +0.000 C 
ATOM      2  N   UNL     1      -4.899  13.655  21.398  0.00  0.00    +0.000 N 
ATOM      3  C   UNL     1      -3.965  12.967  20.642  0.00  0.00    +0.000 A 
ATOM      4  C   UNL     1      -2.739  12.738  21.155  0.00  0.00    +0.000 A 
ATOM      5  C   UNL     1      -2.414  13.163  22.533  0.00  0.00    +0.000 A 
ATOM      6  O   UNL     1      -1.344  12.840  23.041  0.00  0.00    +0.000 OA
ATOM      7  N   UNL     1      -3.365  13.915  23.176  0.00  0.00    +0.000 N 
ATOM      8  C   UNL     1      -3.071  14.420  24.509  0.00  0.00    +0.000 C 
ATOM      9  C   UNL     1      -4.629  14.162  22.673  0.00  0.00    +0.000 A 
ATOM     10  O   UNL     1      -5.474  14.789  23.316  0.00  0.00    +0.000 OA
ATOM     11  C   UNL     1      -1.625  12.038  20.374  0.00  0.00    +0.000 C 
ATOM     12  C   UNL     1      -2.093  11.523  19.023  0.00  0.00    +0.000 C 
ATOM     13  C   UNL     1      -3.337  11.779  18.579  0.00  0.00    +0.000 C 
ATOM     14  C   UNL     1      -3.835  11.336  17.227  0.00  0.00    +0.000 C 
ATOM     15  C   UNL     1      -2.687  11.039  16.257  0.00  0.00    +0.000 C 
ATOM     16  C   UNL     1      -1.667  10.115  16.911  0.00  0.00    +0.000 C 
ATOM     17  C   UNL     1      -1.152  10.717  18.192  0.00  0.00    +0.000 C 
ATOM     18  O   UNL     1      -0.008  10.486  18.573  0.00  0.00    +0.000 OA
ATOM     19  N   UNL     1      -4.219  12.500  19.361  0.00  0.00    +0.000 N 
ATOM     20  H   UNL     1      -5.146  12.630  18.979  0.00  0.00    +0.000 HD
ENDROOT
BRANCH  11  21
ATOM     21  C   UNL     1      -0.424  12.962  20.198  0.00  0.00    +0.000 A 
ATOM     22  C   UNL     1       0.802  12.633  20.800  0.00  0.00    +0.000 A 
ATOM     23  C   UNL     1       1.907  13.458  20.624  0.00  0.00    +0.000 A 
ATOM     24  F   UNL     1       3.072  13.132  21.200  0.00  0.00    +0.000 F 
ATOM     25  C   UNL     1       1.823  14.612  19.859  0.00  0.00    +0.000 A 
ATOM     26  C   UNL     1       0.611  14.939  19.268  0.00  0.00    +0.000 A 
ATOM     27  F   UNL     1       0.517  16.050  18.525  0.00  0.00    +0.000 F 
ATOM     28  C   UNL     1      -0.509  14.134  19.431  0.00  0.00    +0.000 A 
ENDBRANCH  11  21
BRANCH  15  29
ATOM     29  C   UNL     1      -3.209  10.446  14.996  0.00  0.00    +0.000 A 
ATOM     30  C   UNL     1      -4.477  10.239  14.499  0.00  0.00    +0.000 A 
ATOM     31  C   UNL     1      -4.310   9.625  13.236  0.00  0.00    +0.000 A 
ATOM     32  C   UNL     1      -2.955   9.499  13.043  0.00  0.00    +0.000 A 
ATOM     33  O   UNL     1      -2.278   9.993  14.109  0.00  0.00    +0.000 OA
ENDBRANCH  15  29
TORSDOF 2
ENDMDL
MODEL 9
REMARK VINA RESULT:      -7.1      5.798      9.064
REMARK  Name = 
REMARK  4 active torsions:
REMARK  status: ('A' for Active; 'I' for Inactive)
REMARK    1  A    between atoms: C_1  and  N_2
REMARK    2  A    between atoms: N_7  and  C_8
REMARK    3  A    between atoms: C_11  and  C_12
REMARK    4  A    between atoms: C_23  and  C_24
REMARK                            x       y       z     vdW  Elec       q    Type
REMARK                         _______ _______ _______ _____ _____    ______ ____
ROOT
ATOM      1  C   UNL     1      -6.225  12.521  20.139  0.00  0.00    +0.000 C 
ATOM      2  N   UNL     1      -5.012  12.219  19.388  0.00  0.00    +0.000 N 
ATOM      3  C   UNL     1      -3.754  12.591  19.830  0.00  0.00    +0.000 A 
ATOM      4  C   UNL     1      -2.672  12.270  19.091  0.00  0.00    +0.000 A 
ATOM      5  C   UNL     1      -2.832  11.583  17.792  0.00  0.00    +0.000 A 
ATOM      6  O   UNL     1      -1.858  11.409  17.063  0.00  0.00    +0.000 OA
ATOM      7  N   UNL     1      -4.102  11.173  17.475  0.00  0.00    +0.000 N 
ATOM      8  C   UNL     1      -4.308  10.430  16.240  0.00  0.00    +0.000 C 
ATOM      9  C   UNL     1      -5.226  11.490  18.214  0.00  0.00    +0.000 A 
ATOM     10  O   UNL     1      -6.358  11.154  17.855  0.00  0.00    +0.000 OA
ATOM     11  C   UNL     1      -1.240  12.589  19.525  0.00  0.00    +0.000 C 
ATOM     12  C   UNL     1      -1.186  13.409  20.803  0.00  0.00    +0.000 C 
ATOM     13  C   UNL     1      -2.308  13.703  21.484  0.00  0.00    +0.000 C 
ATOM     14  C   UNL     1      -2.306  14.469  22.782  0.00  0.00    +0.000 C 
ATOM     15  C   UNL     1      -0.940  14.429  23.474  0.00  0.00    +0.000 C 
ATOM     16  C   UNL     1       0.162  14.806  22.493  0.00  0.00    +0.000 C 
ATOM     17  C   UNL     1       0.136  13.897  21.293  0.00  0.00    +0.000 C 
ATOM     18  O   UNL     1       1.174  13.626  20.693  0.00  0.00    +0.000 OA
ATOM     19  N   UNL     1      -3.537  13.278  21.015  0.00  0.00    +0.000 N 
ATOM     20  H   UNL     1      -4.340  13.558  21.560  0.00  0.00    +0.000 HD
ENDROOT
BRANCH  11  21
ATOM     21  C   UNL     1      -0.426  11.309  19.686  0.00  0.00    +0.000 A 
ATOM     22  C   UNL     1       0.608  11.021  18.780  0.00  0.00    +0.000 A 
ATOM     23  C   UNL     1       1.369   9.869  18.934  0.00  0.00    +0.000 A 
ATOM     24  F   UNL     1       2.355   9.608  18.066  0.00  0.00    +0.000 F 
ATOM     25  C   UNL     1       1.126   8.987  19.977  0.00  0.00    +0.000 A 
ATOM     26  C   UNL     1       0.102   9.268  20.870  0.00  0.00    +0.000 A 
ATOM     27  F   UNL     1      -0.141   8.425  21.882  0.00  0.00    +0.000 F 
ATOM     28  C   UNL     1      -0.676  10.411  20.736  0.00  0.00    +0.000 A 
ENDBRANCH  11  21
BRANCH  15  29
ATOM     29  C   UNL     1      -0.928  15.330  24.659  0.00  0.00    +0.000 A 
ATOM     30  C   UNL     1      -1.768  15.487  25.738  0.00  0.00    +0.000 A 
ATOM     31  C   UNL     1      -1.209  16.520  26.526  0.00  0.00    +0.000 A 
ATOM     32  C   UNL     1      -0.066  16.925  25.879  0.00  0.00    +0.000 A 
ATOM     33  O   UNL     1       0.112  16.208  24.742  0.00  0.00    +0.000 OA
ENDBRANCH  15  29
TORSDOF 2
ENDMDL
