MODEL 1
REMARK VINA RESULT:      -7.0      0.000      0.000
REMARK  Name = 
REMARK  6 active torsions:
REMARK  status: ('A' for Active; 'I' for Inactive)
REMARK    1  A    between atoms: C_1  and  N_2
REMARK    2  A    between atoms: N_2  and  C_3
REMARK    3  A    between atoms: N_2  and  C_4
REMARK    4  A    between atoms: C_9  and  N_10
REMARK    5  A    between atoms: C_11  and  C_13
REMARK    6  A    between atoms: C_16  and  C_17
REMARK                            x       y       z     vdW  Elec       q    Type
REMARK                         _______ _______ _______ _____ _____    ______ ____
ROOT
ATOM      1  N   UNL     1       4.386   6.762  17.126  0.00  0.00    +0.000 N 
ATOM      2  C   UNL     1       3.432   6.331  18.022  0.00  0.00    +0.000 C 
ATOM      3  O   UNL     1       3.233   5.169  18.357  0.00  0.00    +0.000 OA
ATOM      4  H   UNL     1       4.433   7.732  16.836  0.00  0.00    +0.000 HD
ENDROOT
BRANCH   1  10
ATOM      5  C   UNL     1       6.632   5.846  16.943  0.00  0.00    +0.000 A 
ATOM      6  N   UNL     1       7.558   5.057  16.348  0.00  0.00    +0.000 NA
ATOM      7  C   UNL     1       7.195   4.373  15.240  0.00  0.00    +0.000 A 
ATOM      8  C   UNL     1       5.931   4.414  14.685  0.00  0.00    +0.000 A 
ATOM      9  C   UNL     1       4.976   5.212  15.297  0.00  0.00    +0.000 A 
ATOM     10  C   UNL     1       5.314   5.947  16.434  0.00  0.00    +0.000 A 
BRANCH   5  12
ATOM     11  C   UNL     1       7.738   5.852  19.067  0.00  0.00    +0.000 C 
ATOM     12  N   UNL     1       7.006   6.650  18.072  0.00  0.00    +0.000 N 
ATOM     13  C   UNL     1       7.768   7.815  17.602  0.00  0.00    +0.000 C 
ENDBRANCH   5  12
ENDBRANCH   1  10
BRANCH   2  14
ATOM     14  C   UNL     1       2.558   7.383  18.615  0.00  0.00    +0.000 A 
ATOM     15  C   UNL     1       2.137   7.366  19.950  0.00  0.00    +0.000 A 
ATOM     16  C   UNL     1       1.329   8.399  20.441  0.00  0.00    +0.000 A 
ATOM     17  C   UNL     1       0.945   9.454  19.605  0.00  0.00    +0.000 A 
ATOM     18  C   UNL     1       1.379   9.480  18.275  0.00  0.00    +0.000 A 
ATOM     19  C   UNL     1       2.180   8.453  17.788  0.00  0.00    +0.000 A 
BRANCH  17  20
ATOM     20  C   UNL     1       0.116  10.505  20.109  0.00  0.00    +0.000 C 
ATOM     21  N   UNL     1      -0.554  11.357  20.523  0.00  0.00    +0.000 NA
ENDBRANCH  17  20
ENDBRANCH   2  14
TORSDOF 4
ENDMDL
MODEL 2
REMARK VINA RESULT:      -7.0      0.186      1.096
REMARK  Name = 
REMARK  6 active torsions:
REMARK  status: ('A' for Active; 'I' for Inactive)
REMARK    1  A    between atoms: C_1  and  N_2
REMARK    2  A    between atoms: N_2  and  C_3
REMARK    3  A    between atoms: N_2  and  C_4
REMARK    4  A    between atoms: C_9  and  N_10
REMARK    5  A    between atoms: C_11  and  C_13
REMARK    6  A    between atoms: C_16  and  C_17
REMARK                            x       y       z     vdW  Elec       q    Type
REMARK                         _______ _______ _______ _____ _____    ______ ____
ROOT
ATOM      1  N   UNL     1       4.387   6.826  17.076  0.00  0.00    +0.000 N 
ATOM      2  C   UNL     1       3.445   6.399  17.987  0.00  0.00    +0.000 C 
ATOM      3  O   UNL     1       3.255   5.239  18.335  0.00  0.00    +0.000 OA
ATOM      4  H   UNL     1       4.426   7.794  16.776  0.00  0.00    +0.000 HD
ENDROOT
BRANCH   1  10
ATOM      5  C   UNL     1       6.620   5.879  16.901  0.00  0.00    +0.000 A 
ATOM      6  N   UNL     1       7.541   5.086  16.303  0.00  0.00    +0.000 NA
ATOM      7  C   UNL     1       7.179   4.426  15.179  0.00  0.00    +0.000 A 
ATOM      8  C   UNL     1       5.922   4.496  14.611  0.00  0.00    +0.000 A 
ATOM      9  C   UNL     1       4.973   5.299  15.226  0.00  0.00    +0.000 A 
ATOM     10  C   UNL     1       5.309   6.008  16.380  0.00  0.00    +0.000 A 
BRANCH   5  12
ATOM     11  C   UNL     1       7.702   5.831  19.037  0.00  0.00    +0.000 C 
ATOM     12  N   UNL     1       6.994   6.657  18.048  0.00  0.00    +0.000 N 
ATOM     13  C   UNL     1       7.779   7.818  17.606  0.00  0.00    +0.000 C 
ENDBRANCH   5  12
ENDBRANCH   1  10
BRANCH   2  14
ATOM     14  C   UNL     1       2.574   7.453  18.581  0.00  0.00    +0.000 A 
ATOM     15  C   UNL     1       2.096   8.550  17.855  0.00  0.00    +0.000 A 
ATOM     16  C   UNL     1       1.267   9.492  18.478  0.00  0.00    +0.000 A 
ATOM     17  C   UNL     1       0.908   9.339  19.822  0.00  0.00    +0.000 A 
ATOM     18  C   UNL     1       1.373   8.234  20.544  0.00  0.00    +0.000 A 
ATOM     19  C   UNL     1       2.197   7.300  19.925  0.00  0.00    +0.000 A 
BRANCH  17  20
ATOM     20  C   UNL     1       0.066  10.305  20.455  0.00  0.00    +0.000 C 
ATOM     21  N   UNL     1      -0.623  11.089  20.965  0.00  0.00    +0.000 NA
ENDBRANCH  17  20
ENDBRANCH   2  14
TORSDOF 4
ENDMDL
MODEL 3
REMARK VINA RESULT:      -6.6      2.214      3.271
REMARK  Name = 
REMARK  6 active torsions:
REMARK  status: ('A' for Active; 'I' for Inactive)
REMARK    1  A    between atoms: C_1  and  N_2
REMARK    2  A    between atoms: N_2  and  C_3
REMARK    3  A    between atoms: N_2  and  C_4
REMARK    4  A    between atoms: C_9  and  N_10
REMARK    5  A    between atoms: C_11  and  C_13
REMARK    6  A    between atoms: C_16  and  C_17
REMARK                            x       y       z     vdW  Elec       q    Type
REMARK                         _______ _______ _______ _____ _____    ______ ____
ROOT
ATOM      1  N   UNL     1       2.973   6.866  18.612  0.00  0.00    +0.000 N 
ATOM      2  C   UNL     1       2.328   8.051  18.328  0.00  0.00    +0.000 C 
ATOM      3  O   UNL     1       2.336   8.632  17.249  0.00  0.00    +0.000 OA
ATOM      4  H   UNL     1       2.990   6.491  19.554  0.00  0.00    +0.000 HD
ENDROOT
BRANCH   1  10
ATOM      5  C   UNL     1       3.613   4.693  17.728  0.00  0.00    +0.000 A 
ATOM      6  N   UNL     1       4.307   3.906  16.872  0.00  0.00    +0.000 NA
ATOM      7  C   UNL     1       5.156   4.502  16.005  0.00  0.00    +0.000 A 
ATOM      8  C   UNL     1       5.348   5.868  15.924  0.00  0.00    +0.000 A 
ATOM      9  C   UNL     1       4.631   6.679  16.793  0.00  0.00    +0.000 A 
ATOM     10  C   UNL     1       3.756   6.102  17.714  0.00  0.00    +0.000 A 
BRANCH   5  12
ATOM     11  C   UNL     1       1.564   3.511  18.098  0.00  0.00    +0.000 C 
ATOM     12  N   UNL     1       2.766   4.089  18.717  0.00  0.00    +0.000 N 
ATOM     13  C   UNL     1       3.545   3.103  19.480  0.00  0.00    +0.000 C 
ENDBRANCH   5  12
ENDBRANCH   1  10
BRANCH   2  14
ATOM     14  C   UNL     1       1.572   8.679  19.448  0.00  0.00    +0.000 A 
ATOM     15  C   UNL     1       1.518   8.132  20.736  0.00  0.00    +0.000 A 
ATOM     16  C   UNL     1       0.800   8.789  21.744  0.00  0.00    +0.000 A 
ATOM     17  C   UNL     1       0.141   9.993  21.472  0.00  0.00    +0.000 A 
ATOM     18  C   UNL     1       0.209  10.548  20.190  0.00  0.00    +0.000 A 
ATOM     19  C   UNL     1       0.921   9.895  19.189  0.00  0.00    +0.000 A 
BRANCH  17  20
ATOM     20  C   UNL     1      -0.594  10.659  22.502  0.00  0.00    +0.000 C 
ATOM     21  N   UNL     1      -1.196  11.200  23.335  0.00  0.00    +0.000 NA
ENDBRANCH  17  20
ENDBRANCH   2  14
TORSDOF 4
ENDMDL
MODEL 4
REMARK VINA RESULT:      -6.5      2.131      3.266
REMARK  Name = 
REMARK  6 active torsions:
REMARK  status: ('A' for Active; 'I' for Inactive)
REMARK    1  A    between atoms: C_1  and  N_2
REMARK    2  A    between atoms: N_2  and  C_3
REMARK    3  A    between atoms: N_2  and  C_4
REMARK    4  A    between atoms: C_9  and  N_10
REMARK    5  A    between atoms: C_11  and  C_13
REMARK    6  A    between atoms: C_16  and  C_17
REMARK                            x       y       z     vdW  Elec       q    Type
REMARK                         _______ _______ _______ _____ _____    ______ ____
ROOT
ATOM      1  N   UNL     1       3.184   6.710  18.417  0.00  0.00    +0.000 N 
ATOM      2  C   UNL     1       2.534   7.883  18.101  0.00  0.00    +0.000 C 
ATOM      3  O   UNL     1       2.539   8.437  17.008  0.00  0.00    +0.000 OA
ATOM      4  H   UNL     1       3.202   6.360  19.368  0.00  0.00    +0.000 HD
ENDROOT
BRANCH   1  10
ATOM      5  C   UNL     1       3.842   4.516  17.598  0.00  0.00    +0.000 A 
ATOM      6  N   UNL     1       4.540   3.710  16.764  0.00  0.00    +0.000 NA
ATOM      7  C   UNL     1       5.379   4.287  15.873  0.00  0.00    +0.000 A 
ATOM      8  C   UNL     1       5.556   5.651  15.750  0.00  0.00    +0.000 A 
ATOM      9  C   UNL     1       4.835   6.482  16.596  0.00  0.00    +0.000 A 
ATOM     10  C   UNL     1       3.970   5.926  17.539  0.00  0.00    +0.000 A 
BRANCH   5  12
ATOM     11  C   UNL     1       1.836   3.276  18.011  0.00  0.00    +0.000 C 
ATOM     12  N   UNL     1       3.006   3.935  18.610  0.00  0.00    +0.000 N 
ATOM     13  C   UNL     1       3.813   3.025  19.436  0.00  0.00    +0.000 C 
ENDBRANCH   5  12
ENDBRANCH   1  10
BRANCH   2  14
ATOM     14  C   UNL     1       1.775   8.537  19.205  0.00  0.00    +0.000 A 
ATOM     15  C   UNL     1       1.088   9.747  19.051  0.00  0.00    +0.000 A 
ATOM     16  C   UNL     1       0.383  10.293  20.131  0.00  0.00    +0.000 A 
ATOM     17  C   UNL     1       0.355   9.631  21.363  0.00  0.00    +0.000 A 
ATOM     18  C   UNL     1       1.027   8.413  21.514  0.00  0.00    +0.000 A 
ATOM     19  C   UNL     1       1.729   7.872  20.441  0.00  0.00    +0.000 A 
BRANCH  17  20
ATOM     20  C   UNL     1      -0.363  10.193  22.465  0.00  0.00    +0.000 C 
ATOM     21  N   UNL     1      -0.941  10.652  23.362  0.00  0.00    +0.000 NA
ENDBRANCH  17  20
ENDBRANCH   2  14
TORSDOF 4
ENDMDL
MODEL 5
REMARK VINA RESULT:      -6.5      2.925      4.397
REMARK  Name = 
REMARK  6 active torsions:
REMARK  status: ('A' for Active; 'I' for Inactive)
REMARK    1  A    between atoms: C_1  and  N_2
REMARK    2  A    between atoms: N_2  and  C_3
REMARK    3  A    between atoms: N_2  and  C_4
REMARK    4  A    between atoms: C_9  and  N_10
REMARK    5  A    between atoms: C_11  and  C_13
REMARK    6  A    between atoms: C_16  and  C_17
REMARK                            x       y       z     vdW  Elec       q    Type
REMARK                         _______ _______ _______ _____ _____    ______ ____
ROOT
ATOM      1  N   UNL     1       2.723   6.488  20.233  0.00  0.00    +0.000 N 
ATOM      2  C   UNL     1       2.159   7.492  19.475  0.00  0.00    +0.000 C 
ATOM      3  O   UNL     1       2.252   7.612  18.259  0.00  0.00    +0.000 OA
ATOM      4  H   UNL     1       2.673   6.504  21.246  0.00  0.00    +0.000 HD
ENDROOT
BRANCH   1  10
ATOM      5  C   UNL     1       2.957   4.106  19.802  0.00  0.00    +0.000 A 
ATOM      6  N   UNL     1       3.638   3.037  19.325  0.00  0.00    +0.000 NA
ATOM      7  C   UNL     1       4.868   3.246  18.805  0.00  0.00    +0.000 A 
ATOM      8  C   UNL     1       5.470   4.486  18.714  0.00  0.00    +0.000 A 
ATOM      9  C   UNL     1       4.771   5.586  19.192  0.00  0.00    +0.000 A 
ATOM     10  C   UNL     1       3.504   5.411  19.749  0.00  0.00    +0.000 A 
BRANCH   5  12
ATOM     11  C   UNL     1       0.763   3.177  19.551  0.00  0.00    +0.000 C 
ATOM     12  N   UNL     1       1.683   3.909  20.435  0.00  0.00    +0.000 N 
ATOM     13  C   UNL     1       1.887   3.240  21.727  0.00  0.00    +0.000 C 
ENDBRANCH   5  12
ENDBRANCH   1  10
BRANCH   2  14
ATOM     14  C   UNL     1       1.386   8.527  20.218  0.00  0.00    +0.000 A 
ATOM     15  C   UNL     1       0.817   9.647  19.601  0.00  0.00    +0.000 A 
ATOM     16  C   UNL     1       0.090  10.570  20.363  0.00  0.00    +0.000 A 
ATOM     17  C   UNL     1      -0.078  10.376  21.739  0.00  0.00    +0.000 A 
ATOM     18  C   UNL     1       0.476   9.247  22.353  0.00  0.00    +0.000 A 
ATOM     19  C   UNL     1       1.200   8.332  21.596  0.00  0.00    +0.000 A 
BRANCH  17  20
ATOM     20  C   UNL     1      -0.818  11.322  22.514  0.00  0.00    +0.000 C 
ATOM     21  N   UNL     1      -1.421  12.093  23.138  0.00  0.00    +0.000 NA
ENDBRANCH  17  20
ENDBRANCH   2  14
TORSDOF 4
ENDMDL
MODEL 6
REMARK VINA RESULT:      -6.4      2.958      4.331
REMARK  Name = 
REMARK  6 active torsions:
REMARK  status: ('A' for Active; 'I' for Inactive)
REMARK    1  A    between atoms: C_1  and  N_2
REMARK    2  A    between atoms: N_2  and  C_3
REMARK    3  A    between atoms: N_2  and  C_4
REMARK    4  A    between atoms: C_9  and  N_10
REMARK    5  A    between atoms: C_11  and  C_13
REMARK    6  A    between atoms: C_16  and  C_17
REMARK                            x       y       z     vdW  Elec       q    Type
REMARK                         _______ _______ _______ _____ _____    ______ ____
ROOT
ATOM      1  N   UNL     1       2.627   6.449  20.333  0.00  0.00    +0.000 N 
ATOM      2  C   UNL     1       2.103   7.525  19.648  0.00  0.00    +0.000 C 
ATOM      3  O   UNL     1       2.245   7.754  18.453  0.00  0.00    +0.000 OA
ATOM      4  H   UNL     1       2.536   6.375  21.340  0.00  0.00    +0.000 HD
ENDROOT
BRANCH   1  10
ATOM      5  C   UNL     1       2.889   4.097  19.774  0.00  0.00    +0.000 A 
ATOM      6  N   UNL     1       3.579   3.064  19.234  0.00  0.00    +0.000 NA
ATOM      7  C   UNL     1       4.800   3.318  18.711  0.00  0.00    +0.000 A 
ATOM      8  C   UNL     1       5.382   4.570  18.678  0.00  0.00    +0.000 A 
ATOM      9  C   UNL     1       4.674   5.633  19.221  0.00  0.00    +0.000 A 
ATOM     10  C   UNL     1       3.417   5.411  19.784  0.00  0.00    +0.000 A 
BRANCH   5  12
ATOM     11  C   UNL     1       0.725   3.103  19.520  0.00  0.00    +0.000 C 
ATOM     12  N   UNL     1       1.626   3.849  20.411  0.00  0.00    +0.000 N 
ATOM     13  C   UNL     1       1.859   3.164  21.691  0.00  0.00    +0.000 C 
ENDBRANCH   5  12
ENDBRANCH   1  10
BRANCH   2  14
ATOM     14  C   UNL     1       1.310   8.498  20.452  0.00  0.00    +0.000 A 
ATOM     15  C   UNL     1       1.149   8.396  21.838  0.00  0.00    +0.000 A 
ATOM     16  C   UNL     1       0.403   9.359  22.528  0.00  0.00    +0.000 A 
ATOM     17  C   UNL     1      -0.179  10.430  21.839  0.00  0.00    +0.000 A 
ATOM     18  C   UNL     1      -0.005  10.542  20.455  0.00  0.00    +0.000 A 
ATOM     19  C   UNL     1       0.736   9.583  19.771  0.00  0.00    +0.000 A 
BRANCH  17  20
ATOM     20  C   UNL     1      -0.943  11.409  22.546  0.00  0.00    +0.000 C 
ATOM     21  N   UNL     1      -1.565  12.208  23.115  0.00  0.00    +0.000 NA
ENDBRANCH  17  20
ENDBRANCH   2  14
TORSDOF 4
ENDMDL
MODEL 7
REMARK VINA RESULT:      -6.4      1.212      1.332
REMARK  Name = 
REMARK  6 active torsions:
REMARK  status: ('A' for Active; 'I' for Inactive)
REMARK    1  A    between atoms: C_1  and  N_2
REMARK    2  A    between atoms: N_2  and  C_3
REMARK    3  A    between atoms: N_2  and  C_4
REMARK    4  A    between atoms: C_9  and  N_10
REMARK    5  A    between atoms: C_11  and  C_13
REMARK    6  A    between atoms: C_16  and  C_17
REMARK                            x       y       z     vdW  Elec       q    Type
REMARK                         _______ _______ _______ _____ _____    ______ ____
ROOT
ATOM      1  N   UNL     1       4.251   6.002  17.815  0.00  0.00    +0.000 N 
ATOM      2  C   UNL     1       3.489   7.133  17.611  0.00  0.00    +0.000 C 
ATOM      3  O   UNL     1       3.493   7.831  16.604  0.00  0.00    +0.000 OA
ATOM      4  H   UNL     1       4.254   5.526  18.710  0.00  0.00    +0.000 HD
ENDROOT
BRANCH   1  10
ATOM      5  C   UNL     1       6.552   5.670  17.103  0.00  0.00    +0.000 A 
ATOM      6  N   UNL     1       7.486   5.130  16.284  0.00  0.00    +0.000 NA
ATOM      7  C   UNL     1       7.063   4.368  15.251  0.00  0.00    +0.000 A 
ATOM      8  C   UNL     1       5.736   4.089  14.987  0.00  0.00    +0.000 A 
ATOM      9  C   UNL     1       4.776   4.631  15.829  0.00  0.00    +0.000 A 
ATOM     10  C   UNL     1       5.170   5.436  16.900  0.00  0.00    +0.000 A 
BRANCH   5  12
ATOM     11  C   UNL     1       7.790   5.841  19.146  0.00  0.00    +0.000 C 
ATOM     12  N   UNL     1       6.961   6.551  18.161  0.00  0.00    +0.000 N 
ATOM     13  C   UNL     1       7.639   7.718  17.579  0.00  0.00    +0.000 C 
ENDBRANCH   5  12
ENDBRANCH   1  10
BRANCH   2  14
ATOM     14  C   UNL     1       2.598   7.541  18.734  0.00  0.00    +0.000 A 
ATOM     15  C   UNL     1       2.406   6.763  19.882  0.00  0.00    +0.000 A 
ATOM     16  C   UNL     1       1.565   7.220  20.904  0.00  0.00    +0.000 A 
ATOM     17  C   UNL     1       0.920   8.457  20.788  0.00  0.00    +0.000 A 
ATOM     18  C   UNL     1       1.124   9.243  19.649  0.00  0.00    +0.000 A 
ATOM     19  C   UNL     1       1.959   8.787  18.633  0.00  0.00    +0.000 A 
BRANCH  17  20
ATOM     20  C   UNL     1       0.059   8.919  21.832  0.00  0.00    +0.000 C 
ATOM     21  N   UNL     1      -0.635   9.296  22.683  0.00  0.00    +0.000 NA
ENDBRANCH  17  20
ENDBRANCH   2  14
TORSDOF 4
ENDMDL
MODEL 8
REMARK VINA RESULT:      -6.3      1.218      1.660
REMARK  Name = 
REMARK  6 active torsions:
REMARK  status: ('A' for Active; 'I' for Inactive)
REMARK    1  A    between atoms: C_1  and  N_2
REMARK    2  A    between atoms: N_2  and  C_3
REMARK    3  A    between atoms: N_2  and  C_4
REMARK    4  A    between atoms: C_9  and  N_10
REMARK    5  A    between atoms: C_11  and  C_13
REMARK    6  A    between atoms: C_16  and  C_17
REMARK                            x       y       z     vdW  Elec       q    Type
REMARK                         _______ _______ _______ _____ _____    ______ ____
ROOT
ATOM      1  N   UNL     1       4.267   6.133  17.812  0.00  0.00    +0.000 N 
ATOM      2  C   UNL     1       3.473   7.221  17.519  0.00  0.00    +0.000 C 
ATOM      3  O   UNL     1       3.439   7.820  16.450  0.00  0.00    +0.000 OA
ATOM      4  H   UNL     1       4.300   5.745  18.748  0.00  0.00    +0.000 HD
ENDROOT
BRANCH   1  10
ATOM      5  C   UNL     1       6.568   5.674  17.172  0.00  0.00    +0.000 A 
ATOM      6  N   UNL     1       7.496   5.073  16.391  0.00  0.00    +0.000 NA
ATOM      7  C   UNL     1       7.064   4.310  15.361  0.00  0.00    +0.000 A 
ATOM      8  C   UNL     1       5.732   4.090  15.066  0.00  0.00    +0.000 A 
ATOM      9  C   UNL     1       4.778   4.696  15.870  0.00  0.00    +0.000 A 
ATOM     10  C   UNL     1       5.182   5.504  16.935  0.00  0.00    +0.000 A 
BRANCH   5  12
ATOM     11  C   UNL     1       7.801   5.840  19.218  0.00  0.00    +0.000 C 
ATOM     12  N   UNL     1       6.991   6.557  18.223  0.00  0.00    +0.000 N 
ATOM     13  C   UNL     1       7.695   7.704  17.632  0.00  0.00    +0.000 C 
ENDBRANCH   5  12
ENDBRANCH   1  10
BRANCH   2  14
ATOM     14  C   UNL     1       2.594   7.714  18.618  0.00  0.00    +0.000 A 
ATOM     15  C   UNL     1       1.904   8.931  18.559  0.00  0.00    +0.000 A 
ATOM     16  C   UNL     1       1.084   9.321  19.624  0.00  0.00    +0.000 A 
ATOM     17  C   UNL     1       0.944   8.497  20.747  0.00  0.00    +0.000 A 
ATOM     18  C   UNL     1       1.620   7.273  20.800  0.00  0.00    +0.000 A 
ATOM     19  C   UNL     1       2.436   6.887  19.741  0.00  0.00    +0.000 A 
BRANCH  17  20
ATOM     20  C   UNL     1       0.108   8.900  21.835  0.00  0.00    +0.000 C 
ATOM     21  N   UNL     1      -0.570   9.233  22.717  0.00  0.00    +0.000 NA
ENDBRANCH  17  20
ENDBRANCH   2  14
TORSDOF 4
ENDMDL
MODEL 9
REMARK VINA RESULT:      -6.3      3.568      4.236
REMARK  Name = 
REMARK  6 active torsions:
REMARK  status: ('A' for Active; 'I' for Inactive)
REMARK    1  A    between atoms: C_1  and  N_2
REMARK    2  A    between atoms: N_2  and  C_3
REMARK    3  A    between atoms: N_2  and  C_4
REMARK    4  A    between atoms: C_9  and  N_10
REMARK    5  A    between atoms: C_11  and  C_13
REMARK    6  A    between atoms: C_16  and  C_17
REMARK                            x       y       z     vdW  Elec       q    Type
REMARK                         _______ _______ _______ _____ _____    ______ ____
ROOT
ATOM      1  N   UNL     1       4.876   4.027  16.849  0.00  0.00    +0.000 N 
ATOM      2  C   UNL     1       3.946   4.855  17.442  0.00  0.00    +0.000 C 
ATOM      3  O   UNL     1       3.694   6.007  17.109  0.00  0.00    +0.000 OA
ATOM      4  H   UNL     1       5.088   3.115  17.237  0.00  0.00    +0.000 HD
ENDROOT
BRANCH   1  10
ATOM      5  C   UNL     1       6.825   5.185  15.970  0.00  0.00    +0.000 A 
ATOM      6  N   UNL     1       7.675   5.506  14.965  0.00  0.00    +0.000 NA
ATOM      7  C   UNL     1       7.416   5.016  13.731  0.00  0.00    +0.000 A 
ATOM      8  C   UNL     1       6.347   4.194  13.433  0.00  0.00    +0.000 A 
ATOM      9  C   UNL     1       5.479   3.855  14.462  0.00  0.00    +0.000 A 
ATOM     10  C   UNL     1       5.702   4.351  15.747  0.00  0.00    +0.000 A 
BRANCH   5  12
ATOM     11  C   UNL     1       7.877   4.889  18.100  0.00  0.00    +0.000 C 
ATOM     12  N   UNL     1       7.023   5.754  17.273  0.00  0.00    +0.000 N 
ATOM     13  C   UNL     1       7.558   7.115  17.128  0.00  0.00    +0.000 C 
ENDBRANCH   5  12
ENDBRANCH   1  10
BRANCH   2  14
ATOM     14  C   UNL     1       3.202   4.290  18.604  0.00  0.00    +0.000 A 
ATOM     15  C   UNL     1       1.906   4.690  18.951  0.00  0.00    +0.000 A 
ATOM     16  C   UNL     1       1.264   4.102  20.047  0.00  0.00    +0.000 A 
ATOM     17  C   UNL     1       1.909   3.110  20.796  0.00  0.00    +0.000 A 
ATOM     18  C   UNL     1       3.198   2.699  20.440  0.00  0.00    +0.000 A 
ATOM     19  C   UNL     1       3.836   3.285  19.351  0.00  0.00    +0.000 A 
BRANCH  17  20
ATOM     20  C   UNL     1       1.252   2.514  21.918  0.00  0.00    +0.000 C 
ATOM     21  N   UNL     1       0.724   2.029  22.831  0.00  0.00    +0.000 NA
ENDBRANCH  17  20
ENDBRANCH   2  14
TORSDOF 4
ENDMDL
