MODEL 1
REMARK VINA RESULT:      -7.0      0.000      0.000
REMARK  Name = 
REMARK  8 active torsions:
REMARK  status: ('A' for Active; 'I' for Inactive)
REMARK    1  A    between atoms: C_1  and  C_2
REMARK    2  A    between atoms: C_2  and  O_3
REMARK    3  A    between atoms: C_2  and  C_12
REMARK    4  A    between atoms: O_3  and  C_4
REMARK    5  A    between atoms: C_12  and  C_14
REMARK    6  A    between atoms: C_15  and  N_16
REMARK    7  A    between atoms: N_16  and  C_17
REMARK    8  A    between atoms: N_16  and  C_18
REMARK                            x       y       z     vdW  Elec       q    Type
REMARK                         _______ _______ _______ _____ _____    ______ ____
ROOT
ATOM      1  C   UNL     1       5.044   6.414  15.981  0.00  0.00    +0.000 C 
ATOM      2  C   UNL     1       6.112   5.328  16.147  0.00  0.00    +0.000 C 
ENDROOT
BRANCH   2   3
ATOM      3  C   UNL     1       6.630   4.948  14.746  0.00  0.00    +0.000 C 
ATOM      4  O   UNL     1       7.759   5.240  14.348  0.00  0.00    +0.000 OA
BRANCH   3   5
ATOM      5  C   UNL     1       5.720   4.133  13.894  0.00  0.00    +0.000 C 
ATOM      6  C   UNL     1       6.174   3.575  12.763  0.00  0.00    +0.000 C 
BRANCH   6   7
ATOM      7  N   UNL     1       5.507   2.777  11.844  0.00  0.00    +0.000 N 
ATOM      8  C   UNL     1       5.992   1.486  11.363  0.00  0.00    +0.000 C 
ATOM      9  C   UNL     1       4.193   3.156  11.324  0.00  0.00    +0.000 C 
ENDBRANCH   6   7
ENDBRANCH   3   5
ENDBRANCH   2   3
BRANCH   2  10
ATOM     10  O   UNL     1       5.596   4.130  16.747  0.00  0.00    +0.000 OA
BRANCH  10  11
ATOM     11  C   UNL     1       4.456   4.174  17.506  0.00  0.00    +0.000 A 
ATOM     12  C   UNL     1       3.219   3.689  17.077  0.00  0.00    +0.000 A 
ATOM     13  C   UNL     1       2.116   3.667  17.936  0.00  0.00    +0.000 A 
ATOM     14  C   UNL     1       2.240   4.134  19.241  0.00  0.00    +0.000 A 
ATOM     15 CL   UNL     1       0.889   4.053  20.302  0.00  0.00    +0.000 Cl
ATOM     16  C   UNL     1       3.454   4.641  19.688  0.00  0.00    +0.000 A 
ATOM     17  C   UNL     1       4.556   4.661  18.824  0.00  0.00    +0.000 A 
ATOM     18 CL   UNL     1       6.038   5.314  19.430  0.00  0.00    +0.000 Cl
ENDBRANCH  10  11
ENDBRANCH   2  10
TORSDOF 5
ENDMDL
MODEL 2
REMARK VINA RESULT:      -6.8      1.745      2.000
REMARK  Name = 
REMARK  8 active torsions:
REMARK  status: ('A' for Active; 'I' for Inactive)
REMARK    1  A    between atoms: C_1  and  C_2
REMARK    2  A    between atoms: C_2  and  O_3
REMARK    3  A    between atoms: C_2  and  C_12
REMARK    4  A    between atoms: O_3  and  C_4
REMARK    5  A    between atoms: C_12  and  C_14
REMARK    6  A    between atoms: C_15  and  N_16
REMARK    7  A    between atoms: N_16  and  C_17
REMARK    8  A    between atoms: N_16  and  C_18
REMARK                            x       y       z     vdW  Elec       q    Type
REMARK                         _______ _______ _______ _____ _____    ______ ____
ROOT
ATOM      1  C   UNL     1       6.696   7.202  17.310  0.00  0.00    +0.000 C 
ATOM      2  C   UNL     1       6.122   5.784  17.230  0.00  0.00    +0.000 C 
ENDROOT
BRANCH   2   3
ATOM      3  C   UNL     1       7.058   4.938  16.344  0.00  0.00    +0.000 C 
ATOM      4  O   UNL     1       7.944   4.216  16.806  0.00  0.00    +0.000 OA
BRANCH   3   5
ATOM      5  C   UNL     1       6.802   4.971  14.878  0.00  0.00    +0.000 C 
ATOM      6  C   UNL     1       6.422   3.857  14.234  0.00  0.00    +0.000 C 
BRANCH   6   7
ATOM      7  N   UNL     1       6.123   3.675  12.892  0.00  0.00    +0.000 N 
ATOM      8  C   UNL     1       4.776   3.465  12.365  0.00  0.00    +0.000 C 
ATOM      9  C   UNL     1       7.163   3.748  11.866  0.00  0.00    +0.000 C 
ENDBRANCH   6   7
ENDBRANCH   3   5
ENDBRANCH   2   3
BRANCH   2  10
ATOM     10  O   UNL     1       4.820   5.745  16.627  0.00  0.00    +0.000 OA
BRANCH  10  11
ATOM     11  C   UNL     1       3.820   4.996  17.189  0.00  0.00    +0.000 A 
ATOM     12  C   UNL     1       3.708   3.612  17.038  0.00  0.00    +0.000 A 
ATOM     13  C   UNL     1       2.726   2.890  17.721  0.00  0.00    +0.000 A 
ATOM     14  C   UNL     1       1.838   3.548  18.567  0.00  0.00    +0.000 A 
ATOM     15 CL   UNL     1       0.668   2.639  19.439  0.00  0.00    +0.000 Cl
ATOM     16  C   UNL     1       1.913   4.927  18.720  0.00  0.00    +0.000 A 
ATOM     17  C   UNL     1       2.899   5.647  18.033  0.00  0.00    +0.000 A 
ATOM     18 CL   UNL     1       2.938   7.361  18.252  0.00  0.00    +0.000 Cl
ENDBRANCH  10  11
ENDBRANCH   2  10
TORSDOF 5
ENDMDL
MODEL 3
REMARK VINA RESULT:      -6.8      1.294      1.598
REMARK  Name = 
REMARK  8 active torsions:
REMARK  status: ('A' for Active; 'I' for Inactive)
REMARK    1  A    between atoms: C_1  and  C_2
REMARK    2  A    between atoms: C_2  and  O_3
REMARK    3  A    between atoms: C_2  and  C_12
REMARK    4  A    between atoms: O_3  and  C_4
REMARK    5  A    between atoms: C_12  and  C_14
REMARK    6  A    between atoms: C_15  and  N_16
REMARK    7  A    between atoms: N_16  and  C_17
REMARK    8  A    between atoms: N_16  and  C_18
REMARK                            x       y       z     vdW  Elec       q    Type
REMARK                         _______ _______ _______ _____ _____    ______ ____
ROOT
ATOM      1  C   UNL     1       7.034   4.732  17.382  0.00  0.00    +0.000 C 
ATOM      2  C   UNL     1       6.057   4.375  16.257  0.00  0.00    +0.000 C 
ENDROOT
BRANCH   2   3
ATOM      3  C   UNL     1       6.690   4.803  14.919  0.00  0.00    +0.000 C 
ATOM      4  O   UNL     1       7.785   5.365  14.847  0.00  0.00    +0.000 OA
BRANCH   3   5
ATOM      5  C   UNL     1       5.947   4.441  13.681  0.00  0.00    +0.000 C 
ATOM      6  C   UNL     1       6.159   3.258  13.087  0.00  0.00    +0.000 C 
BRANCH   6   7
ATOM      7  N   UNL     1       5.570   2.724  11.950  0.00  0.00    +0.000 N 
ATOM      8  C   UNL     1       4.312   3.193  11.373  0.00  0.00    +0.000 C 
ATOM      9  C   UNL     1       6.222   1.662  11.185  0.00  0.00    +0.000 C 
ENDBRANCH   6   7
ENDBRANCH   3   5
ENDBRANCH   2   3
BRANCH   2  10
ATOM     10  O   UNL     1       4.804   5.066  16.372  0.00  0.00    +0.000 OA
BRANCH  10  11
ATOM     11  C   UNL     1       3.841   4.612  17.236  0.00  0.00    +0.000 A 
ATOM     12  C   UNL     1       3.555   3.260  17.438  0.00  0.00    +0.000 A 
ATOM     13  C   UNL     1       2.634   2.856  18.408  0.00  0.00    +0.000 A 
ATOM     14  C   UNL     1       1.985   3.805  19.192  0.00  0.00    +0.000 A 
ATOM     15 CL   UNL     1       0.893   3.290  20.416  0.00  0.00    +0.000 Cl
ATOM     16  C   UNL     1       2.235   5.158  18.999  0.00  0.00    +0.000 A 
ATOM     17  C   UNL     1       3.159   5.559  18.024  0.00  0.00    +0.000 A 
ATOM     18 CL   UNL     1       3.423   7.256  17.820  0.00  0.00    +0.000 Cl
ENDBRANCH  10  11
ENDBRANCH   2  10
TORSDOF 5
ENDMDL
MODEL 4
REMARK VINA RESULT:      -6.5      2.142      2.803
REMARK  Name = 
REMARK  8 active torsions:
REMARK  status: ('A' for Active; 'I' for Inactive)
REMARK    1  A    between atoms: C_1  and  C_2
REMARK    2  A    between atoms: C_2  and  O_3
REMARK    3  A    between atoms: C_2  and  C_12
REMARK    4  A    between atoms: O_3  and  C_4
REMARK    5  A    between atoms: C_12  and  C_14
REMARK    6  A    between atoms: C_15  and  N_16
REMARK    7  A    between atoms: N_16  and  C_17
REMARK    8  A    between atoms: N_16  and  C_18
REMARK                            x       y       z     vdW  Elec       q    Type
REMARK                         _______ _______ _______ _____ _____    ______ ____
ROOT
ATOM      1  C   UNL     1       7.917   5.717  19.195  0.00  0.00    +0.000 C 
ATOM      2  C   UNL     1       6.666   5.368  18.383  0.00  0.00    +0.000 C 
ENDROOT
BRANCH   2   3
ATOM      3  C   UNL     1       6.642   6.265  17.130  0.00  0.00    +0.000 C 
ATOM      4  O   UNL     1       7.042   7.430  17.134  0.00  0.00    +0.000 OA
BRANCH   3   5
ATOM      5  C   UNL     1       6.172   5.635  15.865  0.00  0.00    +0.000 C 
ATOM      6  C   UNL     1       7.058   5.222  14.947  0.00  0.00    +0.000 C 
BRANCH   6   7
ATOM      7  N   UNL     1       6.836   4.606  13.724  0.00  0.00    +0.000 N 
ATOM      8  C   UNL     1       5.753   3.661  13.457  0.00  0.00    +0.000 C 
ATOM      9  C   UNL     1       7.658   4.920  12.556  0.00  0.00    +0.000 C 
ENDBRANCH   6   7
ENDBRANCH   3   5
ENDBRANCH   2   3
BRANCH   2  10
ATOM     10  O   UNL     1       5.450   5.616  19.104  0.00  0.00    +0.000 OA
BRANCH  10  11
ATOM     11  C   UNL     1       4.375   4.778  18.956  0.00  0.00    +0.000 A 
ATOM     12  C   UNL     1       4.386   3.431  19.328  0.00  0.00    +0.000 A 
ATOM     13  C   UNL     1       3.227   2.653  19.248  0.00  0.00    +0.000 A 
ATOM     14  C   UNL     1       2.039   3.217  18.793  0.00  0.00    +0.000 A 
ATOM     15 CL   UNL     1       0.610   2.261  18.749  0.00  0.00    +0.000 Cl
ATOM     16  C   UNL     1       2.005   4.549  18.397  0.00  0.00    +0.000 A 
ATOM     17  C   UNL     1       3.169   5.324  18.478  0.00  0.00    +0.000 A 
ATOM     18 CL   UNL     1       3.072   6.971  17.962  0.00  0.00    +0.000 Cl
ENDBRANCH  10  11
ENDBRANCH   2  10
TORSDOF 5
ENDMDL
MODEL 5
REMARK VINA RESULT:      -6.5      2.187      2.638
REMARK  Name = 
REMARK  8 active torsions:
REMARK  status: ('A' for Active; 'I' for Inactive)
REMARK    1  A    between atoms: C_1  and  C_2
REMARK    2  A    between atoms: C_2  and  O_3
REMARK    3  A    between atoms: C_2  and  C_12
REMARK    4  A    between atoms: O_3  and  C_4
REMARK    5  A    between atoms: C_12  and  C_14
REMARK    6  A    between atoms: C_15  and  N_16
REMARK    7  A    between atoms: N_16  and  C_17
REMARK    8  A    between atoms: N_16  and  C_18
REMARK                            x       y       z     vdW  Elec       q    Type
REMARK                         _______ _______ _______ _____ _____    ______ ____
ROOT
ATOM      1  C   UNL     1       7.292   7.075  17.969  0.00  0.00    +0.000 C 
ATOM      2  C   UNL     1       6.659   5.708  18.248  0.00  0.00    +0.000 C 
ENDROOT
BRANCH   2   3
ATOM      3  C   UNL     1       7.426   4.649  17.432  0.00  0.00    +0.000 C 
ATOM      4  O   UNL     1       8.459   4.113  17.837  0.00  0.00    +0.000 OA
BRANCH   3   5
ATOM      5  C   UNL     1       6.821   4.235  16.136  0.00  0.00    +0.000 C 
ATOM      6  C   UNL     1       7.238   4.791  14.989  0.00  0.00    +0.000 C 
BRANCH   6   7
ATOM      7  N   UNL     1       6.824   4.542  13.689  0.00  0.00    +0.000 N 
ATOM      8  C   UNL     1       5.590   3.844  13.332  0.00  0.00    +0.000 C 
ATOM      9  C   UNL     1       7.587   5.033  12.542  0.00  0.00    +0.000 C 
ENDBRANCH   6   7
ENDBRANCH   3   5
ENDBRANCH   2   3
BRANCH   2  10
ATOM     10  O   UNL     1       5.283   5.640  17.842  0.00  0.00    +0.000 OA
BRANCH  10  11
ATOM     11  C   UNL     1       4.370   4.960  18.605  0.00  0.00    +0.000 A 
ATOM     12  C   UNL     1       4.561   3.654  19.061  0.00  0.00    +0.000 A 
ATOM     13  C   UNL     1       3.639   3.050  19.922  0.00  0.00    +0.000 A 
ATOM     14  C   UNL     1       2.511   3.751  20.338  0.00  0.00    +0.000 A 
ATOM     15 CL   UNL     1       1.413   3.013  21.437  0.00  0.00    +0.000 Cl
ATOM     16  C   UNL     1       2.286   5.044  19.883  0.00  0.00    +0.000 A 
ATOM     17  C   UNL     1       3.212   5.645  19.020  0.00  0.00    +0.000 A 
ATOM     18 CL   UNL     1       2.875   7.251  18.476  0.00  0.00    +0.000 Cl
ENDBRANCH  10  11
ENDBRANCH   2  10
TORSDOF 5
ENDMDL
MODEL 6
REMARK VINA RESULT:      -6.4      1.600      1.992
REMARK  Name = 
REMARK  8 active torsions:
REMARK  status: ('A' for Active; 'I' for Inactive)
REMARK    1  A    between atoms: C_1  and  C_2
REMARK    2  A    between atoms: C_2  and  O_3
REMARK    3  A    between atoms: C_2  and  C_12
REMARK    4  A    between atoms: O_3  and  C_4
REMARK    5  A    between atoms: C_12  and  C_14
REMARK    6  A    between atoms: C_15  and  N_16
REMARK    7  A    between atoms: N_16  and  C_17
REMARK    8  A    between atoms: N_16  and  C_18
REMARK                            x       y       z     vdW  Elec       q    Type
REMARK                         _______ _______ _______ _____ _____    ______ ____
ROOT
ATOM      1  C   UNL     1       7.677   4.861  17.491  0.00  0.00    +0.000 C 
ATOM      2  C   UNL     1       6.308   4.488  16.912  0.00  0.00    +0.000 C 
ENDROOT
BRANCH   2   3
ATOM      3  C   UNL     1       6.210   5.084  15.494  0.00  0.00    +0.000 C 
ATOM      4  O   UNL     1       6.070   6.290  15.283  0.00  0.00    +0.000 OA
BRANCH   3   5
ATOM      5  C   UNL     1       6.364   4.136  14.357  0.00  0.00    +0.000 C 
ATOM      6  C   UNL     1       5.454   4.108  13.372  0.00  0.00    +0.000 C 
BRANCH   6   7
ATOM      7  N   UNL     1       5.416   3.322  12.230  0.00  0.00    +0.000 N 
ATOM      8  C   UNL     1       4.235   3.140  11.389  0.00  0.00    +0.000 C 
ATOM      9  C   UNL     1       6.615   2.648  11.732  0.00  0.00    +0.000 C 
ENDBRANCH   6   7
ENDBRANCH   3   5
ENDBRANCH   2   3
BRANCH   2  10
ATOM     10  O   UNL     1       5.217   5.028  17.674  0.00  0.00    +0.000 OA
BRANCH  10  11
ATOM     11  C   UNL     1       4.064   4.305  17.837  0.00  0.00    +0.000 A 
ATOM     12  C   UNL     1       4.021   2.909  17.857  0.00  0.00    +0.000 A 
ATOM     13  C   UNL     1       2.830   2.230  18.130  0.00  0.00    +0.000 A 
ATOM     14  C   UNL     1       1.664   2.943  18.388  0.00  0.00    +0.000 A 
ATOM     15 CL   UNL     1       0.218   2.095  18.772  0.00  0.00    +0.000 Cl
ATOM     16  C   UNL     1       1.674   4.333  18.354  0.00  0.00    +0.000 A 
ATOM     17  C   UNL     1       2.869   5.009  18.079  0.00  0.00    +0.000 A 
ATOM     18 CL   UNL     1       2.821   6.737  18.038  0.00  0.00    +0.000 Cl
ENDBRANCH  10  11
ENDBRANCH   2  10
TORSDOF 5
ENDMDL
MODEL 7
REMARK VINA RESULT:      -6.4      3.649      6.077
REMARK  Name = 
REMARK  8 active torsions:
REMARK  status: ('A' for Active; 'I' for Inactive)
REMARK    1  A    between atoms: C_1  and  C_2
REMARK    2  A    between atoms: C_2  and  O_3
REMARK    3  A    between atoms: C_2  and  C_12
REMARK    4  A    between atoms: O_3  and  C_4
REMARK    5  A    between atoms: C_12  and  C_14
REMARK    6  A    between atoms: C_15  and  N_16
REMARK    7  A    between atoms: N_16  and  C_17
REMARK    8  A    between atoms: N_16  and  C_18
REMARK                            x       y       z     vdW  Elec       q    Type
REMARK                         _______ _______ _______ _____ _____    ______ ____
ROOT
ATOM      1  C   UNL     1       7.303   7.482  17.436  0.00  0.00    +0.000 C 
ATOM      2  C   UNL     1       6.790   6.167  16.839  0.00  0.00    +0.000 C 
ENDROOT
BRANCH   2   3
ATOM      3  C   UNL     1       6.934   5.067  17.909  0.00  0.00    +0.000 C 
ATOM      4  O   UNL     1       8.009   4.525  18.171  0.00  0.00    +0.000 OA
BRANCH   3   5
ATOM      5  C   UNL     1       5.709   4.723  18.684  0.00  0.00    +0.000 C 
ATOM      6  C   UNL     1       4.498   5.053  18.214  0.00  0.00    +0.000 C 
BRANCH   6   7
ATOM      7  N   UNL     1       3.246   4.817  18.763  0.00  0.00    +0.000 N 
ATOM      8  C   UNL     1       2.989   4.630  20.189  0.00  0.00    +0.000 C 
ATOM      9  C   UNL     1       2.043   4.801  17.931  0.00  0.00    +0.000 C 
ENDBRANCH   6   7
ENDBRANCH   3   5
ENDBRANCH   2   3
BRANCH   2  10
ATOM     10  O   UNL     1       7.547   5.744  15.694  0.00  0.00    +0.000 OA
BRANCH  10  11
ATOM     11  C   UNL     1       6.970   4.948  14.740  0.00  0.00    +0.000 A 
ATOM     12  C   UNL     1       5.844   4.154  14.969  0.00  0.00    +0.000 A 
ATOM     13  C   UNL     1       5.240   3.444  13.928  0.00  0.00    +0.000 A 
ATOM     14  C   UNL     1       5.759   3.519  12.639  0.00  0.00    +0.000 A 
ATOM     15 CL   UNL     1       4.974   2.680  11.360  0.00  0.00    +0.000 Cl
ATOM     16  C   UNL     1       6.891   4.285  12.387  0.00  0.00    +0.000 A 
ATOM     17  C   UNL     1       7.493   4.995  13.433  0.00  0.00    +0.000 A 
ATOM     18 CL   UNL     1       8.905   5.922  13.064  0.00  0.00    +0.000 Cl
ENDBRANCH  10  11
ENDBRANCH   2  10
TORSDOF 5
ENDMDL
MODEL 8
REMARK VINA RESULT:      -6.3      3.589      6.487
REMARK  Name = 
REMARK  8 active torsions:
REMARK  status: ('A' for Active; 'I' for Inactive)
REMARK    1  A    between atoms: C_1  and  C_2
REMARK    2  A    between atoms: C_2  and  O_3
REMARK    3  A    between atoms: C_2  and  C_12
REMARK    4  A    between atoms: O_3  and  C_4
REMARK    5  A    between atoms: C_12  and  C_14
REMARK    6  A    between atoms: C_15  and  N_16
REMARK    7  A    between atoms: N_16  and  C_17
REMARK    8  A    between atoms: N_16  and  C_18
REMARK                            x       y       z     vdW  Elec       q    Type
REMARK                         _______ _______ _______ _____ _____    ______ ____
ROOT
ATOM      1  C   UNL     1       2.625   8.369  17.921  0.00  0.00    +0.000 C 
ATOM      2  C   UNL     1       2.725   6.907  18.368  0.00  0.00    +0.000 C 
ENDROOT
BRANCH   2   3
ATOM      3  C   UNL     1       2.238   6.818  19.827  0.00  0.00    +0.000 C 
ATOM      4  O   UNL     1       1.894   7.806  20.479  0.00  0.00    +0.000 OA
BRANCH   3   5
ATOM      5  C   UNL     1       2.130   5.454  20.415  0.00  0.00    +0.000 C 
ATOM      6  C   UNL     1       1.466   4.489  19.763  0.00  0.00    +0.000 C 
BRANCH   6   7
ATOM      7  N   UNL     1       1.261   3.164  20.121  0.00  0.00    +0.000 N 
ATOM      8  C   UNL     1       1.363   2.651  21.485  0.00  0.00    +0.000 C 
ATOM      9  C   UNL     1       0.851   2.166  19.134  0.00  0.00    +0.000 C 
ENDBRANCH   6   7
ENDBRANCH   3   5
ENDBRANCH   2   3
BRANCH   2  10
ATOM     10  O   UNL     1       4.071   6.409  18.339  0.00  0.00    +0.000 OA
BRANCH  10  11
ATOM     11  C   UNL     1       4.571   5.833  17.200  0.00  0.00    +0.000 A 
ATOM     12  C   UNL     1       4.873   6.546  16.038  0.00  0.00    +0.000 A 
ATOM     13  C   UNL     1       5.477   5.918  14.945  0.00  0.00    +0.000 A 
ATOM     14  C   UNL     1       5.786   4.563  15.002  0.00  0.00    +0.000 A 
ATOM     15 CL   UNL     1       6.574   3.816  13.669  0.00  0.00    +0.000 Cl
ATOM     16  C   UNL     1       5.477   3.824  16.138  0.00  0.00    +0.000 A 
ATOM     17  C   UNL     1       4.872   4.458  17.231  0.00  0.00    +0.000 A 
ATOM     18 CL   UNL     1       4.501   3.488  18.614  0.00  0.00    +0.000 Cl
ENDBRANCH  10  11
ENDBRANCH   2  10
TORSDOF 5
ENDMDL
MODEL 9
REMARK VINA RESULT:      -6.3      1.741      2.050
REMARK  Name = 
REMARK  8 active torsions:
REMARK  status: ('A' for Active; 'I' for Inactive)
REMARK    1  A    between atoms: C_1  and  C_2
REMARK    2  A    between atoms: C_2  and  O_3
REMARK    3  A    between atoms: C_2  and  C_12
REMARK    4  A    between atoms: O_3  and  C_4
REMARK    5  A    between atoms: C_12  and  C_14
REMARK    6  A    between atoms: C_15  and  N_16
REMARK    7  A    between atoms: N_16  and  C_17
REMARK    8  A    between atoms: N_16  and  C_18
REMARK                            x       y       z     vdW  Elec       q    Type
REMARK                         _______ _______ _______ _____ _____    ______ ____
ROOT
ATOM      1  C   UNL     1       7.450   4.480  17.191  0.00  0.00    +0.000 C 
ATOM      2  C   UNL     1       5.938   4.642  17.001  0.00  0.00    +0.000 C 
ENDROOT
BRANCH   2   3
ATOM      3  C   UNL     1       5.704   5.543  15.772  0.00  0.00    +0.000 C 
ATOM      4  O   UNL     1       5.880   6.762  15.794  0.00  0.00    +0.000 OA
BRANCH   3   5
ATOM      5  C   UNL     1       5.315   4.861  14.507  0.00  0.00    +0.000 C 
ATOM      6  C   UNL     1       6.243   4.247  13.758  0.00  0.00    +0.000 C 
BRANCH   6   7
ATOM      7  N   UNL     1       6.094   3.550  12.568  0.00  0.00    +0.000 N 
ATOM      8  C   UNL     1       7.197   2.969  11.805  0.00  0.00    +0.000 C 
ATOM      9  C   UNL     1       4.770   3.281  12.007  0.00  0.00    +0.000 C 
ENDBRANCH   6   7
ENDBRANCH   3   5
ENDBRANCH   2   3
BRANCH   2  10
ATOM     10  O   UNL     1       5.303   5.279  18.120  0.00  0.00    +0.000 OA
BRANCH  10  11
ATOM     11  C   UNL     1       4.399   4.591  18.885  0.00  0.00    +0.000 A 
ATOM     12  C   UNL     1       4.593   3.278  19.322  0.00  0.00    +0.000 A 
ATOM     13  C   UNL     1       3.682   2.665  20.187  0.00  0.00    +0.000 A 
ATOM     14  C   UNL     1       2.560   3.361  20.625  0.00  0.00    +0.000 A 
ATOM     15 CL   UNL     1       1.475   2.611  21.729  0.00  0.00    +0.000 Cl
ATOM     16  C   UNL     1       2.331   4.661  20.190  0.00  0.00    +0.000 A 
ATOM     17  C   UNL     1       3.247   5.271  19.323  0.00  0.00    +0.000 A 
ATOM     18 CL   UNL     1       2.906   6.885  18.805  0.00  0.00    +0.000 Cl
ENDBRANCH  10  11
ENDBRANCH   2  10
TORSDOF 5
ENDMDL
