MODEL 1
REMARK VINA RESULT:      -6.8      0.000      0.000
REMARK  Name = 
REMARK  19 active torsions:
REMARK  status: ('A' for Active; 'I' for Inactive)
REMARK    1  A    between atoms: C_1  and  C_2
REMARK    2  A    between atoms: C_2  and  C_3
REMARK    3  A    between atoms: C_3  and  C_4
REMARK    4  A    between atoms: C_3  and  C_5
REMARK    5  A    between atoms: C_5  and  N_6
REMARK    6  A    between atoms: C_5  and  C_19
REMARK    7  A    between atoms: C_7  and  C_9
REMARK    8  A    between atoms: C_9  and  S_10
REMARK    9  A    between atoms: C_9  and  C_11
REMARK   10  A    between atoms: C_11  and  N_12
REMARK   11  A    between atoms: C_11  and  C_13
REMARK   12  A    between atoms: C_13  and  C_14
REMARK   13  A    between atoms: C_14  and  S_15
REMARK   14  A    between atoms: S_15  and  O_18
REMARK   15  A    between atoms: N_21  and  C_22
REMARK   16  A    between atoms: C_22  and  C_23
REMARK   17  A    between atoms: C_22  and  C_27
REMARK   18  A    between atoms: C_23  and  C_24
REMARK   19  A    between atoms: C_24  and  O_26
REMARK                            x       y       z     vdW  Elec       q    Type
REMARK                         _______ _______ _______ _____ _____    ______ ____
ROOT
ATOM      1  C   UNL     1       3.355   4.822  19.108  0.00  0.00    +0.000 C 
ENDROOT
BRANCH   1   2
ATOM      2  N   UNL     1       3.074   6.261  19.195  0.00  0.00    +0.000 N 
ATOM      3  C   UNL     1       2.104   6.799  20.007  0.00  0.00    +0.000 C 
ATOM      4  O   UNL     1       1.365   6.086  20.686  0.00  0.00    +0.000 OA
ATOM      5  H   UNL     1       3.625   6.884  18.606  0.00  0.00    +0.000 HD
BRANCH   3   6
ATOM      6  C   UNL     1       1.945   8.331  20.012  0.00  0.00    +0.000 C 
BRANCH   6   7
ATOM      7  S   UNL     1       1.125   8.954  21.538  0.00  0.00    +0.000 S 
ATOM      8  H   UNL     1       1.833  10.085  21.653  0.00  0.00    +0.000 HD
ENDBRANCH   6   7
BRANCH   6   9
ATOM      9  C   UNL     1       1.249   8.814  18.697  0.00  0.00    +0.000 C 
BRANCH   9  10
ATOM     10  N   UNL     1       2.178   8.759  17.554  0.00  0.00    +0.000 NA
ATOM     11  H   UNL     1       3.135   8.914  17.878  0.00  0.00    +0.000 HD
ATOM     12  H   UNL     1       1.984   9.477  16.861  0.00  0.00    +0.000 HD
ENDBRANCH   9  10
BRANCH   9  13
ATOM     13  C   UNL     1       0.615  10.217  18.821  0.00  0.00    +0.000 C 
BRANCH  13  14
ATOM     14  C   UNL     1      -0.911  10.173  18.878  0.00  0.00    +0.000 C 
BRANCH  14  15
ATOM     15  S   UNL     1      -1.625  11.648  18.173  0.00  0.00    +0.000 S 
ATOM     16  O   UNL     1      -2.970  11.819  18.678  0.00  0.00    +0.000 OA
ATOM     17  O   UNL     1      -0.643  12.702  18.166  0.00  0.00    +0.000 OA
BRANCH  15  18
ATOM     18  O   UNL     1      -1.801  11.087  16.668  0.00  0.00    +0.000 OA
ATOM     19  H   UNL     1      -2.221  11.792  16.125  0.00  0.00    +0.000 HD
ENDBRANCH  15  18
ENDBRANCH  14  15
ENDBRANCH  13  14
ENDBRANCH   9  13
ENDBRANCH   6   9
ENDBRANCH   3   6
ENDBRANCH   1   2
BRANCH   1  20
ATOM     20  C   UNL     1       4.902   4.675  19.071  0.00  0.00    +0.000 C 
ATOM     21  O   UNL     1       5.483   3.791  19.701  0.00  0.00    +0.000 OA
ATOM     22  N   UNL     1       5.578   5.613  18.312  0.00  0.00    +0.000 N 
ATOM     23  H   UNL     1       5.065   6.170  17.629  0.00  0.00    +0.000 HD
BRANCH  22  24
ATOM     24  C   UNL     1       7.045   5.601  18.162  0.00  0.00    +0.000 C 
BRANCH  24  25
ATOM     25  C   UNL     1       7.664   6.996  17.937  0.00  0.00    +0.000 C 
ATOM     26  N   UNL     1       8.499   7.464  18.902  0.00  0.00    +0.000 N 
ATOM     27  O   UNL     1       7.435   7.664  16.930  0.00  0.00    +0.000 OA
ATOM     28  H   UNL     1       8.829   6.874  19.651  0.00  0.00    +0.000 HD
ATOM     29  H   UNL     1       8.930   8.368  18.757  0.00  0.00    +0.000 HD
ENDBRANCH  24  25
BRANCH  24  30
ATOM     30  C   UNL     1       7.535   4.677  17.039  0.00  0.00    +0.000 C 
BRANCH  30  31
ATOM     31  C   UNL     1       6.830   4.999  15.744  0.00  0.00    +0.000 C 
ATOM     32  O   UNL     1       5.630   4.831  15.571  0.00  0.00    +0.000 OA
BRANCH  31  33
ATOM     33  O   UNL     1       7.645   5.452  14.770  0.00  0.00    +0.000 OA
ATOM     34  H   UNL     1       7.240   6.087  14.149  0.00  0.00    +0.000 HD
ENDBRANCH  31  33
ENDBRANCH  30  31
ENDBRANCH  24  30
ENDBRANCH  22  24
ENDBRANCH   1  20
BRANCH   1  35
ATOM     35  C   UNL     1       2.723   4.205  17.828  0.00  0.00    +0.000 C 
ATOM     36  C   UNL     1       3.464   2.941  17.375  0.00  0.00    +0.000 C 
BRANCH  35  38
ATOM     37  C   UNL     1       0.844   2.732  18.837  0.00  0.00    +0.000 C 
ATOM     38  C   UNL     1       1.208   3.919  17.954  0.00  0.00    +0.000 C 
ENDBRANCH  35  38
ENDBRANCH   1  35
TORSDOF 17
ENDMDL
MODEL 2
REMARK VINA RESULT:      -6.7      2.192      4.514
REMARK  Name = 
REMARK  19 active torsions:
REMARK  status: ('A' for Active; 'I' for Inactive)
REMARK    1  A    between atoms: C_1  and  C_2
REMARK    2  A    between atoms: C_2  and  C_3
REMARK    3  A    between atoms: C_3  and  C_4
REMARK    4  A    between atoms: C_3  and  C_5
REMARK    5  A    between atoms: C_5  and  N_6
REMARK    6  A    between atoms: C_5  and  C_19
REMARK    7  A    between atoms: C_7  and  C_9
REMARK    8  A    between atoms: C_9  and  S_10
REMARK    9  A    between atoms: C_9  and  C_11
REMARK   10  A    between atoms: C_11  and  N_12
REMARK   11  A    between atoms: C_11  and  C_13
REMARK   12  A    between atoms: C_13  and  C_14
REMARK   13  A    between atoms: C_14  and  S_15
REMARK   14  A    between atoms: S_15  and  O_18
REMARK   15  A    between atoms: N_21  and  C_22
REMARK   16  A    between atoms: C_22  and  C_23
REMARK   17  A    between atoms: C_22  and  C_27
REMARK   18  A    between atoms: C_23  and  C_24
REMARK   19  A    between atoms: C_24  and  O_26
REMARK                            x       y       z     vdW  Elec       q    Type
REMARK                         _______ _______ _______ _____ _____    ______ ____
ROOT
ATOM      1  C   UNL     1       4.403   5.597  17.547  0.00  0.00    +0.000 C 
ENDROOT
BRANCH   1   2
ATOM      2  N   UNL     1       3.875   6.838  18.130  0.00  0.00    +0.000 N 
ATOM      3  C   UNL     1       2.536   7.077  18.324  0.00  0.00    +0.000 C 
ATOM      4  O   UNL     1       1.678   6.269  17.966  0.00  0.00    +0.000 OA
ATOM      5  H   UNL     1       4.548   7.559  18.386  0.00  0.00    +0.000 HD
BRANCH   3   6
ATOM      6  C   UNL     1       2.136   8.416  18.972  0.00  0.00    +0.000 C 
BRANCH   6   7
ATOM      7  S   UNL     1       1.298   8.195  20.597  0.00  0.00    +0.000 S 
ATOM      8  H   UNL     1       0.813   6.968  20.364  0.00  0.00    +0.000 HD
ENDBRANCH   6   7
BRANCH   6   9
ATOM      9  C   UNL     1       1.313   9.288  17.968  0.00  0.00    +0.000 C 
BRANCH   9  10
ATOM     10  N   UNL     1       2.110  10.426  17.476  0.00  0.00    +0.000 NA
ATOM     11  H   UNL     1       2.536  10.916  18.266  0.00  0.00    +0.000 HD
ATOM     12  H   UNL     1       1.546  11.109  16.978  0.00  0.00    +0.000 HD
ENDBRANCH   9  10
BRANCH   9  13
ATOM     13  C   UNL     1      -0.037   9.772  18.543  0.00  0.00    +0.000 C 
BRANCH  13  14
ATOM     14  C   UNL     1      -1.087  10.014  17.461  0.00  0.00    +0.000 C 
BRANCH  14  15
ATOM     15  S   UNL     1      -2.501  10.882  18.117  0.00  0.00    +0.000 S 
ATOM     16  O   UNL     1      -3.684  10.065  17.954  0.00  0.00    +0.000 OA
ATOM     17  O   UNL     1      -2.142  11.516  19.359  0.00  0.00    +0.000 OA
BRANCH  15  18
ATOM     18  O   UNL     1      -2.597  12.009  16.964  0.00  0.00    +0.000 OA
ATOM     19  H   UNL     1      -1.892  11.832  16.301  0.00  0.00    +0.000 HD
ENDBRANCH  15  18
ENDBRANCH  14  15
ENDBRANCH  13  14
ENDBRANCH   9  13
ENDBRANCH   6   9
ENDBRANCH   3   6
ENDBRANCH   1   2
BRANCH   1  20
ATOM     20  C   UNL     1       4.642   4.619  18.731  0.00  0.00    +0.000 C 
ATOM     21  O   UNL     1       5.752   4.489  19.248  0.00  0.00    +0.000 OA
ATOM     22  N   UNL     1       3.542   3.891  19.143  0.00  0.00    +0.000 N 
ATOM     23  H   UNL     1       2.608   4.189  18.861  0.00  0.00    +0.000 HD
BRANCH  22  24
ATOM     24  C   UNL     1       3.600   2.933  20.264  0.00  0.00    +0.000 C 
BRANCH  24  25
ATOM     25  C   UNL     1       4.475   1.694  19.985  0.00  0.00    +0.000 C 
ATOM     26  N   UNL     1       4.228   1.009  18.837  0.00  0.00    +0.000 N 
ATOM     27  O   UNL     1       5.370   1.333  20.748  0.00  0.00    +0.000 OA
ATOM     28  H   UNL     1       3.617   1.375  18.122  0.00  0.00    +0.000 HD
ATOM     29  H   UNL     1       4.809   0.208  18.630  0.00  0.00    +0.000 HD
ENDBRANCH  24  25
BRANCH  24  30
ATOM     30  C   UNL     1       2.218   2.446  20.721  0.00  0.00    +0.000 C 
BRANCH  30  31
ATOM     31  C   UNL     1       1.127   3.232  20.035  0.00  0.00    +0.000 C 
ATOM     32  O   UNL     1       0.735   4.324  20.426  0.00  0.00    +0.000 OA
BRANCH  31  33
ATOM     33  O   UNL     1       0.585   2.608  18.969  0.00  0.00    +0.000 OA
ATOM     34  H   UNL     1       0.436   3.173  18.187  0.00  0.00    +0.000 HD
ENDBRANCH  31  33
ENDBRANCH  30  31
ENDBRANCH  24  30
ENDBRANCH  22  24
ENDBRANCH   1  20
BRANCH   1  35
ATOM     35  C   UNL     1       5.733   5.858  16.785  0.00  0.00    +0.000 C 
ATOM     36  C   UNL     1       5.572   5.675  15.270  0.00  0.00    +0.000 C 
BRANCH  35  38
ATOM     37  C   UNL     1       7.700   7.184  17.830  0.00  0.00    +0.000 C 
ATOM     38  C   UNL     1       6.369   7.235  17.090  0.00  0.00    +0.000 C 
ENDBRANCH  35  38
ENDBRANCH   1  35
TORSDOF 17
ENDMDL
MODEL 3
REMARK VINA RESULT:      -6.6      2.646      4.834
REMARK  Name = 
REMARK  19 active torsions:
REMARK  status: ('A' for Active; 'I' for Inactive)
REMARK    1  A    between atoms: C_1  and  C_2
REMARK    2  A    between atoms: C_2  and  C_3
REMARK    3  A    between atoms: C_3  and  C_4
REMARK    4  A    between atoms: C_3  and  C_5
REMARK    5  A    between atoms: C_5  and  N_6
REMARK    6  A    between atoms: C_5  and  C_19
REMARK    7  A    between atoms: C_7  and  C_9
REMARK    8  A    between atoms: C_9  and  S_10
REMARK    9  A    between atoms: C_9  and  C_11
REMARK   10  A    between atoms: C_11  and  N_12
REMARK   11  A    between atoms: C_11  and  C_13
REMARK   12  A    between atoms: C_13  and  C_14
REMARK   13  A    between atoms: C_14  and  S_15
REMARK   14  A    between atoms: S_15  and  O_18
REMARK   15  A    between atoms: N_21  and  C_22
REMARK   16  A    between atoms: C_22  and  C_23
REMARK   17  A    between atoms: C_22  and  C_27
REMARK   18  A    between atoms: C_23  and  C_24
REMARK   19  A    between atoms: C_24  and  O_26
REMARK                            x       y       z     vdW  Elec       q    Type
REMARK                         _______ _______ _______ _____ _____    ______ ____
ROOT
ATOM      1  C   UNL     1       4.491   5.492  17.389  0.00  0.00    +0.000 C 
ENDROOT
BRANCH   1   2
ATOM      2  N   UNL     1       3.720   6.634  17.899  0.00  0.00    +0.000 N 
ATOM      3  C   UNL     1       2.374   6.581  18.174  0.00  0.00    +0.000 C 
ATOM      4  O   UNL     1       1.712   5.565  17.957  0.00  0.00    +0.000 OA
ATOM      5  H   UNL     1       4.217   7.513  18.037  0.00  0.00    +0.000 HD
BRANCH   3   6
ATOM      6  C   UNL     1       1.708   7.853  18.730  0.00  0.00    +0.000 C 
BRANCH   6   7
ATOM      7  S   UNL     1       2.342   9.390  17.938  0.00  0.00    +0.000 S 
ATOM      8  H   UNL     1       2.008   9.074  16.680  0.00  0.00    +0.000 HD
ENDBRANCH   6   7
BRANCH   6   9
ATOM      9  C   UNL     1       1.798   7.882  20.291  0.00  0.00    +0.000 C 
BRANCH   9  10
ATOM     10  N   UNL     1       2.143   6.553  20.827  0.00  0.00    +0.000 NA
ATOM     11  H   UNL     1       3.138   6.520  21.057  0.00  0.00    +0.000 HD
ATOM     12  H   UNL     1       1.972   5.808  20.157  0.00  0.00    +0.000 HD
ENDBRANCH   9  10
BRANCH   9  13
ATOM     13  C   UNL     1       0.523   8.432  20.968  0.00  0.00    +0.000 C 
BRANCH  13  14
ATOM     14  C   UNL     1       0.831   9.353  22.146  0.00  0.00    +0.000 C 
BRANCH  14  15
ATOM     15  S   UNL     1       0.293  11.022  21.816  0.00  0.00    +0.000 S 
ATOM     16  O   UNL     1      -0.443  11.524  22.957  0.00  0.00    +0.000 OA
ATOM     17  O   UNL     1       1.357  11.754  21.179  0.00  0.00    +0.000 OA
BRANCH  15  18
ATOM     18  O   UNL     1      -0.827  10.658  20.710  0.00  0.00    +0.000 OA
ATOM     19  H   UNL     1      -0.909   9.679  20.667  0.00  0.00    +0.000 HD
ENDBRANCH  15  18
ENDBRANCH  14  15
ENDBRANCH  13  14
ENDBRANCH   9  13
ENDBRANCH   6   9
ENDBRANCH   3   6
ENDBRANCH   1   2
BRANCH   1  20
ATOM     20  C   UNL     1       4.829   4.604  18.618  0.00  0.00    +0.000 C 
ATOM     21  O   UNL     1       5.954   4.592  19.117  0.00  0.00    +0.000 OA
ATOM     22  N   UNL     1       3.798   3.813  19.092  0.00  0.00    +0.000 N 
ATOM     23  H   UNL     1       2.839   4.020  18.814  0.00  0.00    +0.000 HD
BRANCH  22  24
ATOM     24  C   UNL     1       3.953   2.926  20.260  0.00  0.00    +0.000 C 
BRANCH  24  25
ATOM     25  C   UNL     1       4.600   1.565  19.933  0.00  0.00    +0.000 C 
ATOM     26  N   UNL     1       4.229   0.968  18.770  0.00  0.00    +0.000 N 
ATOM     27  O   UNL     1       5.428   1.034  20.672  0.00  0.00    +0.000 OA
ATOM     28  H   UNL     1       3.683   1.454  18.075  0.00  0.00    +0.000 HD
ATOM     29  H   UNL     1       4.662   0.086  18.531  0.00  0.00    +0.000 HD
ENDBRANCH  24  25
BRANCH  24  30
ATOM     30  C   UNL     1       2.636   2.660  21.002  0.00  0.00    +0.000 C 
BRANCH  30  31
ATOM     31  C   UNL     1       1.460   2.845  20.073  0.00  0.00    +0.000 C 
ATOM     32  O   UNL     1       1.230   2.110  19.123  0.00  0.00    +0.000 OA
BRANCH  31  33
ATOM     33  O   UNL     1       0.699   3.923  20.355  0.00  0.00    +0.000 OA
ATOM     34  H   UNL     1      -0.059   4.066  19.757  0.00  0.00    +0.000 HD
ENDBRANCH  31  33
ENDBRANCH  30  31
ENDBRANCH  24  30
ENDBRANCH  22  24
ENDBRANCH   1  20
BRANCH   1  35
ATOM     35  C   UNL     1       5.797   5.967  16.690  0.00  0.00    +0.000 C 
ATOM     36  C   UNL     1       6.589   6.950  17.562  0.00  0.00    +0.000 C 
BRANCH  35  38
ATOM     37  C   UNL     1       6.093   3.867  15.200  0.00  0.00    +0.000 C 
ATOM     38  C   UNL     1       6.712   4.811  16.223  0.00  0.00    +0.000 C 
ENDBRANCH  35  38
ENDBRANCH   1  35
TORSDOF 17
ENDMDL
MODEL 4
REMARK VINA RESULT:      -6.6      1.915      2.874
REMARK  Name = 
REMARK  19 active torsions:
REMARK  status: ('A' for Active; 'I' for Inactive)
REMARK    1  A    between atoms: C_1  and  C_2
REMARK    2  A    between atoms: C_2  and  C_3
REMARK    3  A    between atoms: C_3  and  C_4
REMARK    4  A    between atoms: C_3  and  C_5
REMARK    5  A    between atoms: C_5  and  N_6
REMARK    6  A    between atoms: C_5  and  C_19
REMARK    7  A    between atoms: C_7  and  C_9
REMARK    8  A    between atoms: C_9  and  S_10
REMARK    9  A    between atoms: C_9  and  C_11
REMARK   10  A    between atoms: C_11  and  N_12
REMARK   11  A    between atoms: C_11  and  C_13
REMARK   12  A    between atoms: C_13  and  C_14
REMARK   13  A    between atoms: C_14  and  S_15
REMARK   14  A    between atoms: S_15  and  O_18
REMARK   15  A    between atoms: N_21  and  C_22
REMARK   16  A    between atoms: C_22  and  C_23
REMARK   17  A    between atoms: C_22  and  C_27
REMARK   18  A    between atoms: C_23  and  C_24
REMARK   19  A    between atoms: C_24  and  O_26
REMARK                            x       y       z     vdW  Elec       q    Type
REMARK                         _______ _______ _______ _____ _____    ______ ____
ROOT
ATOM      1  C   UNL     1       2.730   6.910  19.268  0.00  0.00    +0.000 C 
ENDROOT
BRANCH   1   2
ATOM      2  N   UNL     1       1.942   8.149  19.262  0.00  0.00    +0.000 N 
ATOM      3  C   UNL     1       1.386   8.703  20.390  0.00  0.00    +0.000 C 
ATOM      4  O   UNL     1       1.477   8.154  21.489  0.00  0.00    +0.000 OA
ATOM      5  H   UNL     1       1.794   8.607  18.364  0.00  0.00    +0.000 HD
BRANCH   3   6
ATOM      6  C   UNL     1       0.609  10.023  20.230  0.00  0.00    +0.000 C 
BRANCH   6   7
ATOM      7  S   UNL     1      -0.277  10.516  21.768  0.00  0.00    +0.000 S 
ATOM      8  H   UNL     1       0.418   9.740  22.611  0.00  0.00    +0.000 HD
ENDBRANCH   6   7
BRANCH   6   9
ATOM      9  C   UNL     1      -0.323   9.962  18.975  0.00  0.00    +0.000 C 
BRANCH   9  10
ATOM     10  N   UNL     1       0.446  10.162  17.733  0.00  0.00    +0.000 NA
ATOM     11  H   UNL     1       0.184  11.052  17.304  0.00  0.00    +0.000 HD
ATOM     12  H   UNL     1       0.264   9.439  17.043  0.00  0.00    +0.000 HD
ENDBRANCH   9  10
BRANCH   9  13
ATOM     13  C   UNL     1      -1.512  10.945  19.048  0.00  0.00    +0.000 C 
BRANCH  13  14
ATOM     14  C   UNL     1      -2.765  10.407  18.360  0.00  0.00    +0.000 C 
BRANCH  14  15
ATOM     15  S   UNL     1      -2.868  10.975  16.672  0.00  0.00    +0.000 S 
ATOM     16  O   UNL     1      -2.245  10.003  15.799  0.00  0.00    +0.000 OA
ATOM     17  O   UNL     1      -4.173  11.533  16.430  0.00  0.00    +0.000 OA
BRANCH  15  18
ATOM     18  O   UNL     1      -1.800  12.181  16.800  0.00  0.00    +0.000 OA
ATOM     19  H   UNL     1      -2.281  13.031  16.678  0.00  0.00    +0.000 HD
ENDBRANCH  15  18
ENDBRANCH  14  15
ENDBRANCH  13  14
ENDBRANCH   9  13
ENDBRANCH   6   9
ENDBRANCH   3   6
ENDBRANCH   1   2
BRANCH   1  20
ATOM     20  C   UNL     1       3.603   6.934  17.983  0.00  0.00    +0.000 C 
ATOM     21  O   UNL     1       3.307   7.631  17.013  0.00  0.00    +0.000 OA
ATOM     22  N   UNL     1       4.711   6.106  17.991  0.00  0.00    +0.000 N 
ATOM     23  H   UNL     1       5.052   5.732  18.877  0.00  0.00    +0.000 HD
BRANCH  22  24
ATOM     24  C   UNL     1       5.648   6.026  16.855  0.00  0.00    +0.000 C 
BRANCH  24  25
ATOM     25  C   UNL     1       5.458   4.776  15.972  0.00  0.00    +0.000 C 
ATOM     26  N   UNL     1       5.304   3.586  16.611  0.00  0.00    +0.000 N 
ATOM     27  O   UNL     1       5.430   4.834  14.743  0.00  0.00    +0.000 OA
ATOM     28  H   UNL     1       5.160   3.533  17.608  0.00  0.00    +0.000 HD
ATOM     29  H   UNL     1       5.156   2.760  16.044  0.00  0.00    +0.000 HD
ENDBRANCH  24  25
BRANCH  24  30
ATOM     30  C   UNL     1       7.122   6.090  17.276  0.00  0.00    +0.000 C 
BRANCH  30  31
ATOM     31  C   UNL     1       7.452   4.961  18.222  0.00  0.00    +0.000 C 
ATOM     32  O   UNL     1       6.997   4.877  19.355  0.00  0.00    +0.000 OA
BRANCH  31  33
ATOM     33  O   UNL     1       8.330   4.065  17.726  0.00  0.00    +0.000 OA
ATOM     34  H   UNL     1       8.003   3.147  17.674  0.00  0.00    +0.000 HD
ENDBRANCH  31  33
ENDBRANCH  30  31
ENDBRANCH  24  30
ENDBRANCH  22  24
ENDBRANCH   1  20
BRANCH   1  35
ATOM     35  C   UNL     1       1.805   5.659  19.270  0.00  0.00    +0.000 C 
ATOM     36  C   UNL     1       1.982   4.814  18.002  0.00  0.00    +0.000 C 
BRANCH  35  38
ATOM     37  C   UNL     1       1.075   3.528  20.551  0.00  0.00    +0.000 C 
ATOM     38  C   UNL     1       1.955   4.772  20.528  0.00  0.00    +0.000 C 
ENDBRANCH  35  38
ENDBRANCH   1  35
TORSDOF 17
ENDMDL
MODEL 5
REMARK VINA RESULT:      -6.5      2.422      4.570
REMARK  Name = 
REMARK  19 active torsions:
REMARK  status: ('A' for Active; 'I' for Inactive)
REMARK    1  A    between atoms: C_1  and  C_2
REMARK    2  A    between atoms: C_2  and  C_3
REMARK    3  A    between atoms: C_3  and  C_4
REMARK    4  A    between atoms: C_3  and  C_5
REMARK    5  A    between atoms: C_5  and  N_6
REMARK    6  A    between atoms: C_5  and  C_19
REMARK    7  A    between atoms: C_7  and  C_9
REMARK    8  A    between atoms: C_9  and  S_10
REMARK    9  A    between atoms: C_9  and  C_11
REMARK   10  A    between atoms: C_11  and  N_12
REMARK   11  A    between atoms: C_11  and  C_13
REMARK   12  A    between atoms: C_13  and  C_14
REMARK   13  A    between atoms: C_14  and  S_15
REMARK   14  A    between atoms: S_15  and  O_18
REMARK   15  A    between atoms: N_21  and  C_22
REMARK   16  A    between atoms: C_22  and  C_23
REMARK   17  A    between atoms: C_22  and  C_27
REMARK   18  A    between atoms: C_23  and  C_24
REMARK   19  A    between atoms: C_24  and  O_26
REMARK                            x       y       z     vdW  Elec       q    Type
REMARK                         _______ _______ _______ _____ _____    ______ ____
ROOT
ATOM      1  C   UNL     1       4.120   5.862  17.699  0.00  0.00    +0.000 C 
ENDROOT
BRANCH   1   2
ATOM      2  N   UNL     1       3.560   7.117  18.218  0.00  0.00    +0.000 N 
ATOM      3  C   UNL     1       2.452   7.177  19.030  0.00  0.00    +0.000 C 
ATOM      4  O   UNL     1       1.821   6.164  19.334  0.00  0.00    +0.000 OA
ATOM      5  H   UNL     1       4.018   7.985  17.944  0.00  0.00    +0.000 HD
BRANCH   3   6
ATOM      6  C   UNL     1       1.999   8.565  19.518  0.00  0.00    +0.000 C 
BRANCH   6   7
ATOM      7  S   UNL     1       1.074   8.490  21.110  0.00  0.00    +0.000 S 
ATOM      8  H   UNL     1       1.639   7.367  21.573  0.00  0.00    +0.000 HD
ENDBRANCH   6   7
BRANCH   6   9
ATOM      9  C   UNL     1       1.222   9.318  18.389  0.00  0.00    +0.000 C 
BRANCH   9  10
ATOM     10  N   UNL     1       2.134   9.749  17.314  0.00  0.00    +0.000 NA
ATOM     11  H   UNL     1       3.104   9.627  17.614  0.00  0.00    +0.000 HD
ATOM     12  H   UNL     1       2.022  10.731  17.080  0.00  0.00    +0.000 HD
ENDBRANCH   9  10
BRANCH   9  13
ATOM     13  C   UNL     1       0.388  10.510  18.910  0.00  0.00    +0.000 C 
BRANCH  13  14
ATOM     14  C   UNL     1       1.250  11.606  19.532  0.00  0.00    +0.000 C 
BRANCH  14  15
ATOM     15  S   UNL     1       1.089  13.140  18.635  0.00  0.00    +0.000 S 
ATOM     16  O   UNL     1      -0.243  13.231  18.076  0.00  0.00    +0.000 OA
ATOM     17  O   UNL     1       1.706  14.203  19.385  0.00  0.00    +0.000 OA
BRANCH  15  18
ATOM     18  O   UNL     1       2.048  12.749  17.395  0.00  0.00    +0.000 OA
ATOM     19  H   UNL     1       1.781  11.861  17.068  0.00  0.00    +0.000 HD
ENDBRANCH  15  18
ENDBRANCH  14  15
ENDBRANCH  13  14
ENDBRANCH   9  13
ENDBRANCH   6   9
ENDBRANCH   3   6
ENDBRANCH   1   2
BRANCH   1  20
ATOM     20  C   UNL     1       4.384   4.952  18.931  0.00  0.00    +0.000 C 
ATOM     21  O   UNL     1       5.309   5.174  19.712  0.00  0.00    +0.000 OA
ATOM     22  N   UNL     1       3.535   3.870  19.074  0.00  0.00    +0.000 N 
ATOM     23  H   UNL     1       2.655   3.851  18.559  0.00  0.00    +0.000 HD
BRANCH  22  24
ATOM     24  C   UNL     1       3.644   2.921  20.198  0.00  0.00    +0.000 C 
BRANCH  24  25
ATOM     25  C   UNL     1       4.534   1.698  19.903  0.00  0.00    +0.000 C 
ATOM     26  N   UNL     1       4.306   1.034  18.738  0.00  0.00    +0.000 N 
ATOM     27  O   UNL     1       5.425   1.330  20.667  0.00  0.00    +0.000 OA
ATOM     28  H   UNL     1       3.699   1.409  18.025  0.00  0.00    +0.000 HD
ATOM     29  H   UNL     1       4.898   0.243  18.521  0.00  0.00    +0.000 HD
ENDBRANCH  24  25
BRANCH  24  30
ATOM     30  C   UNL     1       2.285   2.411  20.698  0.00  0.00    +0.000 C 
BRANCH  30  31
ATOM     31  C   UNL     1       1.232   2.580  19.630  0.00  0.00    +0.000 C 
ATOM     32  O   UNL     1       0.359   3.435  19.673  0.00  0.00    +0.000 OA
BRANCH  31  33
ATOM     33  O   UNL     1       1.308   1.673  18.633  0.00  0.00    +0.000 OA
ATOM     34  H   UNL     1       0.933   1.962  17.779  0.00  0.00    +0.000 HD
ENDBRANCH  31  33
ENDBRANCH  30  31
ENDBRANCH  24  30
ENDBRANCH  22  24
ENDBRANCH   1  20
BRANCH   1  35
ATOM     35  C   UNL     1       5.444   6.119  16.923  0.00  0.00    +0.000 C 
ATOM     36  C   UNL     1       5.253   5.993  15.407  0.00  0.00    +0.000 C 
BRANCH  35  38
ATOM     37  C   UNL     1       7.602   7.386  17.596  0.00  0.00    +0.000 C 
ATOM     38  C   UNL     1       6.117   7.468  17.266  0.00  0.00    +0.000 C 
ENDBRANCH  35  38
ENDBRANCH   1  35
TORSDOF 17
ENDMDL
MODEL 6
REMARK VINA RESULT:      -6.5      1.571      1.946
REMARK  Name = 
REMARK  19 active torsions:
REMARK  status: ('A' for Active; 'I' for Inactive)
REMARK    1  A    between atoms: C_1  and  C_2
REMARK    2  A    between atoms: C_2  and  C_3
REMARK    3  A    between atoms: C_3  and  C_4
REMARK    4  A    between atoms: C_3  and  C_5
REMARK    5  A    between atoms: C_5  and  N_6
REMARK    6  A    between atoms: C_5  and  C_19
REMARK    7  A    between atoms: C_7  and  C_9
REMARK    8  A    between atoms: C_9  and  S_10
REMARK    9  A    between atoms: C_9  and  C_11
REMARK   10  A    between atoms: C_11  and  N_12
REMARK   11  A    between atoms: C_11  and  C_13
REMARK   12  A    between atoms: C_13  and  C_14
REMARK   13  A    between atoms: C_14  and  S_15
REMARK   14  A    between atoms: S_15  and  O_18
REMARK   15  A    between atoms: N_21  and  C_22
REMARK   16  A    between atoms: C_22  and  C_23
REMARK   17  A    between atoms: C_22  and  C_27
REMARK   18  A    between atoms: C_23  and  C_24
REMARK   19  A    between atoms: C_24  and  O_26
REMARK                            x       y       z     vdW  Elec       q    Type
REMARK                         _______ _______ _______ _____ _____    ______ ____
ROOT
ATOM      1  C   UNL     1       3.324   4.540  19.733  0.00  0.00    +0.000 C 
ENDROOT
BRANCH   1   2
ATOM      2  N   UNL     1       2.982   5.942  20.008  0.00  0.00    +0.000 N 
ATOM      3  C   UNL     1       2.373   6.769  19.094  0.00  0.00    +0.000 C 
ATOM      4  O   UNL     1       2.119   6.389  17.951  0.00  0.00    +0.000 OA
ATOM      5  H   UNL     1       3.228   6.315  20.923  0.00  0.00    +0.000 HD
BRANCH   3   6
ATOM      6  C   UNL     1       2.051   8.208  19.537  0.00  0.00    +0.000 C 
BRANCH   6   7
ATOM      7  S   UNL     1       1.238   8.277  21.188  0.00  0.00    +0.000 S 
ATOM      8  H   UNL     1       0.195   7.492  20.888  0.00  0.00    +0.000 HD
ENDBRANCH   6   7
BRANCH   6   9
ATOM      9  C   UNL     1       1.249   8.958  18.424  0.00  0.00    +0.000 C 
BRANCH   9  10
ATOM     10  N   UNL     1       2.156   9.561  17.430  0.00  0.00    +0.000 NA
ATOM     11  H   UNL     1       2.761   8.839  17.032  0.00  0.00    +0.000 HD
ATOM     12  H   UNL     1       2.768  10.262  17.838  0.00  0.00    +0.000 HD
ENDBRANCH   9  10
BRANCH   9  13
ATOM     13  C   UNL     1       0.269  10.015  18.982  0.00  0.00    +0.000 C 
BRANCH  13  14
ATOM     14  C   UNL     1       0.779  11.443  18.807  0.00  0.00    +0.000 C 
BRANCH  14  15
ATOM     15  S   UNL     1       0.516  12.407  20.285  0.00  0.00    +0.000 S 
ATOM     16  O   UNL     1       1.264  11.824  21.378  0.00  0.00    +0.000 OA
ATOM     17  O   UNL     1       0.556  13.809  19.958  0.00  0.00    +0.000 OA
BRANCH  15  18
ATOM     18  O   UNL     1      -1.020  11.973  20.537  0.00  0.00    +0.000 OA
ATOM     19  H   UNL     1      -1.049  11.401  21.337  0.00  0.00    +0.000 HD
ENDBRANCH  15  18
ENDBRANCH  14  15
ENDBRANCH  13  14
ENDBRANCH   9  13
ENDBRANCH   6   9
ENDBRANCH   3   6
ENDBRANCH   1   2
BRANCH   1  20
ATOM     20  C   UNL     1       4.701   4.553  19.013  0.00  0.00    +0.000 C 
ATOM     21  O   UNL     1       5.675   3.955  19.469  0.00  0.00    +0.000 OA
ATOM     22  N   UNL     1       4.765   5.300  17.851  0.00  0.00    +0.000 N 
ATOM     23  H   UNL     1       3.902   5.580  17.385  0.00  0.00    +0.000 HD
BRANCH  22  24
ATOM     24  C   UNL     1       5.994   5.402  17.042  0.00  0.00    +0.000 C 
BRANCH  24  25
ATOM     25  C   UNL     1       6.957   6.516  17.501  0.00  0.00    +0.000 C 
ATOM     26  N   UNL     1       7.788   6.226  18.537  0.00  0.00    +0.000 N 
ATOM     27  O   UNL     1       6.996   7.619  16.959  0.00  0.00    +0.000 OA
ATOM     28  H   UNL     1       7.890   5.285  18.888  0.00  0.00    +0.000 HD
ATOM     29  H   UNL     1       8.441   6.939  18.834  0.00  0.00    +0.000 HD
ENDBRANCH  24  25
BRANCH  24  30
ATOM     30  C   UNL     1       5.723   5.596  15.544  0.00  0.00    +0.000 C 
BRANCH  30  31
ATOM     31  C   UNL     1       6.751   4.857  14.721  0.00  0.00    +0.000 C 
ATOM     32  O   UNL     1       7.772   5.378  14.293  0.00  0.00    +0.000 OA
BRANCH  31  33
ATOM     33  O   UNL     1       6.428   3.574  14.458  0.00  0.00    +0.000 OA
ATOM     34  H   UNL     1       5.532   3.304  14.738  0.00  0.00    +0.000 HD
ENDBRANCH  31  33
ENDBRANCH  30  31
ENDBRANCH  24  30
ENDBRANCH  22  24
ENDBRANCH   1  20
BRANCH   1  35
ATOM     35  C   UNL     1       2.249   3.868  18.831  0.00  0.00    +0.000 C 
ATOM     36  C   UNL     1       2.839   2.734  17.985  0.00  0.00    +0.000 C 
BRANCH  35  38
ATOM     37  C   UNL     1       1.273   2.928  21.041  0.00  0.00    +0.000 C 
ATOM     38  C   UNL     1       1.008   3.366  19.606  0.00  0.00    +0.000 C 
ENDBRANCH  35  38
ENDBRANCH   1  35
TORSDOF 17
ENDMDL
MODEL 7
REMARK VINA RESULT:      -6.5      1.256      1.551
REMARK  Name = 
REMARK  19 active torsions:
REMARK  status: ('A' for Active; 'I' for Inactive)
REMARK    1  A    between atoms: C_1  and  C_2
REMARK    2  A    between atoms: C_2  and  C_3
REMARK    3  A    between atoms: C_3  and  C_4
REMARK    4  A    between atoms: C_3  and  C_5
REMARK    5  A    between atoms: C_5  and  N_6
REMARK    6  A    between atoms: C_5  and  C_19
REMARK    7  A    between atoms: C_7  and  C_9
REMARK    8  A    between atoms: C_9  and  S_10
REMARK    9  A    between atoms: C_9  and  C_11
REMARK   10  A    between atoms: C_11  and  N_12
REMARK   11  A    between atoms: C_11  and  C_13
REMARK   12  A    between atoms: C_13  and  C_14
REMARK   13  A    between atoms: C_14  and  S_15
REMARK   14  A    between atoms: S_15  and  O_18
REMARK   15  A    between atoms: N_21  and  C_22
REMARK   16  A    between atoms: C_22  and  C_23
REMARK   17  A    between atoms: C_22  and  C_27
REMARK   18  A    between atoms: C_23  and  C_24
REMARK   19  A    between atoms: C_24  and  O_26
REMARK                            x       y       z     vdW  Elec       q    Type
REMARK                         _______ _______ _______ _____ _____    ______ ____
ROOT
ATOM      1  C   UNL     1       3.300   4.453  19.803  0.00  0.00    +0.000 C 
ENDROOT
BRANCH   1   2
ATOM      2  N   UNL     1       2.989   5.860  20.088  0.00  0.00    +0.000 N 
ATOM      3  C   UNL     1       2.386   6.703  19.185  0.00  0.00    +0.000 C 
ATOM      4  O   UNL     1       2.110   6.333  18.043  0.00  0.00    +0.000 OA
ATOM      5  H   UNL     1       3.254   6.224  21.002  0.00  0.00    +0.000 HD
BRANCH   3   6
ATOM      6  C   UNL     1       2.098   8.147  19.638  0.00  0.00    +0.000 C 
BRANCH   6   7
ATOM      7  S   UNL     1       1.195   8.220  21.242  0.00  0.00    +0.000 S 
ATOM      8  H   UNL     1       1.325   9.538  21.441  0.00  0.00    +0.000 HD
ENDBRANCH   6   7
BRANCH   6   9
ATOM      9  C   UNL     1       1.393   8.950  18.497  0.00  0.00    +0.000 C 
BRANCH   9  10
ATOM     10  N   UNL     1       2.326   9.230  17.390  0.00  0.00    +0.000 NA
ATOM     11  H   UNL     1       1.877   9.016  16.497  0.00  0.00    +0.000 HD
ATOM     12  H   UNL     1       3.167   8.662  17.439  0.00  0.00    +0.000 HD
ENDBRANCH   9  10
BRANCH   9  13
ATOM     13  C   UNL     1       0.720  10.250  18.989  0.00  0.00    +0.000 C 
BRANCH  13  14
ATOM     14  C   UNL     1      -0.798  10.227  18.828  0.00  0.00    +0.000 C 
BRANCH  14  15
ATOM     15  S   UNL     1      -1.417  11.820  18.318  0.00  0.00    +0.000 S 
ATOM     16  O   UNL     1      -2.204  11.667  17.113  0.00  0.00    +0.000 OA
ATOM     17  O   UNL     1      -1.873  12.552  19.472  0.00  0.00    +0.000 OA
BRANCH  15  18
ATOM     18  O   UNL     1      -0.005  12.438  17.832  0.00  0.00    +0.000 OA
ATOM     19  H   UNL     1      -0.174  13.332  17.456  0.00  0.00    +0.000 HD
ENDBRANCH  15  18
ENDBRANCH  14  15
ENDBRANCH  13  14
ENDBRANCH   9  13
ENDBRANCH   6   9
ENDBRANCH   3   6
ENDBRANCH   1   2
BRANCH   1  20
ATOM     20  C   UNL     1       4.665   4.443  19.062  0.00  0.00    +0.000 C 
ATOM     21  O   UNL     1       5.619   3.782  19.472  0.00  0.00    +0.000 OA
ATOM     22  N   UNL     1       4.745   5.241  17.935  0.00  0.00    +0.000 N 
ATOM     23  H   UNL     1       3.888   5.579  17.498  0.00  0.00    +0.000 HD
BRANCH  22  24
ATOM     24  C   UNL     1       5.965   5.330  17.112  0.00  0.00    +0.000 C 
BRANCH  24  25
ATOM     25  C   UNL     1       6.969   6.398  17.591  0.00  0.00    +0.000 C 
ATOM     26  N   UNL     1       6.882   7.628  17.019  0.00  0.00    +0.000 N 
ATOM     27  O   UNL     1       7.810   6.171  18.460  0.00  0.00    +0.000 OA
ATOM     28  H   UNL     1       6.104   7.886  16.430  0.00  0.00    +0.000 HD
ATOM     29  H   UNL     1       7.519   8.346  17.340  0.00  0.00    +0.000 HD
ENDBRANCH  24  25
BRANCH  24  30
ATOM     30  C   UNL     1       5.680   5.578  15.625  0.00  0.00    +0.000 C 
BRANCH  30  31
ATOM     31  C   UNL     1       6.692   4.860  14.765  0.00  0.00    +0.000 C 
ATOM     32  O   UNL     1       7.720   5.382  14.356  0.00  0.00    +0.000 OA
BRANCH  31  33
ATOM     33  O   UNL     1       6.346   3.596  14.446  0.00  0.00    +0.000 OA
ATOM     34  H   UNL     1       5.513   3.506  13.945  0.00  0.00    +0.000 HD
ENDBRANCH  31  33
ENDBRANCH  30  31
ENDBRANCH  24  30
ENDBRANCH  22  24
ENDBRANCH   1  20
BRANCH   1  35
ATOM     35  C   UNL     1       2.198   3.806  18.916  0.00  0.00    +0.000 C 
ATOM     36  C   UNL     1       2.768   2.716  17.998  0.00  0.00    +0.000 C 
BRANCH  35  38
ATOM     37  C   UNL     1       1.289   2.904  21.169  0.00  0.00    +0.000 C 
ATOM     38  C   UNL     1       0.995   3.254  19.716  0.00  0.00    +0.000 C 
ENDBRANCH  35  38
ENDBRANCH   1  35
TORSDOF 17
ENDMDL
MODEL 8
REMARK VINA RESULT:      -6.5      1.571      1.866
REMARK  Name = 
REMARK  19 active torsions:
REMARK  status: ('A' for Active; 'I' for Inactive)
REMARK    1  A    between atoms: C_1  and  C_2
REMARK    2  A    between atoms: C_2  and  C_3
REMARK    3  A    between atoms: C_3  and  C_4
REMARK    4  A    between atoms: C_3  and  C_5
REMARK    5  A    between atoms: C_5  and  N_6
REMARK    6  A    between atoms: C_5  and  C_19
REMARK    7  A    between atoms: C_7  and  C_9
REMARK    8  A    between atoms: C_9  and  S_10
REMARK    9  A    between atoms: C_9  and  C_11
REMARK   10  A    between atoms: C_11  and  N_12
REMARK   11  A    between atoms: C_11  and  C_13
REMARK   12  A    between atoms: C_13  and  C_14
REMARK   13  A    between atoms: C_14  and  S_15
REMARK   14  A    between atoms: S_15  and  O_18
REMARK   15  A    between atoms: N_21  and  C_22
REMARK   16  A    between atoms: C_22  and  C_23
REMARK   17  A    between atoms: C_22  and  C_27
REMARK   18  A    between atoms: C_23  and  C_24
REMARK   19  A    between atoms: C_24  and  O_26
REMARK                            x       y       z     vdW  Elec       q    Type
REMARK                         _______ _______ _______ _____ _____    ______ ____
ROOT
ATOM      1  C   UNL     1       3.439   5.167  20.016  0.00  0.00    +0.000 C 
ENDROOT
BRANCH   1   2
ATOM      2  N   UNL     1       2.769   6.280  19.330  0.00  0.00    +0.000 N 
ATOM      3  C   UNL     1       2.004   7.222  19.977  0.00  0.00    +0.000 C 
ATOM      4  O   UNL     1       1.790   7.157  21.188  0.00  0.00    +0.000 OA
ATOM      5  H   UNL     1       2.871   6.338  18.318  0.00  0.00    +0.000 HD
BRANCH   3   6
ATOM      6  C   UNL     1       1.387   8.347  19.126  0.00  0.00    +0.000 C 
BRANCH   6   7
ATOM      7  S   UNL     1       2.433   8.797  17.678  0.00  0.00    +0.000 S 
ATOM      8  H   UNL     1       3.594   8.347  18.172  0.00  0.00    +0.000 HD
ENDBRANCH   6   7
BRANCH   6   9
ATOM      9  C   UNL     1       1.017   9.574  20.023  0.00  0.00    +0.000 C 
BRANCH   9  10
ATOM     10  N   UNL     1      -0.182   9.295  20.835  0.00  0.00    +0.000 NA
ATOM     11  H   UNL     1      -0.999   9.212  20.226  0.00  0.00    +0.000 HD
ATOM     12  H   UNL     1      -0.384  10.040  21.497  0.00  0.00    +0.000 HD
ENDBRANCH   9  10
BRANCH   9  13
ATOM     13  C   UNL     1       0.846  10.886  19.225  0.00  0.00    +0.000 C 
BRANCH  13  14
ATOM     14  C   UNL     1      -0.528  11.002  18.568  0.00  0.00    +0.000 C 
BRANCH  14  15
ATOM     15  S   UNL     1      -1.455  12.365  19.249  0.00  0.00    +0.000 S 
ATOM     16  O   UNL     1      -1.907  12.022  20.580  0.00  0.00    +0.000 OA
ATOM     17  O   UNL     1      -0.790  13.604  18.935  0.00  0.00    +0.000 OA
BRANCH  15  18
ATOM     18  O   UNL     1      -2.756  12.217  18.303  0.00  0.00    +0.000 OA
ATOM     19  H   UNL     1      -2.514  11.650  17.536  0.00  0.00    +0.000 HD
ENDBRANCH  15  18
ENDBRANCH  14  15
ENDBRANCH  13  14
ENDBRANCH   9  13
ENDBRANCH   6   9
ENDBRANCH   3   6
ENDBRANCH   1   2
BRANCH   1  20
ATOM     20  C   UNL     1       4.776   4.924  19.262  0.00  0.00    +0.000 C 
ATOM     21  O   UNL     1       5.579   4.067  19.630  0.00  0.00    +0.000 OA
ATOM     22  N   UNL     1       5.014   5.748  18.178  0.00  0.00    +0.000 N 
ATOM     23  H   UNL     1       4.242   6.272  17.766  0.00  0.00    +0.000 HD
BRANCH  22  24
ATOM     24  C   UNL     1       6.229   5.635  17.349  0.00  0.00    +0.000 C 
BRANCH  24  25
ATOM     25  C   UNL     1       7.333   6.648  17.712  0.00  0.00    +0.000 C 
ATOM     26  N   UNL     1       7.978   6.461  18.894  0.00  0.00    +0.000 N 
ATOM     27  O   UNL     1       7.641   7.582  16.973  0.00  0.00    +0.000 OA
ATOM     28  H   UNL     1       7.860   5.617  19.435  0.00  0.00    +0.000 HD
ATOM     29  H   UNL     1       8.721   7.104  19.135  0.00  0.00    +0.000 HD
ENDBRANCH  24  25
BRANCH  24  30
ATOM     30  C   UNL     1       5.952   5.753  15.844  0.00  0.00    +0.000 C 
BRANCH  30  31
ATOM     31  C   UNL     1       5.799   4.384  15.226  0.00  0.00    +0.000 C 
ATOM     32  O   UNL     1       5.637   4.200  14.027  0.00  0.00    +0.000 OA
BRANCH  31  33
ATOM     33  O   UNL     1       5.813   3.372  16.117  0.00  0.00    +0.000 OA
ATOM     34  H   UNL     1       5.100   3.393  16.784  0.00  0.00    +0.000 HD
ENDBRANCH  31  33
ENDBRANCH  30  31
ENDBRANCH  24  30
ENDBRANCH  22  24
ENDBRANCH   1  20
BRANCH   1  35
ATOM     35  C   UNL     1       2.561   3.883  19.987  0.00  0.00    +0.000 C 
ATOM     36  C   UNL     1       1.878   3.625  21.336  0.00  0.00    +0.000 C 
BRANCH  35  38
ATOM     37  C   UNL     1       0.742   2.562  18.697  0.00  0.00    +0.000 C 
ATOM     38  C   UNL     1       1.515   3.866  18.848  0.00  0.00    +0.000 C 
ENDBRANCH  35  38
ENDBRANCH   1  35
TORSDOF 17
ENDMDL
MODEL 9
REMARK VINA RESULT:      -6.4      2.752      5.065
REMARK  Name = 
REMARK  19 active torsions:
REMARK  status: ('A' for Active; 'I' for Inactive)
REMARK    1  A    between atoms: C_1  and  C_2
REMARK    2  A    between atoms: C_2  and  C_3
REMARK    3  A    between atoms: C_3  and  C_4
REMARK    4  A    between atoms: C_3  and  C_5
REMARK    5  A    between atoms: C_5  and  N_6
REMARK    6  A    between atoms: C_5  and  C_19
REMARK    7  A    between atoms: C_7  and  C_9
REMARK    8  A    between atoms: C_9  and  S_10
REMARK    9  A    between atoms: C_9  and  C_11
REMARK   10  A    between atoms: C_11  and  N_12
REMARK   11  A    between atoms: C_11  and  C_13
REMARK   12  A    between atoms: C_13  and  C_14
REMARK   13  A    between atoms: C_14  and  S_15
REMARK   14  A    between atoms: S_15  and  O_18
REMARK   15  A    between atoms: N_21  and  C_22
REMARK   16  A    between atoms: C_22  and  C_23
REMARK   17  A    between atoms: C_22  and  C_27
REMARK   18  A    between atoms: C_23  and  C_24
REMARK   19  A    between atoms: C_24  and  O_26
REMARK                            x       y       z     vdW  Elec       q    Type
REMARK                         _______ _______ _______ _____ _____    ______ ____
ROOT
ATOM      1  C   UNL     1       4.211   5.723  17.400  0.00  0.00    +0.000 C 
ENDROOT
BRANCH   1   2
ATOM      2  N   UNL     1       3.522   6.930  17.874  0.00  0.00    +0.000 N 
ATOM      3  C   UNL     1       2.191   6.961  18.216  0.00  0.00    +0.000 C 
ATOM      4  O   UNL     1       1.471   5.969  18.094  0.00  0.00    +0.000 OA
ATOM      5  H   UNL     1       4.067   7.789  17.935  0.00  0.00    +0.000 HD
BRANCH   3   6
ATOM      6  C   UNL     1       1.615   8.296  18.724  0.00  0.00    +0.000 C 
BRANCH   6   7
ATOM      7  S   UNL     1       2.423   9.758  17.947  0.00  0.00    +0.000 S 
ATOM      8  H   UNL     1       2.955   9.113  16.902  0.00  0.00    +0.000 HD
ENDBRANCH   6   7
BRANCH   6   9
ATOM      9  C   UNL     1       1.631   8.341  20.287  0.00  0.00    +0.000 C 
BRANCH   9  10
ATOM     10  N   UNL     1       2.091   7.059  20.850  0.00  0.00    +0.000 NA
ATOM     11  H   UNL     1       3.086   7.117  21.076  0.00  0.00    +0.000 HD
ATOM     12  H   UNL     1       1.984   6.288  20.196  0.00  0.00    +0.000 HD
ENDBRANCH   9  10
BRANCH   9  13
ATOM     13  C   UNL     1       0.276   8.755  20.902  0.00  0.00    +0.000 C 
BRANCH  13  14
ATOM     14  C   UNL     1      -0.259  10.064  20.326  0.00  0.00    +0.000 C 
BRANCH  14  15
ATOM     15  S   UNL     1       0.063  11.431  21.426  0.00  0.00    +0.000 S 
ATOM     16  O   UNL     1       1.415  11.905  21.221  0.00  0.00    +0.000 OA
ATOM     17  O   UNL     1      -1.083  12.302  21.459  0.00  0.00    +0.000 OA
BRANCH  15  18
ATOM     18  O   UNL     1       0.112  10.579  22.797  0.00  0.00    +0.000 OA
ATOM     19  H   UNL     1      -0.412  11.060  23.477  0.00  0.00    +0.000 HD
ENDBRANCH  15  18
ENDBRANCH  14  15
ENDBRANCH  13  14
ENDBRANCH   9  13
ENDBRANCH   6   9
ENDBRANCH   3   6
ENDBRANCH   1   2
BRANCH   1  20
ATOM     20  C   UNL     1       4.366   4.789  18.632  0.00  0.00    +0.000 C 
ATOM     21  O   UNL     1       5.263   4.954  19.459  0.00  0.00    +0.000 OA
ATOM     22  N   UNL     1       3.456   3.753  18.721  0.00  0.00    +0.000 N 
ATOM     23  H   UNL     1       2.602   3.785  18.164  0.00  0.00    +0.000 HD
BRANCH  22  24
ATOM     24  C   UNL     1       3.459   2.789  19.838  0.00  0.00    +0.000 C 
BRANCH  24  25
ATOM     25  C   UNL     1       4.435   1.611  19.648  0.00  0.00    +0.000 C 
ATOM     26  N   UNL     1       4.265   0.840  18.542  0.00  0.00    +0.000 N 
ATOM     27  O   UNL     1       5.343   1.371  20.443  0.00  0.00    +0.000 OA
ATOM     28  H   UNL     1       3.640   1.110  17.797  0.00  0.00    +0.000 HD
ATOM     29  H   UNL     1       4.913   0.077  18.392  0.00  0.00    +0.000 HD
ENDBRANCH  24  25
BRANCH  24  30
ATOM     30  C   UNL     1       2.071   2.211  20.147  0.00  0.00    +0.000 C 
BRANCH  30  31
ATOM     31  C   UNL     1       1.351   3.075  21.154  0.00  0.00    +0.000 C 
ATOM     32  O   UNL     1       1.102   2.714  22.296  0.00  0.00    +0.000 OA
BRANCH  31  33
ATOM     33  O   UNL     1       0.964   4.275  20.675  0.00  0.00    +0.000 OA
ATOM     34  H   UNL     1       0.004   4.374  20.525  0.00  0.00    +0.000 HD
ENDBRANCH  31  33
ENDBRANCH  30  31
ENDBRANCH  24  30
ENDBRANCH  22  24
ENDBRANCH   1  20
BRANCH   1  35
ATOM     35  C   UNL     1       5.607   6.072  16.807  0.00  0.00    +0.000 C 
ATOM     36  C   UNL     1       5.630   5.942  15.279  0.00  0.00    +0.000 C 
BRANCH  35  38
ATOM     37  C   UNL     1       7.617   7.510  17.590  0.00  0.00    +0.000 C 
ATOM     38  C   UNL     1       6.136   7.462  17.232  0.00  0.00    +0.000 C 
ENDBRANCH  35  38
ENDBRANCH   1  35
TORSDOF 17
ENDMDL
