MODEL 1
REMARK VINA RESULT:      -6.9      0.000      0.000
REMARK  Name = 
REMARK  7 active torsions:
REMARK  status: ('A' for Active; 'I' for Inactive)
REMARK    1  A    between atoms: C_1  and  O_2
REMARK    2  A    between atoms: O_2  and  C_3
REMARK    3  A    between atoms: C_5  and  O_6
REMARK    4  A    between atoms: O_6  and  C_7
REMARK    5  A    between atoms: C_12  and  C_13
REMARK    6  A    between atoms: C_22  and  C_23
REMARK    7  A    between atoms: C_23  and  N_24
REMARK                            x       y       z     vdW  Elec       q    Type
REMARK                         _______ _______ _______ _____ _____    ______ ____
ROOT
ATOM      1  C   UNL     1      -2.388  12.211  20.302  0.00  0.00    +0.000 A 
ATOM      2  C   UNL     1      -2.217  12.443  21.663  0.00  0.00    +0.000 A 
ATOM      3  C   UNL     1      -1.300  11.726  22.454  0.00  0.00    +0.000 A 
ATOM      4  C   UNL     1      -0.543  10.703  21.849  0.00  0.00    +0.000 A 
ATOM      5  C   UNL     1       0.482   9.874  22.550  0.00  0.00    +0.000 A 
ATOM      6  O   UNL     1       0.745   9.903  23.740  0.00  0.00    +0.000 OA
ATOM      7  C   UNL     1       1.244   8.920  21.754  0.00  0.00    +0.000 A 
ATOM      8  C   UNL     1       0.955   8.746  20.469  0.00  0.00    +0.000 A 
ATOM      9  O   UNL     1      -0.021   9.445  19.785  0.00  0.00    +0.000 OA
ATOM     10  C   UNL     1      -0.731  10.438  20.458  0.00  0.00    +0.000 A 
ATOM     11  C   UNL     1      -1.640  11.201  19.671  0.00  0.00    +0.000 A 
ENDROOT
BRANCH   8  12
ATOM     12  C   UNL     1       1.693   7.690  19.758  0.00  0.00    +0.000 A 
ATOM     13  C   UNL     1       1.936   6.478  20.436  0.00  0.00    +0.000 A 
ATOM     14  C   UNL     1       2.804   5.517  19.903  0.00  0.00    +0.000 A 
ATOM     15  C   UNL     1       3.442   5.745  18.686  0.00  0.00    +0.000 A 
ATOM     16  C   UNL     1       3.208   6.935  17.998  0.00  0.00    +0.000 A 
ATOM     17  C   UNL     1       2.345   7.904  18.530  0.00  0.00    +0.000 A 
ATOM     18 CL   UNL     1       2.171   9.386  17.656  0.00  0.00    +0.000 Cl
ENDBRANCH   8  12
BRANCH   1  20
ATOM     19  C   UNL     1      -4.576  13.121  20.008  0.00  0.00    +0.000 C 
ATOM     20  O   UNL     1      -3.253  12.930  19.518  0.00  0.00    +0.000 OA
ENDBRANCH   1  20
BRANCH   3  21
ATOM     21  O   UNL     1      -1.349  12.255  23.712  0.00  0.00    +0.000 OA
ATOM     22  C   UNL     1      -1.901  13.511  24.040  0.00  0.00    +0.000 C 
ENDBRANCH   3  21
BRANCH  11  23
ATOM     23  C   UNL     1      -1.710  11.093  18.154  0.00  0.00    +0.000 C 
BRANCH  23  24
ATOM     24  N   UNL     1      -2.361   9.881  17.608  0.00  0.00    +0.000 NA
ATOM     25  C   UNL     1      -2.156   9.727  16.156  0.00  0.00    +0.000 C 
ATOM     26  C   UNL     1      -2.840  10.829  15.322  0.00  0.00    +0.000 C 
ATOM     27  O   UNL     1      -4.244  10.930  15.608  0.00  0.00    +0.000 OA
ATOM     28  C   UNL     1      -4.503  11.069  17.011  0.00  0.00    +0.000 C 
ATOM     29  C   UNL     1      -3.832   9.946  17.820  0.00  0.00    +0.000 C 
ENDBRANCH  23  24
ENDBRANCH  11  23
TORSDOF 5
ENDMDL
MODEL 2
REMARK VINA RESULT:      -6.8      2.694      6.212
REMARK  Name = 
REMARK  7 active torsions:
REMARK  status: ('A' for Active; 'I' for Inactive)
REMARK    1  A    between atoms: C_1  and  O_2
REMARK    2  A    between atoms: O_2  and  C_3
REMARK    3  A    between atoms: C_5  and  O_6
REMARK    4  A    between atoms: O_6  and  C_7
REMARK    5  A    between atoms: C_12  and  C_13
REMARK    6  A    between atoms: C_22  and  C_23
REMARK    7  A    between atoms: C_23  and  N_24
REMARK                            x       y       z     vdW  Elec       q    Type
REMARK                         _______ _______ _______ _____ _____    ______ ____
ROOT
ATOM      1  C   UNL     1      -2.532  10.903  17.378  0.00  0.00    +0.000 A 
ATOM      2  C   UNL     1      -1.341  10.185  17.361  0.00  0.00    +0.000 A 
ATOM      3  C   UNL     1      -0.480  10.100  18.471  0.00  0.00    +0.000 A 
ATOM      4  C   UNL     1      -0.820  10.804  19.644  0.00  0.00    +0.000 A 
ATOM      5  C   UNL     1      -0.022  10.794  20.906  0.00  0.00    +0.000 A 
ATOM      6  O   UNL     1       1.061  10.257  21.072  0.00  0.00    +0.000 OA
ATOM      7  C   UNL     1      -0.565  11.500  22.059  0.00  0.00    +0.000 A 
ATOM      8  C   UNL     1      -1.688  12.200  21.942  0.00  0.00    +0.000 A 
ATOM      9  O   UNL     1      -2.436  12.290  20.783  0.00  0.00    +0.000 OA
ATOM     10  C   UNL     1      -2.027  11.568  19.663  0.00  0.00    +0.000 A 
ATOM     11  C   UNL     1      -2.900  11.608  18.538  0.00  0.00    +0.000 A 
ENDROOT
BRANCH   8  12
ATOM     12  C   UNL     1      -2.117  12.973  23.117  0.00  0.00    +0.000 A 
ATOM     13  C   UNL     1      -3.300  12.580  23.775  0.00  0.00    +0.000 A 
ATOM     14  C   UNL     1      -3.876  13.387  24.764  0.00  0.00    +0.000 A 
ATOM     15  C   UNL     1      -3.281  14.596  25.118  0.00  0.00    +0.000 A 
ATOM     16  C   UNL     1      -2.106  14.997  24.483  0.00  0.00    +0.000 A 
ATOM     17  C   UNL     1      -1.529  14.196  23.487  0.00  0.00    +0.000 A 
ATOM     18 CL   UNL     1      -0.117  14.802  22.692  0.00  0.00    +0.000 Cl
ENDBRANCH   8  12
BRANCH   1  20
ATOM     19  C   UNL     1      -2.935  10.435  15.072  0.00  0.00    +0.000 C 
ATOM     20  O   UNL     1      -3.394  10.960  16.313  0.00  0.00    +0.000 OA
ENDBRANCH   1  20
BRANCH   3  21
ATOM     21  O   UNL     1       0.547   9.270  18.125  0.00  0.00    +0.000 OA
ATOM     22  C   UNL     1       1.859   9.689  17.819  0.00  0.00    +0.000 C 
ENDBRANCH   3  21
BRANCH  11  23
ATOM     23  C   UNL     1      -4.289  12.231  18.594  0.00  0.00    +0.000 C 
BRANCH  23  24
ATOM     24  N   UNL     1      -5.371  11.384  19.142  0.00  0.00    +0.000 NA
ATOM     25  C   UNL     1      -6.468  11.166  18.181  0.00  0.00    +0.000 C 
ATOM     26  C   UNL     1      -7.247  12.453  17.842  0.00  0.00    +0.000 C 
ATOM     27  O   UNL     1      -7.750  13.107  19.017  0.00  0.00    +0.000 OA
ATOM     28  C   UNL     1      -6.725  13.333  19.993  0.00  0.00    +0.000 C 
ATOM     29  C   UNL     1      -5.979  12.032  20.335  0.00  0.00    +0.000 C 
ENDBRANCH  23  24
ENDBRANCH  11  23
TORSDOF 5
ENDMDL
MODEL 3
REMARK VINA RESULT:      -6.7      2.902      6.618
REMARK  Name = 
REMARK  7 active torsions:
REMARK  status: ('A' for Active; 'I' for Inactive)
REMARK    1  A    between atoms: C_1  and  O_2
REMARK    2  A    between atoms: O_2  and  C_3
REMARK    3  A    between atoms: C_5  and  O_6
REMARK    4  A    between atoms: O_6  and  C_7
REMARK    5  A    between atoms: C_12  and  C_13
REMARK    6  A    between atoms: C_22  and  C_23
REMARK    7  A    between atoms: C_23  and  N_24
REMARK                            x       y       z     vdW  Elec       q    Type
REMARK                         _______ _______ _______ _____ _____    ______ ____
ROOT
ATOM      1  C   UNL     1      -2.551  10.759  17.771  0.00  0.00    +0.000 A 
ATOM      2  C   UNL     1      -1.325  10.124  17.937  0.00  0.00    +0.000 A 
ATOM      3  C   UNL     1      -0.479  10.363  19.037  0.00  0.00    +0.000 A 
ATOM      4  C   UNL     1      -0.874  11.316  19.997  0.00  0.00    +0.000 A 
ATOM      5  C   UNL     1      -0.097  11.662  21.224  0.00  0.00    +0.000 A 
ATOM      6  O   UNL     1       1.008  11.243  21.522  0.00  0.00    +0.000 OA
ATOM      7  C   UNL     1      -0.694  12.603  22.163  0.00  0.00    +0.000 A 
ATOM      8  C   UNL     1      -1.850  13.190  21.872  0.00  0.00    +0.000 A 
ATOM      9  O   UNL     1      -2.582  12.950  20.724  0.00  0.00    +0.000 OA
ATOM     10  C   UNL     1      -2.119  11.996  19.821  0.00  0.00    +0.000 A 
ATOM     11  C   UNL     1      -2.974  11.709  18.718  0.00  0.00    +0.000 A 
ENDROOT
BRANCH   8  12
ATOM     12  C   UNL     1      -2.336  14.207  22.817  0.00  0.00    +0.000 A 
ATOM     13  C   UNL     1      -1.802  15.509  22.725  0.00  0.00    +0.000 A 
ATOM     14  C   UNL     1      -2.061  16.464  23.715  0.00  0.00    +0.000 A 
ATOM     15  C   UNL     1      -2.859  16.143  24.810  0.00  0.00    +0.000 A 
ATOM     16  C   UNL     1      -3.402  14.862  24.914  0.00  0.00    +0.000 A 
ATOM     17  C   UNL     1      -3.140  13.899  23.929  0.00  0.00    +0.000 A 
ATOM     18 CL   UNL     1      -3.784  12.312  24.172  0.00  0.00    +0.000 Cl
ENDBRANCH   8  12
BRANCH   1  20
ATOM     19  C   UNL     1      -2.903  10.744  15.410  0.00  0.00    +0.000 C 
ATOM     20  O   UNL     1      -3.397  10.503  16.723  0.00  0.00    +0.000 OA
ENDBRANCH   1  20
BRANCH   3  21
ATOM     21  O   UNL     1       0.594   9.529  18.911  0.00  0.00    +0.000 OA
ATOM     22  C   UNL     1       1.635   9.685  17.972  0.00  0.00    +0.000 C 
ENDBRANCH   3  21
BRANCH  11  23
ATOM     23  C   UNL     1      -4.393  12.251  18.612  0.00  0.00    +0.000 C 
BRANCH  23  24
ATOM     24  N   UNL     1      -5.468  11.399  19.166  0.00  0.00    +0.000 NA
ATOM     25  C   UNL     1      -6.608  11.245  18.243  0.00  0.00    +0.000 C 
ATOM     26  C   UNL     1      -7.374  12.560  17.995  0.00  0.00    +0.000 C 
ATOM     27  O   UNL     1      -7.815  13.168  19.219  0.00  0.00    +0.000 OA
ATOM     28  C   UNL     1      -6.748  13.330  20.161  0.00  0.00    +0.000 C 
ATOM     29  C   UNL     1      -6.014  12.001  20.412  0.00  0.00    +0.000 C 
ENDBRANCH  23  24
ENDBRANCH  11  23
TORSDOF 5
ENDMDL
MODEL 4
REMARK VINA RESULT:      -6.5      3.054      4.827
REMARK  Name = 
REMARK  7 active torsions:
REMARK  status: ('A' for Active; 'I' for Inactive)
REMARK    1  A    between atoms: C_1  and  O_2
REMARK    2  A    between atoms: O_2  and  C_3
REMARK    3  A    between atoms: C_5  and  O_6
REMARK    4  A    between atoms: O_6  and  C_7
REMARK    5  A    between atoms: C_12  and  C_13
REMARK    6  A    between atoms: C_22  and  C_23
REMARK    7  A    between atoms: C_23  and  N_24
REMARK                            x       y       z     vdW  Elec       q    Type
REMARK                         _______ _______ _______ _____ _____    ______ ____
ROOT
ATOM      1  C   UNL     1      -5.981  14.468  22.641  0.00  0.00    +0.000 A 
ATOM      2  C   UNL     1      -5.471  15.384  23.554  0.00  0.00    +0.000 A 
ATOM      3  C   UNL     1      -4.141  15.350  24.014  0.00  0.00    +0.000 A 
ATOM      4  C   UNL     1      -3.295  14.320  23.557  0.00  0.00    +0.000 A 
ATOM      5  C   UNL     1      -1.860  14.165  23.936  0.00  0.00    +0.000 A 
ATOM      6  O   UNL     1      -1.249  14.841  24.746  0.00  0.00    +0.000 OA
ATOM      7  C   UNL     1      -1.100  13.097  23.299  0.00  0.00    +0.000 A 
ATOM      8  C   UNL     1      -1.709  12.246  22.480  0.00  0.00    +0.000 A 
ATOM      9  O   UNL     1      -3.047  12.309  22.139  0.00  0.00    +0.000 OA
ATOM     10  C   UNL     1      -3.817  13.357  22.640  0.00  0.00    +0.000 A 
ATOM     11  C   UNL     1      -5.157  13.434  22.162  0.00  0.00    +0.000 A 
ENDROOT
BRANCH   8  12
ATOM     12  C   UNL     1      -0.902  11.131  21.959  0.00  0.00    +0.000 A 
ATOM     13  C   UNL     1      -0.466  10.145  22.868  0.00  0.00    +0.000 A 
ATOM     14  C   UNL     1       0.470   9.177  22.485  0.00  0.00    +0.000 A 
ATOM     15  C   UNL     1       0.986   9.172  21.191  0.00  0.00    +0.000 A 
ATOM     16  C   UNL     1       0.561  10.135  20.277  0.00  0.00    +0.000 A 
ATOM     17  C   UNL     1      -0.372  11.111  20.656  0.00  0.00    +0.000 A 
ATOM     18 CL   UNL     1      -0.787  12.318  19.489  0.00  0.00    +0.000 Cl
ENDBRANCH   8  12
BRANCH   1  20
ATOM     19  C   UNL     1      -7.736  15.772  21.682  0.00  0.00    +0.000 C 
ATOM     20  O   UNL     1      -7.264  14.517  22.160  0.00  0.00    +0.000 OA
ENDBRANCH   1  20
BRANCH   3  21
ATOM     21  O   UNL     1      -3.970  16.424  24.839  0.00  0.00    +0.000 OA
ATOM     22  C   UNL     1      -4.951  17.402  25.109  0.00  0.00    +0.000 C 
ENDBRANCH   3  21
BRANCH  11  23
ATOM     23  C   UNL     1      -5.680  12.560  21.030  0.00  0.00    +0.000 C 
BRANCH  23  24
ATOM     24  N   UNL     1      -5.264  12.934  19.660  0.00  0.00    +0.000 NA
ATOM     25  C   UNL     1      -6.336  13.602  18.900  0.00  0.00    +0.000 C 
ATOM     26  C   UNL     1      -7.537  12.682  18.600  0.00  0.00    +0.000 C 
ATOM     27  O   UNL     1      -7.141  11.476  17.929  0.00  0.00    +0.000 OA
ATOM     28  C   UNL     1      -6.089  10.791  18.619  0.00  0.00    +0.000 C 
ATOM     29  C   UNL     1      -4.892  11.720  18.885  0.00  0.00    +0.000 C 
ENDBRANCH  23  24
ENDBRANCH  11  23
TORSDOF 5
ENDMDL
MODEL 5
REMARK VINA RESULT:      -6.3      1.074      1.398
REMARK  Name = 
REMARK  7 active torsions:
REMARK  status: ('A' for Active; 'I' for Inactive)
REMARK    1  A    between atoms: C_1  and  O_2
REMARK    2  A    between atoms: O_2  and  C_3
REMARK    3  A    between atoms: C_5  and  O_6
REMARK    4  A    between atoms: O_6  and  C_7
REMARK    5  A    between atoms: C_12  and  C_13
REMARK    6  A    between atoms: C_22  and  C_23
REMARK    7  A    between atoms: C_23  and  N_24
REMARK                            x       y       z     vdW  Elec       q    Type
REMARK                         _______ _______ _______ _____ _____    ______ ____
ROOT
ATOM      1  C   UNL     1      -2.239  11.932  20.045  0.00  0.00    +0.000 A 
ATOM      2  C   UNL     1      -2.069  12.131  21.411  0.00  0.00    +0.000 A 
ATOM      3  C   UNL     1      -1.094  11.457  22.170  0.00  0.00    +0.000 A 
ATOM      4  C   UNL     1      -0.273  10.510  21.524  0.00  0.00    +0.000 A 
ATOM      5  C   UNL     1       0.816   9.733  22.188  0.00  0.00    +0.000 A 
ATOM      6  O   UNL     1       1.090   9.743  23.376  0.00  0.00    +0.000 OA
ATOM      7  C   UNL     1       1.634   8.862  21.353  0.00  0.00    +0.000 A 
ATOM      8  C   UNL     1       1.343   8.709  20.066  0.00  0.00    +0.000 A 
ATOM      9  O   UNL     1       0.312   9.359  19.414  0.00  0.00    +0.000 OA
ATOM     10  C   UNL     1      -0.458  10.277  20.127  0.00  0.00    +0.000 A 
ATOM     11  C   UNL     1      -1.429  10.999  19.374  0.00  0.00    +0.000 A 
ENDROOT
BRANCH   8  12
ATOM     12  C   UNL     1       2.146   7.733  19.314  0.00  0.00    +0.000 A 
ATOM     13  C   UNL     1       2.793   8.169  18.139  0.00  0.00    +0.000 A 
ATOM     14  C   UNL     1       3.396   7.254  17.268  0.00  0.00    +0.000 A 
ATOM     15  C   UNL     1       3.369   5.891  17.552  0.00  0.00    +0.000 A 
ATOM     16  C   UNL     1       2.740   5.442  18.713  0.00  0.00    +0.000 A 
ATOM     17  C   UNL     1       2.128   6.353  19.586  0.00  0.00    +0.000 A 
ATOM     18 CL   UNL     1       1.300   5.709  20.962  0.00  0.00    +0.000 Cl
ENDBRANCH   8  12
BRANCH   1  20
ATOM     19  C   UNL     1      -4.356  13.031  19.944  0.00  0.00    +0.000 C 
ATOM     20  O   UNL     1      -3.162  12.613  19.293  0.00  0.00    +0.000 OA
ENDBRANCH   1  20
BRANCH   3  21
ATOM     21  O   UNL     1      -1.166  11.940  23.444  0.00  0.00    +0.000 OA
ATOM     22  C   UNL     1      -1.713  13.188  23.806  0.00  0.00    +0.000 C 
ENDBRANCH   3  21
BRANCH  11  23
ATOM     23  C   UNL     1      -1.509  10.934  17.855  0.00  0.00    +0.000 C 
BRANCH  23  24
ATOM     24  N   UNL     1      -2.141   9.727  17.277  0.00  0.00    +0.000 NA
ATOM     25  C   UNL     1      -2.150   9.736  15.803  0.00  0.00    +0.000 C 
ATOM     26  C   UNL     1      -3.037  10.846  15.205  0.00  0.00    +0.000 C 
ATOM     27  O   UNL     1      -4.383  10.789  15.700  0.00  0.00    +0.000 OA
ATOM     28  C   UNL     1      -4.434  10.764  17.132  0.00  0.00    +0.000 C 
ATOM     29  C   UNL     1      -3.563   9.634  17.706  0.00  0.00    +0.000 C 
ENDBRANCH  23  24
ENDBRANCH  11  23
TORSDOF 5
ENDMDL
MODEL 6
REMARK VINA RESULT:      -6.3      3.143      7.827
REMARK  Name = 
REMARK  7 active torsions:
REMARK  status: ('A' for Active; 'I' for Inactive)
REMARK    1  A    between atoms: C_1  and  O_2
REMARK    2  A    between atoms: O_2  and  C_3
REMARK    3  A    between atoms: C_5  and  O_6
REMARK    4  A    between atoms: O_6  and  C_7
REMARK    5  A    between atoms: C_12  and  C_13
REMARK    6  A    between atoms: C_22  and  C_23
REMARK    7  A    between atoms: C_23  and  N_24
REMARK                            x       y       z     vdW  Elec       q    Type
REMARK                         _______ _______ _______ _____ _____    ______ ____
ROOT
ATOM      1  C   UNL     1      -0.251  10.559  18.427  0.00  0.00    +0.000 A 
ATOM      2  C   UNL     1      -1.112  10.022  17.475  0.00  0.00    +0.000 A 
ATOM      3  C   UNL     1      -2.487  10.321  17.430  0.00  0.00    +0.000 A 
ATOM      4  C   UNL     1      -3.025  11.175  18.414  0.00  0.00    +0.000 A 
ATOM      5  C   UNL     1      -4.454  11.599  18.484  0.00  0.00    +0.000 A 
ATOM      6  O   UNL     1      -5.360  11.209  17.768  0.00  0.00    +0.000 OA
ATOM      7  C   UNL     1      -4.826  12.563  19.512  0.00  0.00    +0.000 A 
ATOM      8  C   UNL     1      -3.927  12.966  20.403  0.00  0.00    +0.000 A 
ATOM      9  O   UNL     1      -2.606  12.561  20.419  0.00  0.00    +0.000 OA
ATOM     10  C   UNL     1      -2.154  11.709  19.413  0.00  0.00    +0.000 A 
ATOM     11  C   UNL     1      -0.759  11.420  19.415  0.00  0.00    +0.000 A 
ENDROOT
BRANCH   8  12
ATOM     12  C   UNL     1      -4.403  13.856  21.473  0.00  0.00    +0.000 A 
ATOM     13  C   UNL     1      -4.997  15.081  21.104  0.00  0.00    +0.000 A 
ATOM     14  C   UNL     1      -5.280  16.060  22.063  0.00  0.00    +0.000 A 
ATOM     15  C   UNL     1      -4.981  15.838  23.405  0.00  0.00    +0.000 A 
ATOM     16  C   UNL     1      -4.400  14.630  23.789  0.00  0.00    +0.000 A 
ATOM     17  C   UNL     1      -4.108  13.647  22.833  0.00  0.00    +0.000 A 
ATOM     18 CL   UNL     1      -3.314  12.210  23.379  0.00  0.00    +0.000 Cl
ENDBRANCH   8  12
BRANCH   1  20
ATOM     19  C   UNL     1       1.541   9.080  17.876  0.00  0.00    +0.000 C 
ATOM     20  O   UNL     1       1.096  10.302  18.454  0.00  0.00    +0.000 OA
ENDBRANCH   1  20
BRANCH   3  21
ATOM     21  O   UNL     1      -3.005   9.680  16.341  0.00  0.00    +0.000 OA
ATOM     22  C   UNL     1      -3.008  10.192  15.027  0.00  0.00    +0.000 C 
ENDBRANCH   3  21
BRANCH  11  23
ATOM     23  C   UNL     1       0.230  12.135  20.327  0.00  0.00    +0.000 C 
BRANCH  23  24
ATOM     24  N   UNL     1       0.353  13.599  20.148  0.00  0.00    +0.000 NA
ATOM     25  C   UNL     1       0.800  13.974  18.794  0.00  0.00    +0.000 C 
ATOM     26  C   UNL     1       2.239  13.518  18.479  0.00  0.00    +0.000 C 
ATOM     27  O   UNL     1       3.182  13.990  19.453  0.00  0.00    +0.000 OA
ATOM     28  C   UNL     1       2.790  13.664  20.792  0.00  0.00    +0.000 C 
ATOM     29  C   UNL     1       1.362  14.151  21.092  0.00  0.00    +0.000 C 
ENDBRANCH  23  24
ENDBRANCH  11  23
TORSDOF 5
ENDMDL
MODEL 7
REMARK VINA RESULT:      -6.3      2.377      6.445
REMARK  Name = 
REMARK  7 active torsions:
REMARK  status: ('A' for Active; 'I' for Inactive)
REMARK    1  A    between atoms: C_1  and  O_2
REMARK    2  A    between atoms: O_2  and  C_3
REMARK    3  A    between atoms: C_5  and  O_6
REMARK    4  A    between atoms: O_6  and  C_7
REMARK    5  A    between atoms: C_12  and  C_13
REMARK    6  A    between atoms: C_22  and  C_23
REMARK    7  A    between atoms: C_23  and  N_24
REMARK                            x       y       z     vdW  Elec       q    Type
REMARK                         _______ _______ _______ _____ _____    ______ ____
ROOT
ATOM      1  C   UNL     1       0.080  10.255  19.097  0.00  0.00    +0.000 A 
ATOM      2  C   UNL     1       0.627  10.103  20.367  0.00  0.00    +0.000 A 
ATOM      3  C   UNL     1       0.091  10.721  21.512  0.00  0.00    +0.000 A 
ATOM      4  C   UNL     1      -1.030  11.562  21.362  0.00  0.00    +0.000 A 
ATOM      5  C   UNL     1      -1.721  12.268  22.482  0.00  0.00    +0.000 A 
ATOM      6  O   UNL     1      -1.371  12.287  23.650  0.00  0.00    +0.000 OA
ATOM      7  C   UNL     1      -2.926  13.024  22.166  0.00  0.00    +0.000 A 
ATOM      8  C   UNL     1      -3.325  13.144  20.905  0.00  0.00    +0.000 A 
ATOM      9  O   UNL     1      -2.691  12.560  19.825  0.00  0.00    +0.000 OA
ATOM     10  C   UNL     1      -1.583  11.747  20.058  0.00  0.00    +0.000 A 
ATOM     11  C   UNL     1      -1.043  11.081  18.920  0.00  0.00    +0.000 A 
ENDROOT
BRANCH   8  12
ATOM     12  C   UNL     1      -4.487  14.011  20.654  0.00  0.00    +0.000 A 
ATOM     13  C   UNL     1      -4.331  15.400  20.837  0.00  0.00    +0.000 A 
ATOM     14  C   UNL     1      -5.438  16.257  20.819  0.00  0.00    +0.000 A 
ATOM     15  C   UNL     1      -6.718  15.747  20.615  0.00  0.00    +0.000 A 
ATOM     16  C   UNL     1      -6.890  14.376  20.424  0.00  0.00    +0.000 A 
ATOM     17  C   UNL     1      -5.786  13.512  20.448  0.00  0.00    +0.000 A 
ATOM     18 CL   UNL     1      -6.093  11.818  20.285  0.00  0.00    +0.000 Cl
ENDBRANCH   8  12
BRANCH   1  20
ATOM     19  C   UNL     1       1.911   9.138  18.047  0.00  0.00    +0.000 C 
ATOM     20  O   UNL     1       0.575   9.625  17.984  0.00  0.00    +0.000 OA
ENDBRANCH   1  20
BRANCH   3  21
ATOM     21  O   UNL     1       0.830  10.304  22.582  0.00  0.00    +0.000 OA
ATOM     22  C   UNL     1       0.434   9.311  23.502  0.00  0.00    +0.000 C 
ENDBRANCH   3  21
BRANCH  11  23
ATOM     23  C   UNL     1      -1.730  11.084  17.561  0.00  0.00    +0.000 C 
BRANCH  23  24
ATOM     24  N   UNL     1      -2.626   9.943  17.271  0.00  0.00    +0.000 NA
ATOM     25  C   UNL     1      -2.643   9.578  15.843  0.00  0.00    +0.000 C 
ATOM     26  C   UNL     1      -3.255  10.668  14.941  0.00  0.00    +0.000 C 
ATOM     27  O   UNL     1      -4.575  11.042  15.364  0.00  0.00    +0.000 OA
ATOM     28  C   UNL     1      -4.621  11.395  16.752  0.00  0.00    +0.000 C 
ATOM     29  C   UNL     1      -4.028  10.284  17.635  0.00  0.00    +0.000 C 
ENDBRANCH  23  24
ENDBRANCH  11  23
TORSDOF 5
ENDMDL
MODEL 8
REMARK VINA RESULT:      -6.3      3.082      4.956
REMARK  Name = 
REMARK  7 active torsions:
REMARK  status: ('A' for Active; 'I' for Inactive)
REMARK    1  A    between atoms: C_1  and  O_2
REMARK    2  A    between atoms: O_2  and  C_3
REMARK    3  A    between atoms: C_5  and  O_6
REMARK    4  A    between atoms: O_6  and  C_7
REMARK    5  A    between atoms: C_12  and  C_13
REMARK    6  A    between atoms: C_22  and  C_23
REMARK    7  A    between atoms: C_23  and  N_24
REMARK                            x       y       z     vdW  Elec       q    Type
REMARK                         _______ _______ _______ _____ _____    ______ ____
ROOT
ATOM      1  C   UNL     1      -5.760  14.119  23.272  0.00  0.00    +0.000 A 
ATOM      2  C   UNL     1      -5.156  15.022  24.140  0.00  0.00    +0.000 A 
ATOM      3  C   UNL     1      -3.760  15.129  24.288  0.00  0.00    +0.000 A 
ATOM      4  C   UNL     1      -2.935  14.257  23.550  0.00  0.00    +0.000 A 
ATOM      5  C   UNL     1      -1.443  14.263  23.584  0.00  0.00    +0.000 A 
ATOM      6  O   UNL     1      -0.739  14.951  24.304  0.00  0.00    +0.000 OA
ATOM      7  C   UNL     1      -0.739  13.356  22.686  0.00  0.00    +0.000 A 
ATOM      8  C   UNL     1      -1.423  12.497  21.939  0.00  0.00    +0.000 A 
ATOM      9  O   UNL     1      -2.802  12.409  21.911  0.00  0.00    +0.000 OA
ATOM     10  C   UNL     1      -3.546  13.305  22.676  0.00  0.00    +0.000 A 
ATOM     11  C   UNL     1      -4.960  13.242  22.517  0.00  0.00    +0.000 A 
ENDROOT
BRANCH   8  12
ATOM     12  C   UNL     1      -0.641  11.541  21.139  0.00  0.00    +0.000 A 
ATOM     13  C   UNL     1      -0.471  11.808  19.765  0.00  0.00    +0.000 A 
ATOM     14  C   UNL     1       0.078  10.847  18.908  0.00  0.00    +0.000 A 
ATOM     15  C   UNL     1       0.469   9.606  19.403  0.00  0.00    +0.000 A 
ATOM     16  C   UNL     1       0.315   9.326  20.761  0.00  0.00    +0.000 A 
ATOM     17  C   UNL     1      -0.241  10.283  21.623  0.00  0.00    +0.000 A 
ATOM     18 CL   UNL     1      -0.472   9.830  23.276  0.00  0.00    +0.000 Cl
ENDBRANCH   8  12
BRANCH   1  20
ATOM     19  C   UNL     1      -7.917  13.831  24.254  0.00  0.00    +0.000 C 
ATOM     20  O   UNL     1      -7.117  14.035  23.095  0.00  0.00    +0.000 OA
ENDBRANCH   1  20
BRANCH   3  21
ATOM     21  O   UNL     1      -3.522  16.150  25.162  0.00  0.00    +0.000 OA
ATOM     22  C   UNL     1      -3.252  17.485  24.792  0.00  0.00    +0.000 C 
ENDBRANCH   3  21
BRANCH  11  23
ATOM     23  C   UNL     1      -5.633  12.395  21.445  0.00  0.00    +0.000 C 
BRANCH  23  24
ATOM     24  N   UNL     1      -6.057  13.101  20.216  0.00  0.00    +0.000 NA
ATOM     25  C   UNL     1      -7.271  12.519  19.613  0.00  0.00    +0.000 C 
ATOM     26  C   UNL     1      -7.060  11.091  19.073  0.00  0.00    +0.000 C 
ATOM     27  O   UNL     1      -5.970  11.021  18.140  0.00  0.00    +0.000 OA
ATOM     28  C   UNL     1      -4.764  11.586  18.670  0.00  0.00    +0.000 C 
ATOM     29  C   UNL     1      -4.992  13.019  19.180  0.00  0.00    +0.000 C 
ENDBRANCH  23  24
ENDBRANCH  11  23
TORSDOF 5
ENDMDL
MODEL 9
REMARK VINA RESULT:      -6.3      3.139      7.816
REMARK  Name = 
REMARK  7 active torsions:
REMARK  status: ('A' for Active; 'I' for Inactive)
REMARK    1  A    between atoms: C_1  and  O_2
REMARK    2  A    between atoms: O_2  and  C_3
REMARK    3  A    between atoms: C_5  and  O_6
REMARK    4  A    between atoms: O_6  and  C_7
REMARK    5  A    between atoms: C_12  and  C_13
REMARK    6  A    between atoms: C_22  and  C_23
REMARK    7  A    between atoms: C_23  and  N_24
REMARK                            x       y       z     vdW  Elec       q    Type
REMARK                         _______ _______ _______ _____ _____    ______ ____
ROOT
ATOM      1  C   UNL     1      -0.221  10.519  18.466  0.00  0.00    +0.000 A 
ATOM      2  C   UNL     1      -1.001  10.003  17.436  0.00  0.00    +0.000 A 
ATOM      3  C   UNL     1      -2.379  10.263  17.312  0.00  0.00    +0.000 A 
ATOM      4  C   UNL     1      -3.007  11.052  18.297  0.00  0.00    +0.000 A 
ATOM      5  C   UNL     1      -4.451  11.430  18.291  0.00  0.00    +0.000 A 
ATOM      6  O   UNL     1      -5.296  11.048  17.498  0.00  0.00    +0.000 OA
ATOM      7  C   UNL     1      -4.921  12.332  19.335  0.00  0.00    +0.000 A 
ATOM      8  C   UNL     1      -4.095  12.718  20.301  0.00  0.00    +0.000 A 
ATOM      9  O   UNL     1      -2.765  12.352  20.387  0.00  0.00    +0.000 OA
ATOM     10  C   UNL     1      -2.221  11.563  19.375  0.00  0.00    +0.000 A 
ATOM     11  C   UNL     1      -0.821  11.316  19.457  0.00  0.00    +0.000 A 
ENDROOT
BRANCH   8  12
ATOM     12  C   UNL     1      -4.669  13.541  21.378  0.00  0.00    +0.000 A 
ATOM     13  C   UNL     1      -5.819  13.062  22.038  0.00  0.00    +0.000 A 
ATOM     14  C   UNL     1      -6.534  13.881  22.921  0.00  0.00    +0.000 A 
ATOM     15  C   UNL     1      -6.115  15.186  23.165  0.00  0.00    +0.000 A 
ATOM     16  C   UNL     1      -4.976  15.674  22.526  0.00  0.00    +0.000 A 
ATOM     17  C   UNL     1      -4.259  14.862  21.635  0.00  0.00    +0.000 A 
ATOM     18 CL   UNL     1      -2.904  15.567  20.823  0.00  0.00    +0.000 Cl
ENDBRANCH   8  12
BRANCH   1  20
ATOM     19  C   UNL     1       1.677   9.219  17.826  0.00  0.00    +0.000 C 
ATOM     20  O   UNL     1       1.129  10.301  18.571  0.00  0.00    +0.000 OA
ENDBRANCH   1  20
BRANCH   3  21
ATOM     21  O   UNL     1      -2.803   9.660  16.163  0.00  0.00    +0.000 OA
ATOM     22  C   UNL     1      -3.044  10.325  14.943  0.00  0.00    +0.000 C 
ENDBRANCH   3  21
BRANCH  11  23
ATOM     23  C   UNL     1       0.083  12.015  20.464  0.00  0.00    +0.000 C 
BRANCH  23  24
ATOM     24  N   UNL     1       0.110  13.494  20.412  0.00  0.00    +0.000 NA
ATOM     25  C   UNL     1       0.401  14.013  19.063  0.00  0.00    +0.000 C 
ATOM     26  C   UNL     1       1.823  13.676  18.574  0.00  0.00    +0.000 C 
ATOM     27  O   UNL     1       2.832  14.119  19.495  0.00  0.00    +0.000 OA
ATOM     28  C   UNL     1       2.591  13.654  20.829  0.00  0.00    +0.000 C 
ATOM     29  C   UNL     1       1.175  14.022  21.306  0.00  0.00    +0.000 C 
ENDBRANCH  23  24
ENDBRANCH  11  23
TORSDOF 5
ENDMDL
