MODEL 1
REMARK VINA RESULT:      -6.6      0.000      0.000
REMARK  Name = 
REMARK  6 active torsions:
REMARK  status: ('A' for Active; 'I' for Inactive)
REMARK    1  A    between atoms: C_1  and  N_2
REMARK    2  A    between atoms: N_2  and  C_3
REMARK    3  A    between atoms: N_2  and  C_4
REMARK    4  A    between atoms: C_7  and  C_8
REMARK    5  A    between atoms: N_9  and  C_10
REMARK    6  A    between atoms: C_15  and  O_16
REMARK                            x       y       z     vdW  Elec       q    Type
REMARK                         _______ _______ _______ _____ _____    ______ ____
ROOT
ATOM      1  C   UNL     1       8.438   9.101  18.012  0.00  0.00    +0.000 C 
ATOM      2  N   UNL     1       8.969   9.508  19.121  0.00  0.00    +0.000 NA
ENDROOT
BRANCH   1   6
ATOM      3  C   UNL     1       6.172   5.426  17.866  0.00  0.00    +0.000 A 
ATOM      4  C   UNL     1       5.803   6.554  17.113  0.00  0.00    +0.000 A 
ATOM      5  C   UNL     1       6.528   7.751  17.155  0.00  0.00    +0.000 A 
ATOM      6  C   UNL     1       7.661   7.847  17.955  0.00  0.00    +0.000 A 
ATOM      7  C   UNL     1       8.079   6.746  18.695  0.00  0.00    +0.000 A 
ATOM      8  C   UNL     1       7.341   5.555  18.643  0.00  0.00    +0.000 A 
BRANCH   3  10
ATOM      9  C   UNL     1       4.880   3.764  16.568  0.00  0.00    +0.000 C 
ATOM     10  N   UNL     1       5.439   4.239  17.829  0.00  0.00    +0.000 N 
ATOM     11  C   UNL     1       4.859   3.707  19.056  0.00  0.00    +0.000 C 
ENDBRANCH   3  10
ENDBRANCH   1   6
BRANCH   2  12
ATOM     12  C   UNL     1       9.653  10.739  19.152  0.00  0.00    +0.000 A 
ATOM     13  C   UNL     1      10.168  11.203  17.935  0.00  0.00    +0.000 A 
ATOM     14  C   UNL     1      10.947  12.364  17.875  0.00  0.00    +0.000 A 
ATOM     15  C   UNL     1      11.221  13.079  19.039  0.00  0.00    +0.000 A 
ATOM     16  C   UNL     1      10.719  12.634  20.261  0.00  0.00    +0.000 A 
ATOM     17  C   UNL     1       9.949  11.470  20.316  0.00  0.00    +0.000 A 
BRANCH  17  18
ATOM     18  O   UNL     1       9.496  11.031  21.537  0.00  0.00    +0.000 OA
ATOM     19  H   UNL     1       8.761  10.416  21.395  0.00  0.00    +0.000 HD
ENDBRANCH  17  18
ENDBRANCH   2  12
TORSDOF 4
ENDMDL
MODEL 2
REMARK VINA RESULT:      -6.6      0.077      1.132
REMARK  Name = 
REMARK  6 active torsions:
REMARK  status: ('A' for Active; 'I' for Inactive)
REMARK    1  A    between atoms: C_1  and  N_2
REMARK    2  A    between atoms: N_2  and  C_3
REMARK    3  A    between atoms: N_2  and  C_4
REMARK    4  A    between atoms: C_7  and  C_8
REMARK    5  A    between atoms: N_9  and  C_10
REMARK    6  A    between atoms: C_15  and  O_16
REMARK                            x       y       z     vdW  Elec       q    Type
REMARK                         _______ _______ _______ _____ _____    ______ ____
ROOT
ATOM      1  C   UNL     1       8.450   9.020  18.024  0.00  0.00    +0.000 C 
ATOM      2  N   UNL     1       8.884   9.492  19.149  0.00  0.00    +0.000 NA
ENDROOT
BRANCH   1   6
ATOM      3  C   UNL     1       6.132   5.378  17.861  0.00  0.00    +0.000 A 
ATOM      4  C   UNL     1       7.298   5.480  18.641  0.00  0.00    +0.000 A 
ATOM      5  C   UNL     1       8.058   6.654  18.699  0.00  0.00    +0.000 A 
ATOM      6  C   UNL     1       7.661   7.773  17.975  0.00  0.00    +0.000 A 
ATOM      7  C   UNL     1       6.498   7.726  17.213  0.00  0.00    +0.000 A 
ATOM      8  C   UNL     1       5.748   6.542  17.165  0.00  0.00    +0.000 A 
BRANCH   3  10
ATOM      9  C   UNL     1       4.856   3.738  16.520  0.00  0.00    +0.000 C 
ATOM     10  N   UNL     1       5.384   4.202  17.799  0.00  0.00    +0.000 N 
ATOM     11  C   UNL     1       4.760   3.675  19.006  0.00  0.00    +0.000 C 
ENDBRANCH   3  10
ENDBRANCH   1   6
BRANCH   2  12
ATOM     12  C   UNL     1       9.582  10.716  19.163  0.00  0.00    +0.000 A 
ATOM     13  C   UNL     1      10.082  11.170  17.937  0.00  0.00    +0.000 A 
ATOM     14  C   UNL     1      10.873  12.322  17.860  0.00  0.00    +0.000 A 
ATOM     15  C   UNL     1      11.174  13.037  19.016  0.00  0.00    +0.000 A 
ATOM     16  C   UNL     1      10.688  12.602  20.249  0.00  0.00    +0.000 A 
ATOM     17  C   UNL     1       9.906  11.447  20.320  0.00  0.00    +0.000 A 
BRANCH  17  18
ATOM     18  O   UNL     1       9.468  11.018  21.550  0.00  0.00    +0.000 OA
ATOM     19  H   UNL     1       8.501  10.966  21.537  0.00  0.00    +0.000 HD
ENDBRANCH  17  18
ENDBRANCH   2  12
TORSDOF 4
ENDMDL
MODEL 3
REMARK VINA RESULT:      -6.6      2.119      7.586
REMARK  Name = 
REMARK  6 active torsions:
REMARK  status: ('A' for Active; 'I' for Inactive)
REMARK    1  A    between atoms: C_1  and  N_2
REMARK    2  A    between atoms: N_2  and  C_3
REMARK    3  A    between atoms: N_2  and  C_4
REMARK    4  A    between atoms: C_7  and  C_8
REMARK    5  A    between atoms: N_9  and  C_10
REMARK    6  A    between atoms: C_15  and  O_16
REMARK                            x       y       z     vdW  Elec       q    Type
REMARK                         _______ _______ _______ _____ _____    ______ ____
ROOT
ATOM      1  C   UNL     1       8.184   9.132  18.093  0.00  0.00    +0.000 C 
ATOM      2  N   UNL     1       8.421   7.987  18.651  0.00  0.00    +0.000 NA
ENDROOT
BRANCH   1   6
ATOM      3  C   UNL     1      10.255  12.694  19.391  0.00  0.00    +0.000 A 
ATOM      4  C   UNL     1       9.541  12.651  18.180  0.00  0.00    +0.000 A 
ATOM      5  C   UNL     1       8.869  11.502  17.748  0.00  0.00    +0.000 A 
ATOM      6  C   UNL     1       8.887  10.353  18.532  0.00  0.00    +0.000 A 
ATOM      7  C   UNL     1       9.556  10.359  19.751  0.00  0.00    +0.000 A 
ATOM      8  C   UNL     1      10.226  11.519  20.168  0.00  0.00    +0.000 A 
BRANCH   3  10
ATOM      9  C   UNL     1      12.329  14.042  19.436  0.00  0.00    +0.000 C 
ATOM     10  N   UNL     1      10.933  13.838  19.811  0.00  0.00    +0.000 N 
ATOM     11  C   UNL     1      10.434  14.599  20.950  0.00  0.00    +0.000 C 
ENDBRANCH   3  10
ENDBRANCH   1   6
BRANCH   2  12
ATOM     12  C   UNL     1       7.776   6.833  18.166  0.00  0.00    +0.000 A 
ATOM     13  C   UNL     1       7.267   6.896  16.863  0.00  0.00    +0.000 A 
ATOM     14  C   UNL     1       6.523   5.840  16.324  0.00  0.00    +0.000 A 
ATOM     15  C   UNL     1       6.280   4.701  17.088  0.00  0.00    +0.000 A 
ATOM     16  C   UNL     1       6.776   4.617  18.388  0.00  0.00    +0.000 A 
ATOM     17  C   UNL     1       7.511   5.678  18.923  0.00  0.00    +0.000 A 
BRANCH  17  18
ATOM     18  O   UNL     1       7.958   5.587  20.219  0.00  0.00    +0.000 OA
ATOM     19  H   UNL     1       8.036   4.652  20.458  0.00  0.00    +0.000 HD
ENDBRANCH  17  18
ENDBRANCH   2  12
TORSDOF 4
ENDMDL
MODEL 4
REMARK VINA RESULT:      -6.4      6.091      8.607
REMARK  Name = 
REMARK  6 active torsions:
REMARK  status: ('A' for Active; 'I' for Inactive)
REMARK    1  A    between atoms: C_1  and  N_2
REMARK    2  A    between atoms: N_2  and  C_3
REMARK    3  A    between atoms: N_2  and  C_4
REMARK    4  A    between atoms: C_7  and  C_8
REMARK    5  A    between atoms: N_9  and  C_10
REMARK    6  A    between atoms: C_15  and  O_16
REMARK                            x       y       z     vdW  Elec       q    Type
REMARK                         _______ _______ _______ _____ _____    ______ ____
ROOT
ATOM      1  C   UNL     1       4.603   4.185  17.838  0.00  0.00    +0.000 C 
ATOM      2  N   UNL     1       3.808   3.176  18.007  0.00  0.00    +0.000 NA
ENDROOT
BRANCH   1   6
ATOM      3  C   UNL     1       6.861   4.643  14.183  0.00  0.00    +0.000 A 
ATOM      4  C   UNL     1       7.417   4.939  15.440  0.00  0.00    +0.000 A 
ATOM      5  C   UNL     1       6.694   4.798  16.630  0.00  0.00    +0.000 A 
ATOM      6  C   UNL     1       5.381   4.340  16.593  0.00  0.00    +0.000 A 
ATOM      7  C   UNL     1       4.800   4.007  15.374  0.00  0.00    +0.000 A 
ATOM      8  C   UNL     1       5.538   4.156  14.191  0.00  0.00    +0.000 A 
BRANCH   3  10
ATOM      9  C   UNL     1       8.502   5.918  12.844  0.00  0.00    +0.000 C 
ATOM     10  N   UNL     1       7.582   4.796  12.999  0.00  0.00    +0.000 N 
ATOM     11  C   UNL     1       7.125   4.138  11.782  0.00  0.00    +0.000 C 
ENDBRANCH   3  10
ENDBRANCH   1   6
BRANCH   2  12
ATOM     12  C   UNL     1       3.036   3.091  19.183  0.00  0.00    +0.000 A 
ATOM     13  C   UNL     1       1.762   3.672  19.142  0.00  0.00    +0.000 A 
ATOM     14  C   UNL     1       0.957   3.729  20.285  0.00  0.00    +0.000 A 
ATOM     15  C   UNL     1       1.419   3.202  21.489  0.00  0.00    +0.000 A 
ATOM     16  C   UNL     1       2.685   2.621  21.552  0.00  0.00    +0.000 A 
ATOM     17  C   UNL     1       3.488   2.574  20.410  0.00  0.00    +0.000 A 
BRANCH  17  18
ATOM     18  O   UNL     1       4.745   2.029  20.505  0.00  0.00    +0.000 OA
ATOM     19  H   UNL     1       4.729   1.317  21.162  0.00  0.00    +0.000 HD
ENDBRANCH  17  18
ENDBRANCH   2  12
TORSDOF 4
ENDMDL
MODEL 5
REMARK VINA RESULT:      -6.4      1.528      2.060
REMARK  Name = 
REMARK  6 active torsions:
REMARK  status: ('A' for Active; 'I' for Inactive)
REMARK    1  A    between atoms: C_1  and  N_2
REMARK    2  A    between atoms: N_2  and  C_3
REMARK    3  A    between atoms: N_2  and  C_4
REMARK    4  A    between atoms: C_7  and  C_8
REMARK    5  A    between atoms: N_9  and  C_10
REMARK    6  A    between atoms: C_15  and  O_16
REMARK                            x       y       z     vdW  Elec       q    Type
REMARK                         _______ _______ _______ _____ _____    ______ ____
ROOT
ATOM      1  C   UNL     1       8.677   8.958  18.572  0.00  0.00    +0.000 C 
ATOM      2  N   UNL     1       8.475  10.086  17.968  0.00  0.00    +0.000 NA
ENDROOT
BRANCH   1   6
ATOM      3  C   UNL     1       6.493   5.414  17.419  0.00  0.00    +0.000 A 
ATOM      4  C   UNL     1       7.428   5.399  18.469  0.00  0.00    +0.000 A 
ATOM      5  C   UNL     1       8.144   6.540  18.848  0.00  0.00    +0.000 A 
ATOM      6  C   UNL     1       7.932   7.744  18.185  0.00  0.00    +0.000 A 
ATOM      7  C   UNL     1       6.994   7.812  17.160  0.00  0.00    +0.000 A 
ATOM      8  C   UNL     1       6.286   6.658  16.791  0.00  0.00    +0.000 A 
BRANCH   3  10
ATOM      9  C   UNL     1       5.901   3.765  15.672  0.00  0.00    +0.000 C 
ATOM     10  N   UNL     1       5.790   4.271  17.037  0.00  0.00    +0.000 N 
ATOM     11  C   UNL     1       4.637   3.835  17.815  0.00  0.00    +0.000 C 
ENDBRANCH   3  10
ENDBRANCH   1   6
BRANCH   2  12
ATOM     12  C   UNL     1       9.248  11.210  18.323  0.00  0.00    +0.000 A 
ATOM     13  C   UNL     1      10.258  11.006  19.271  0.00  0.00    +0.000 A 
ATOM     14  C   UNL     1      11.015  12.074  19.764  0.00  0.00    +0.000 A 
ATOM     15  C   UNL     1      10.768  13.368  19.310  0.00  0.00    +0.000 A 
ATOM     16  C   UNL     1       9.766  13.595  18.368  0.00  0.00    +0.000 A 
ATOM     17  C   UNL     1       9.008  12.525  17.886  0.00  0.00    +0.000 A 
BRANCH  17  18
ATOM     18  O   UNL     1       8.002  12.777  16.985  0.00  0.00    +0.000 OA
ATOM     19  H   UNL     1       7.235  13.126  17.462  0.00  0.00    +0.000 HD
ENDBRANCH  17  18
ENDBRANCH   2  12
TORSDOF 4
ENDMDL
MODEL 6
REMARK VINA RESULT:      -6.4      1.470      1.682
REMARK  Name = 
REMARK  6 active torsions:
REMARK  status: ('A' for Active; 'I' for Inactive)
REMARK    1  A    between atoms: C_1  and  N_2
REMARK    2  A    between atoms: N_2  and  C_3
REMARK    3  A    between atoms: N_2  and  C_4
REMARK    4  A    between atoms: C_7  and  C_8
REMARK    5  A    between atoms: N_9  and  C_10
REMARK    6  A    between atoms: C_15  and  O_16
REMARK                            x       y       z     vdW  Elec       q    Type
REMARK                         _______ _______ _______ _____ _____    ______ ____
ROOT
ATOM      1  C   UNL     1       8.684   8.875  18.302  0.00  0.00    +0.000 C 
ATOM      2  N   UNL     1       8.238  10.069  18.074  0.00  0.00    +0.000 NA
ENDROOT
BRANCH   1   6
ATOM      3  C   UNL     1       6.162   5.405  17.794  0.00  0.00    +0.000 A 
ATOM      4  C   UNL     1       5.946   6.590  17.069  0.00  0.00    +0.000 A 
ATOM      5  C   UNL     1       6.755   7.721  17.227  0.00  0.00    +0.000 A 
ATOM      6  C   UNL     1       7.820   7.692  18.121  0.00  0.00    +0.000 A 
ATOM      7  C   UNL     1       8.088   6.530  18.837  0.00  0.00    +0.000 A 
ATOM      8  C   UNL     1       7.267   5.406  18.668  0.00  0.00    +0.000 A 
BRANCH   3  10
ATOM      9  C   UNL     1       4.819   3.938  16.323  0.00  0.00    +0.000 C 
ATOM     10  N   UNL     1       5.345   4.284  17.640  0.00  0.00    +0.000 N 
ATOM     11  C   UNL     1       4.664   3.719  18.798  0.00  0.00    +0.000 C 
ENDBRANCH   3  10
ENDBRANCH   1   6
BRANCH   2  12
ATOM     12  C   UNL     1       9.108  11.170  18.199  0.00  0.00    +0.000 A 
ATOM     13  C   UNL     1      10.243  10.988  18.999  0.00  0.00    +0.000 A 
ATOM     14  C   UNL     1      11.117  12.047  19.267  0.00  0.00    +0.000 A 
ATOM     15  C   UNL     1      10.864  13.309  18.735  0.00  0.00    +0.000 A 
ATOM     16  C   UNL     1       9.739  13.514  17.937  0.00  0.00    +0.000 A 
ATOM     17  C   UNL     1       8.865  12.454  17.680  0.00  0.00    +0.000 A 
BRANCH  17  18
ATOM     18  O   UNL     1       7.744  12.689  16.922  0.00  0.00    +0.000 OA
ATOM     19  H   UNL     1       6.973  12.726  17.506  0.00  0.00    +0.000 HD
ENDBRANCH  17  18
ENDBRANCH   2  12
TORSDOF 4
ENDMDL
MODEL 7
REMARK VINA RESULT:      -6.3      5.560      7.591
REMARK  Name = 
REMARK  6 active torsions:
REMARK  status: ('A' for Active; 'I' for Inactive)
REMARK    1  A    between atoms: C_1  and  N_2
REMARK    2  A    between atoms: N_2  and  C_3
REMARK    3  A    between atoms: N_2  and  C_4
REMARK    4  A    between atoms: C_7  and  C_8
REMARK    5  A    between atoms: N_9  and  C_10
REMARK    6  A    between atoms: C_15  and  O_16
REMARK                            x       y       z     vdW  Elec       q    Type
REMARK                         _______ _______ _______ _____ _____    ______ ____
ROOT
ATOM      1  C   UNL     1       3.548   7.401  17.606  0.00  0.00    +0.000 C 
ATOM      2  N   UNL     1       4.227   6.400  18.070  0.00  0.00    +0.000 NA
ENDROOT
BRANCH   1   6
ATOM      3  C   UNL     1       0.594   9.391  20.052  0.00  0.00    +0.000 A 
ATOM      4  C   UNL     1       0.912   9.843  18.758  0.00  0.00    +0.000 A 
ATOM      5  C   UNL     1       1.869   9.208  17.959  0.00  0.00    +0.000 A 
ATOM      6  C   UNL     1       2.535   8.084  18.435  0.00  0.00    +0.000 A 
ATOM      7  C   UNL     1       2.232   7.585  19.697  0.00  0.00    +0.000 A 
ATOM      8  C   UNL     1       1.271   8.234  20.487  0.00  0.00    +0.000 A 
BRANCH   3  10
ATOM      9  C   UNL     1      -0.997  11.256  20.378  0.00  0.00    +0.000 C 
ATOM     10  N   UNL     1      -0.353  10.034  20.849  0.00  0.00    +0.000 N 
ATOM     11  C   UNL     1      -0.390   9.774  22.283  0.00  0.00    +0.000 C 
ENDBRANCH   3  10
ENDBRANCH   1   6
BRANCH   2  12
ATOM     12  C   UNL     1       5.227   5.811  17.272  0.00  0.00    +0.000 A 
ATOM     13  C   UNL     1       5.061   5.904  15.884  0.00  0.00    +0.000 A 
ATOM     14  C   UNL     1       5.944   5.268  15.006  0.00  0.00    +0.000 A 
ATOM     15  C   UNL     1       7.012   4.527  15.508  0.00  0.00    +0.000 A 
ATOM     16  C   UNL     1       7.196   4.420  16.886  0.00  0.00    +0.000 A 
ATOM     17  C   UNL     1       6.305   5.051  17.759  0.00  0.00    +0.000 A 
BRANCH  17  18
ATOM     18  O   UNL     1       6.485   4.901  19.112  0.00  0.00    +0.000 OA
ATOM     19  H   UNL     1       6.546   5.778  19.519  0.00  0.00    +0.000 HD
ENDBRANCH  17  18
ENDBRANCH   2  12
TORSDOF 4
ENDMDL
MODEL 8
REMARK VINA RESULT:      -6.3      2.156      7.718
REMARK  Name = 
REMARK  6 active torsions:
REMARK  status: ('A' for Active; 'I' for Inactive)
REMARK    1  A    between atoms: C_1  and  N_2
REMARK    2  A    between atoms: N_2  and  C_3
REMARK    3  A    between atoms: N_2  and  C_4
REMARK    4  A    between atoms: C_7  and  C_8
REMARK    5  A    between atoms: N_9  and  C_10
REMARK    6  A    between atoms: C_15  and  O_16
REMARK                            x       y       z     vdW  Elec       q    Type
REMARK                         _______ _______ _______ _____ _____    ______ ____
ROOT
ATOM      1  C   UNL     1       8.456   9.229  18.123  0.00  0.00    +0.000 C 
ATOM      2  N   UNL     1       8.406   8.142  18.825  0.00  0.00    +0.000 NA
ENDROOT
BRANCH   1   6
ATOM      3  C   UNL     1      10.169  12.859  19.722  0.00  0.00    +0.000 A 
ATOM      4  C   UNL     1      10.068  11.685  20.490  0.00  0.00    +0.000 A 
ATOM      5  C   UNL     1       9.512  10.505  19.984  0.00  0.00    +0.000 A 
ATOM      6  C   UNL     1       9.045  10.465  18.674  0.00  0.00    +0.000 A 
ATOM      7  C   UNL     1       9.151  11.594  17.869  0.00  0.00    +0.000 A 
ATOM      8  C   UNL     1       9.710  12.769  18.392  0.00  0.00    +0.000 A 
BRANCH   3  10
ATOM      9  C   UNL     1      10.288  14.530  21.540  0.00  0.00    +0.000 C 
ATOM     10  N   UNL     1      10.714  14.036  20.235  0.00  0.00    +0.000 N 
ATOM     11  C   UNL     1      11.349  14.992  19.337  0.00  0.00    +0.000 C 
ENDBRANCH   3  10
ENDBRANCH   1   6
BRANCH   2  12
ATOM     12  C   UNL     1       7.891   6.966  18.244  0.00  0.00    +0.000 A 
ATOM     13  C   UNL     1       7.255   7.101  17.004  0.00  0.00    +0.000 A 
ATOM     14  C   UNL     1       6.624   6.013  16.391  0.00  0.00    +0.000 A 
ATOM     15  C   UNL     1       6.623   4.768  17.016  0.00  0.00    +0.000 A 
ATOM     16  C   UNL     1       7.248   4.611  18.253  0.00  0.00    +0.000 A 
ATOM     17  C   UNL     1       7.869   5.703  18.863  0.00  0.00    +0.000 A 
BRANCH  17  18
ATOM     18  O   UNL     1       8.447   5.532  20.098  0.00  0.00    +0.000 OA
ATOM     19  H   UNL     1       8.099   6.204  20.702  0.00  0.00    +0.000 HD
ENDBRANCH  17  18
ENDBRANCH   2  12
TORSDOF 4
ENDMDL
MODEL 9
REMARK VINA RESULT:      -6.3      6.068      8.552
REMARK  Name = 
REMARK  6 active torsions:
REMARK  status: ('A' for Active; 'I' for Inactive)
REMARK    1  A    between atoms: C_1  and  N_2
REMARK    2  A    between atoms: N_2  and  C_3
REMARK    3  A    between atoms: N_2  and  C_4
REMARK    4  A    between atoms: C_7  and  C_8
REMARK    5  A    between atoms: N_9  and  C_10
REMARK    6  A    between atoms: C_15  and  O_16
REMARK                            x       y       z     vdW  Elec       q    Type
REMARK                         _______ _______ _______ _____ _____    ______ ____
ROOT
ATOM      1  C   UNL     1       4.579   4.175  17.848  0.00  0.00    +0.000 C 
ATOM      2  N   UNL     1       3.763   3.181  18.002  0.00  0.00    +0.000 NA
ENDROOT
BRANCH   1   6
ATOM      3  C   UNL     1       6.732   4.751  14.147  0.00  0.00    +0.000 A 
ATOM      4  C   UNL     1       5.419   4.247  14.170  0.00  0.00    +0.000 A 
ATOM      5  C   UNL     1       4.714   4.053  15.363  0.00  0.00    +0.000 A 
ATOM      6  C   UNL     1       5.308   4.372  16.580  0.00  0.00    +0.000 A 
ATOM      7  C   UNL     1       6.594   4.901  16.602  0.00  0.00    +0.000 A 
ATOM      8  C   UNL     1       7.288   5.088  15.397  0.00  0.00    +0.000 A 
BRANCH   3  10
ATOM      9  C   UNL     1       7.267   3.986  11.857  0.00  0.00    +0.000 C 
ATOM     10  N   UNL     1       7.434   4.932  12.956  0.00  0.00    +0.000 N 
ATOM     11  C   UNL     1       8.631   5.765  12.939  0.00  0.00    +0.000 C 
ENDBRANCH   3  10
ENDBRANCH   1   6
BRANCH   2  12
ATOM     12  C   UNL     1       3.040   3.058  19.205  0.00  0.00    +0.000 A 
ATOM     13  C   UNL     1       1.766   3.638  19.236  0.00  0.00    +0.000 A 
ATOM     14  C   UNL     1       1.008   3.658  20.412  0.00  0.00    +0.000 A 
ATOM     15  C   UNL     1       1.519   3.093  21.578  0.00  0.00    +0.000 A 
ATOM     16  C   UNL     1       2.786   2.511  21.571  0.00  0.00    +0.000 A 
ATOM     17  C   UNL     1       3.542   2.502  20.395  0.00  0.00    +0.000 A 
BRANCH  17  18
ATOM     18  O   UNL     1       4.802   1.955  20.421  0.00  0.00    +0.000 OA
ATOM     19  H   UNL     1       4.911   1.384  19.647  0.00  0.00    +0.000 HD
ENDBRANCH  17  18
ENDBRANCH   2  12
TORSDOF 4
ENDMDL
