MODEL 1
REMARK VINA RESULT:      -8.7      0.000      0.000
REMARK  Name = 
REMARK  7 active torsions:
REMARK  status: ('A' for Active; 'I' for Inactive)
REMARK    1  A    between atoms: C_1  and  O_2
REMARK    2  A    between atoms: O_2  and  C_3
REMARK    3  A    between atoms: C_6  and  C_7
REMARK    4  A    between atoms: C_7  and  C_8
REMARK    5  A    between atoms: C_8  and  C_9
REMARK    6  A    between atoms: C_26  and  O_27
REMARK    7  A    between atoms: O_27  and  C_28
REMARK                            x       y       z     vdW  Elec       q    Type
REMARK                         _______ _______ _______ _____ _____    ______ ____
ROOT
ATOM      1  C   UNL     1       0.843  10.339  19.415  0.00  0.00    +0.000 C 
ATOM      2  C   UNL     1      -0.652  10.377  18.910  0.00  0.00    +0.000 C 
ATOM      3  O   UNL     1      -1.110   9.916  17.876  0.00  0.00    +0.000 OA
ATOM      4  N   UNL     1      -1.350  11.221  19.770  0.00  0.00    +0.000 N 
ATOM      5  C   UNL     1      -0.761  11.143  21.024  0.00  0.00    +0.000 A 
ATOM      6  C   UNL     1      -1.493  11.332  22.182  0.00  0.00    +0.000 A 
ATOM      7  C   UNL     1      -1.135  10.559  23.275  0.00  0.00    +0.000 A 
ATOM      8  C   UNL     1      -0.053   9.667  23.168  0.00  0.00    +0.000 A 
ATOM      9  C   UNL     1       0.762   9.621  22.010  0.00  0.00    +0.000 A 
ATOM     10  C   UNL     1       0.444  10.428  20.917  0.00  0.00    +0.000 A 
ATOM     11  H   UNL     1      -2.310  11.490  19.610  0.00  0.00    +0.000 HD
ENDROOT
BRANCH   1  15
ATOM     12  C   UNL     1       3.195   6.827  18.140  0.00  0.00    +0.000 A 
ATOM     13  C   UNL     1       2.945   7.909  17.282  0.00  0.00    +0.000 A 
ATOM     14  C   UNL     1       2.207   9.026  17.697  0.00  0.00    +0.000 A 
ATOM     15  C   UNL     1       1.630   9.086  18.973  0.00  0.00    +0.000 A 
ATOM     16  C   UNL     1       1.827   7.945  19.794  0.00  0.00    +0.000 A 
ATOM     17  C   UNL     1       2.618   6.826  19.412  0.00  0.00    +0.000 A 
BRANCH  12  19
ATOM     18  C   UNL     1       5.328   6.022  17.526  0.00  0.00    +0.000 C 
ATOM     19  O   UNL     1       3.942   5.757  17.729  0.00  0.00    +0.000 OA
ENDBRANCH  12  19
BRANCH  17  20
ATOM     20  O   UNL     1       2.703   5.848  20.377  0.00  0.00    +0.000 OA
BRANCH  20  21
ATOM     21  C   UNL     1       1.652   4.889  20.568  0.00  0.00    +0.000 C 
ATOM     22  C   UNL     1       1.350   4.085  19.304  0.00  0.00    +0.000 C 
ATOM     23  C   UNL     1       0.799   2.748  19.782  0.00  0.00    +0.000 C 
ATOM     24  C   UNL     1       1.383   2.520  21.170  0.00  0.00    +0.000 C 
ATOM     25  C   UNL     1       2.126   3.801  21.546  0.00  0.00    +0.000 C 
ENDBRANCH  20  21
ENDBRANCH  17  20
ENDBRANCH   1  15
BRANCH   1  26
ATOM     26  C   UNL     1       1.179  11.670  18.592  0.00  0.00    +0.000 C 
BRANCH  26  27
ATOM     27  C   UNL     1       1.684  13.048  18.900  0.00  0.00    +0.000 A 
ATOM     28  C   UNL     1       2.966  13.333  18.366  0.00  0.00    +0.000 A 
ATOM     29  C   UNL     1       3.532  14.593  18.479  0.00  0.00    +0.000 A 
ATOM     30  N   UNL     1       2.856  15.601  19.122  0.00  0.00    +0.000 N 
ATOM     31  O   UNL     1       3.365  16.756  19.225  0.00  0.00    +0.000 OA
ATOM     32  C   UNL     1       1.594  15.320  19.644  0.00  0.00    +0.000 A 
ATOM     33  C   UNL     1       0.987  14.061  19.533  0.00  0.00    +0.000 A 
ENDBRANCH  26  27
ENDBRANCH   1  26
TORSDOF 6
ENDMDL
MODEL 2
REMARK VINA RESULT:      -8.3      2.112      4.201
REMARK  Name = 
REMARK  7 active torsions:
REMARK  status: ('A' for Active; 'I' for Inactive)
REMARK    1  A    between atoms: C_1  and  O_2
REMARK    2  A    between atoms: O_2  and  C_3
REMARK    3  A    between atoms: C_6  and  C_7
REMARK    4  A    between atoms: C_7  and  C_8
REMARK    5  A    between atoms: C_8  and  C_9
REMARK    6  A    between atoms: C_26  and  O_27
REMARK    7  A    between atoms: O_27  and  C_28
REMARK                            x       y       z     vdW  Elec       q    Type
REMARK                         _______ _______ _______ _____ _____    ______ ____
ROOT
ATOM      1  C   UNL     1       0.798  10.370  19.375  0.00  0.00    +0.000 C 
ATOM      2  C   UNL     1       0.872  10.702  20.917  0.00  0.00    +0.000 C 
ATOM      3  O   UNL     1       0.992   9.924  21.851  0.00  0.00    +0.000 OA
ATOM      4  N   UNL     1       0.571  12.054  21.056  0.00  0.00    +0.000 N 
ATOM      5  C   UNL     1       0.994  12.711  19.909  0.00  0.00    +0.000 A 
ATOM      6  C   UNL     1       1.404  14.032  19.940  0.00  0.00    +0.000 A 
ATOM      7  C   UNL     1       2.442  14.379  19.091  0.00  0.00    +0.000 A 
ATOM      8  C   UNL     1       2.994  13.407  18.238  0.00  0.00    +0.000 A 
ATOM      9  C   UNL     1       2.438  12.108  18.132  0.00  0.00    +0.000 A 
ATOM     10  C   UNL     1       1.361  11.756  18.947  0.00  0.00    +0.000 A 
ATOM     11  H   UNL     1       0.458  12.498  21.956  0.00  0.00    +0.000 HD
ENDROOT
BRANCH   1  15
ATOM     12  C   UNL     1       3.218   6.881  18.167  0.00  0.00    +0.000 A 
ATOM     13  C   UNL     1       2.969   7.953  17.297  0.00  0.00    +0.000 A 
ATOM     14  C   UNL     1       2.209   9.063  17.691  0.00  0.00    +0.000 A 
ATOM     15  C   UNL     1       1.609   9.124  18.956  0.00  0.00    +0.000 A 
ATOM     16  C   UNL     1       1.807   7.992  19.789  0.00  0.00    +0.000 A 
ATOM     17  C   UNL     1       2.619   6.881  19.429  0.00  0.00    +0.000 A 
BRANCH  12  19
ATOM     18  C   UNL     1       5.395   6.030  17.832  0.00  0.00    +0.000 C 
ATOM     19  O   UNL     1       3.986   5.818  17.777  0.00  0.00    +0.000 OA
ENDBRANCH  12  19
BRANCH  17  20
ATOM     20  O   UNL     1       2.700   5.911  20.403  0.00  0.00    +0.000 OA
BRANCH  20  21
ATOM     21  C   UNL     1       1.658   4.940  20.583  0.00  0.00    +0.000 C 
ATOM     22  C   UNL     1       1.351   4.160  19.306  0.00  0.00    +0.000 C 
ATOM     23  C   UNL     1       0.815   2.809  19.760  0.00  0.00    +0.000 C 
ATOM     24  C   UNL     1       1.414   2.557  21.137  0.00  0.00    +0.000 C 
ATOM     25  C   UNL     1       2.150   3.836  21.533  0.00  0.00    +0.000 C 
ENDBRANCH  20  21
ENDBRANCH  17  20
ENDBRANCH   1  15
BRANCH   1  26
ATOM     26  C   UNL     1      -0.783  10.140  19.478  0.00  0.00    +0.000 C 
BRANCH  26  27
ATOM     27  C   UNL     1      -2.016  10.731  18.861  0.00  0.00    +0.000 A 
ATOM     28  C   UNL     1      -2.532   9.994  17.766  0.00  0.00    +0.000 A 
ATOM     29  C   UNL     1      -3.720  10.352  17.149  0.00  0.00    +0.000 A 
ATOM     30  N   UNL     1      -4.426  11.446  17.588  0.00  0.00    +0.000 N 
ATOM     31  O   UNL     1      -5.514  11.777  17.032  0.00  0.00    +0.000 OA
ATOM     32  C   UNL     1      -3.919  12.168  18.667  0.00  0.00    +0.000 A 
ATOM     33  C   UNL     1      -2.729  11.823  19.323  0.00  0.00    +0.000 A 
ENDBRANCH  26  27
ENDBRANCH   1  26
TORSDOF 6
ENDMDL
MODEL 3
REMARK VINA RESULT:      -8.3      2.076      3.647
REMARK  Name = 
REMARK  7 active torsions:
REMARK  status: ('A' for Active; 'I' for Inactive)
REMARK    1  A    between atoms: C_1  and  O_2
REMARK    2  A    between atoms: O_2  and  C_3
REMARK    3  A    between atoms: C_6  and  C_7
REMARK    4  A    between atoms: C_7  and  C_8
REMARK    5  A    between atoms: C_8  and  C_9
REMARK    6  A    between atoms: C_26  and  O_27
REMARK    7  A    between atoms: O_27  and  C_28
REMARK                            x       y       z     vdW  Elec       q    Type
REMARK                         _______ _______ _______ _____ _____    ______ ____
ROOT
ATOM      1  C   UNL     1       0.696  10.233  19.174  0.00  0.00    +0.000 C 
ATOM      2  C   UNL     1       1.215  11.585  18.544  0.00  0.00    +0.000 C 
ATOM      3  O   UNL     1       2.368  11.927  18.339  0.00  0.00    +0.000 OA
ATOM      4  N   UNL     1       0.114  12.432  18.440  0.00  0.00    +0.000 N 
ATOM      5  C   UNL     1      -1.016  11.650  18.244  0.00  0.00    +0.000 A 
ATOM      6  C   UNL     1      -2.104  12.117  17.528  0.00  0.00    +0.000 A 
ATOM      7  C   UNL     1      -2.779  11.188  16.753  0.00  0.00    +0.000 A 
ATOM      8  C   UNL     1      -2.359   9.846  16.754  0.00  0.00    +0.000 A 
ATOM      9  C   UNL     1      -1.336   9.389  17.621  0.00  0.00    +0.000 A 
ATOM     10  C   UNL     1      -0.677  10.302  18.444  0.00  0.00    +0.000 A 
ATOM     11  H   UNL     1       0.194  13.397  18.153  0.00  0.00    +0.000 HD
ENDROOT
BRANCH   1  15
ATOM     12  C   UNL     1       3.350   6.812  18.307  0.00  0.00    +0.000 A 
ATOM     13  C   UNL     1       3.143   7.849  17.383  0.00  0.00    +0.000 A 
ATOM     14  C   UNL     1       2.307   8.937  17.670  0.00  0.00    +0.000 A 
ATOM     15  C   UNL     1       1.590   9.010  18.871  0.00  0.00    +0.000 A 
ATOM     16  C   UNL     1       1.752   7.911  19.755  0.00  0.00    +0.000 A 
ATOM     17  C   UNL     1       2.636   6.824  19.507  0.00  0.00    +0.000 A 
BRANCH  12  19
ATOM     18  C   UNL     1       4.887   5.869  16.783  0.00  0.00    +0.000 C 
ATOM     19  O   UNL     1       4.191   5.771  18.024  0.00  0.00    +0.000 OA
ENDBRANCH  12  19
BRANCH  17  20
ATOM     20  O   UNL     1       2.663   5.886  20.515  0.00  0.00    +0.000 OA
BRANCH  20  21
ATOM     21  C   UNL     1       1.633   4.895  20.644  0.00  0.00    +0.000 C 
ATOM     22  C   UNL     1       1.357   4.157  19.335  0.00  0.00    +0.000 C 
ATOM     23  C   UNL     1       0.834   2.783  19.732  0.00  0.00    +0.000 C 
ATOM     24  C   UNL     1       1.416   2.489  21.108  0.00  0.00    +0.000 C 
ATOM     25  C   UNL     1       2.126   3.763  21.561  0.00  0.00    +0.000 C 
ENDBRANCH  20  21
ENDBRANCH  17  20
ENDBRANCH   1  15
BRANCH   1  26
ATOM     26  C   UNL     1       0.855  10.832  20.649  0.00  0.00    +0.000 C 
BRANCH  26  27
ATOM     27  C   UNL     1      -0.033  11.493  21.662  0.00  0.00    +0.000 A 
ATOM     28  C   UNL     1       0.100  12.903  21.723  0.00  0.00    +0.000 A 
ATOM     29  C   UNL     1      -0.717  13.671  22.537  0.00  0.00    +0.000 A 
ATOM     30  N   UNL     1      -1.679  13.074  23.314  0.00  0.00    +0.000 N 
ATOM     31  O   UNL     1      -2.432  13.770  24.057  0.00  0.00    +0.000 OA
ATOM     32  C   UNL     1      -1.811  11.688  23.251  0.00  0.00    +0.000 A 
ATOM     33  C   UNL     1      -1.011  10.884  22.426  0.00  0.00    +0.000 A 
ENDBRANCH  26  27
ENDBRANCH   1  26
TORSDOF 6
ENDMDL
MODEL 4
REMARK VINA RESULT:      -8.3      3.401      7.836
REMARK  Name = 
REMARK  7 active torsions:
REMARK  status: ('A' for Active; 'I' for Inactive)
REMARK    1  A    between atoms: C_1  and  O_2
REMARK    2  A    between atoms: O_2  and  C_3
REMARK    3  A    between atoms: C_6  and  C_7
REMARK    4  A    between atoms: C_7  and  C_8
REMARK    5  A    between atoms: C_8  and  C_9
REMARK    6  A    between atoms: C_26  and  O_27
REMARK    7  A    between atoms: O_27  and  C_28
REMARK                            x       y       z     vdW  Elec       q    Type
REMARK                         _______ _______ _______ _____ _____    ______ ____
ROOT
ATOM      1  C   UNL     1       3.097   5.163  18.697  0.00  0.00    +0.000 C 
ATOM      2  C   UNL     1       4.523   4.956  19.343  0.00  0.00    +0.000 C 
ATOM      3  O   UNL     1       5.456   5.743  19.379  0.00  0.00    +0.000 OA
ATOM      4  N   UNL     1       4.614   3.614  19.704  0.00  0.00    +0.000 N 
ATOM      5  C   UNL     1       3.340   3.164  20.021  0.00  0.00    +0.000 A 
ATOM      6  C   UNL     1       3.136   2.157  20.948  0.00  0.00    +0.000 A 
ATOM      7  C   UNL     1       2.008   2.267  21.744  0.00  0.00    +0.000 A 
ATOM      8  C   UNL     1       1.130   3.349  21.557  0.00  0.00    +0.000 A 
ATOM      9  C   UNL     1       1.300   4.270  20.494  0.00  0.00    +0.000 A 
ATOM     10  C   UNL     1       2.406   4.147  19.652  0.00  0.00    +0.000 A 
ATOM     11  H   UNL     1       5.465   3.200  20.054  0.00  0.00    +0.000 HD
ENDROOT
BRANCH   1  15
ATOM     12  C   UNL     1       1.545   9.296  18.749  0.00  0.00    +0.000 A 
ATOM     13  C   UNL     1       1.976   8.676  17.566  0.00  0.00    +0.000 A 
ATOM     14  C   UNL     1       2.458   7.360  17.556  0.00  0.00    +0.000 A 
ATOM     15  C   UNL     1       2.589   6.621  18.739  0.00  0.00    +0.000 A 
ATOM     16  C   UNL     1       2.223   7.297  19.933  0.00  0.00    +0.000 A 
ATOM     17  C   UNL     1       1.682   8.612  19.959  0.00  0.00    +0.000 A 
BRANCH  12  19
ATOM     18  C   UNL     1       1.972  11.580  18.328  0.00  0.00    +0.000 C 
ATOM     19  O   UNL     1       1.051  10.571  18.739  0.00  0.00    +0.000 OA
ENDBRANCH  12  19
BRANCH  17  20
ATOM     20  O   UNL     1       1.364   9.059  21.223  0.00  0.00    +0.000 OA
BRANCH  20  21
ATOM     21  C   UNL     1       0.092   9.659  21.509  0.00  0.00    +0.000 C 
ATOM     22  C   UNL     1      -0.395   9.361  22.926  0.00  0.00    +0.000 C 
ATOM     23  C   UNL     1      -1.291  10.529  23.313  0.00  0.00    +0.000 C 
ATOM     24  C   UNL     1      -0.810  11.722  22.497  0.00  0.00    +0.000 C 
ATOM     25  C   UNL     1       0.242  11.189  21.527  0.00  0.00    +0.000 C 
ENDBRANCH  20  21
ENDBRANCH  17  20
ENDBRANCH   1  15
BRANCH   1  26
ATOM     26  C   UNL     1       3.647   4.684  17.273  0.00  0.00    +0.000 C 
BRANCH  26  27
ATOM     27  C   UNL     1       4.828   4.986  16.398  0.00  0.00    +0.000 A 
ATOM     28  C   UNL     1       5.487   3.839  15.890  0.00  0.00    +0.000 A 
ATOM     29  C   UNL     1       6.535   3.947  14.990  0.00  0.00    +0.000 A 
ATOM     30  N   UNL     1       6.964   5.183  14.571  0.00  0.00    +0.000 N 
ATOM     31  O   UNL     1       7.918   5.289  13.746  0.00  0.00    +0.000 OA
ATOM     32  C   UNL     1       6.312   6.310  15.069  0.00  0.00    +0.000 A 
ATOM     33  C   UNL     1       5.239   6.235  15.969  0.00  0.00    +0.000 A 
ENDBRANCH  26  27
ENDBRANCH   1  26
TORSDOF 6
ENDMDL
MODEL 5
REMARK VINA RESULT:      -8.2      3.710      8.369
REMARK  Name = 
REMARK  7 active torsions:
REMARK  status: ('A' for Active; 'I' for Inactive)
REMARK    1  A    between atoms: C_1  and  O_2
REMARK    2  A    between atoms: O_2  and  C_3
REMARK    3  A    between atoms: C_6  and  C_7
REMARK    4  A    between atoms: C_7  and  C_8
REMARK    5  A    between atoms: C_8  and  C_9
REMARK    6  A    between atoms: C_26  and  O_27
REMARK    7  A    between atoms: O_27  and  C_28
REMARK                            x       y       z     vdW  Elec       q    Type
REMARK                         _______ _______ _______ _____ _____    ______ ____
ROOT
ATOM      1  C   UNL     1       4.025   5.335  17.914  0.00  0.00    +0.000 C 
ATOM      2  C   UNL     1       4.945   4.844  19.099  0.00  0.00    +0.000 C 
ATOM      3  O   UNL     1       5.585   5.522  19.888  0.00  0.00    +0.000 OA
ATOM      4  N   UNL     1       5.069   3.463  18.972  0.00  0.00    +0.000 N 
ATOM      5  C   UNL     1       3.905   2.976  18.392  0.00  0.00    +0.000 A 
ATOM      6  C   UNL     1       3.438   1.702  18.663  0.00  0.00    +0.000 A 
ATOM      7  C   UNL     1       2.063   1.547  18.724  0.00  0.00    +0.000 A 
ATOM      8  C   UNL     1       1.228   2.652  18.482  0.00  0.00    +0.000 A 
ATOM      9  C   UNL     1       1.751   3.900  18.058  0.00  0.00    +0.000 A 
ATOM     10  C   UNL     1       3.132   4.061  17.946  0.00  0.00    +0.000 A 
ATOM     11  H   UNL     1       5.685   2.914  19.553  0.00  0.00    +0.000 HD
ENDROOT
BRANCH   1  15
ATOM     12  C   UNL     1       1.959   9.184  18.552  0.00  0.00    +0.000 A 
ATOM     13  C   UNL     1       2.823   8.972  17.467  0.00  0.00    +0.000 A 
ATOM     14  C   UNL     1       3.467   7.744  17.265  0.00  0.00    +0.000 A 
ATOM     15  C   UNL     1       3.325   6.687  18.174  0.00  0.00    +0.000 A 
ATOM     16  C   UNL     1       2.512   6.952  19.306  0.00  0.00    +0.000 A 
ATOM     17  C   UNL     1       1.806   8.172  19.502  0.00  0.00    +0.000 A 
BRANCH  12  19
ATOM     18  C   UNL     1       2.032  11.527  18.271  0.00  0.00    +0.000 C 
ATOM     19  O   UNL     1       1.315  10.379  18.720  0.00  0.00    +0.000 OA
ENDBRANCH  12  19
BRANCH  17  20
ATOM     20  O   UNL     1       1.049   8.199  20.652  0.00  0.00    +0.000 OA
BRANCH  20  21
ATOM     21  C   UNL     1       0.775   9.429  21.341  0.00  0.00    +0.000 C 
ATOM     22  C   UNL     1      -0.539  10.072  20.898  0.00  0.00    +0.000 C 
ATOM     23  C   UNL     1      -1.028  10.883  22.090  0.00  0.00    +0.000 C 
ATOM     24  C   UNL     1      -0.443  10.215  23.328  0.00  0.00    +0.000 C 
ATOM     25  C   UNL     1       0.512   9.133  22.827  0.00  0.00    +0.000 C 
ENDBRANCH  20  21
ENDBRANCH  17  20
ENDBRANCH   1  15
BRANCH   1  26
ATOM     26  C   UNL     1       5.288   5.408  16.934  0.00  0.00    +0.000 C 
BRANCH  26  27
ATOM     27  C   UNL     1       5.617   4.965  15.539  0.00  0.00    +0.000 A 
ATOM     28  C   UNL     1       6.930   5.291  15.117  0.00  0.00    +0.000 A 
ATOM     29  C   UNL     1       7.422   4.867  13.893  0.00  0.00    +0.000 A 
ATOM     30  N   UNL     1       6.635   4.118  13.052  0.00  0.00    +0.000 N 
ATOM     31  O   UNL     1       7.080   3.723  11.934  0.00  0.00    +0.000 OA
ATOM     32  C   UNL     1       5.345   3.795  13.470  0.00  0.00    +0.000 A 
ATOM     33  C   UNL     1       4.823   4.195  14.708  0.00  0.00    +0.000 A 
ENDBRANCH  26  27
ENDBRANCH   1  26
TORSDOF 6
ENDMDL
MODEL 6
REMARK VINA RESULT:      -8.1      0.431      1.176
REMARK  Name = 
REMARK  7 active torsions:
REMARK  status: ('A' for Active; 'I' for Inactive)
REMARK    1  A    between atoms: C_1  and  O_2
REMARK    2  A    between atoms: O_2  and  C_3
REMARK    3  A    between atoms: C_6  and  C_7
REMARK    4  A    between atoms: C_7  and  C_8
REMARK    5  A    between atoms: C_8  and  C_9
REMARK    6  A    between atoms: C_26  and  O_27
REMARK    7  A    between atoms: O_27  and  C_28
REMARK                            x       y       z     vdW  Elec       q    Type
REMARK                         _______ _______ _______ _____ _____    ______ ____
ROOT
ATOM      1  C   UNL     1       0.589  10.588  19.392  0.00  0.00    +0.000 C 
ATOM      2  C   UNL     1      -0.889  10.588  18.836  0.00  0.00    +0.000 C 
ATOM      3  O   UNL     1      -1.314  10.047  17.827  0.00  0.00    +0.000 OA
ATOM      4  N   UNL     1      -1.612  11.498  19.602  0.00  0.00    +0.000 N 
ATOM      5  C   UNL     1      -1.064  11.520  20.878  0.00  0.00    +0.000 A 
ATOM      6  C   UNL     1      -1.833  11.801  21.993  0.00  0.00    +0.000 A 
ATOM      7  C   UNL     1      -1.515  11.117  23.154  0.00  0.00    +0.000 A 
ATOM      8  C   UNL     1      -0.434  10.217  23.155  0.00  0.00    +0.000 A 
ATOM      9  C   UNL     1       0.419  10.079  22.031  0.00  0.00    +0.000 A 
ATOM     10  C   UNL     1       0.140  10.796  20.868  0.00  0.00    +0.000 A 
ATOM     11  H   UNL     1      -2.564  11.756  19.390  0.00  0.00    +0.000 HD
ENDROOT
BRANCH   1  15
ATOM     12  C   UNL     1       2.969   6.981  18.489  0.00  0.00    +0.000 A 
ATOM     13  C   UNL     1       2.838   8.037  17.574  0.00  0.00    +0.000 A 
ATOM     14  C   UNL     1       2.090   9.183  17.872  0.00  0.00    +0.000 A 
ATOM     15  C   UNL     1       1.385   9.302  19.077  0.00  0.00    +0.000 A 
ATOM     16  C   UNL     1       1.466   8.188  19.952  0.00  0.00    +0.000 A 
ATOM     17  C   UNL     1       2.262   7.038  19.693  0.00  0.00    +0.000 A 
BRANCH  12  19
ATOM     18  C   UNL     1       4.908   6.136  17.439  0.00  0.00    +0.000 C 
ATOM     19  O   UNL     1       3.726   5.880  18.195  0.00  0.00    +0.000 OA
ENDBRANCH  12  19
BRANCH  17  20
ATOM     20  O   UNL     1       2.220   6.093  20.694  0.00  0.00    +0.000 OA
BRANCH  20  21
ATOM     21  C   UNL     1       2.312   4.690  20.405  0.00  0.00    +0.000 C 
ATOM     22  C   UNL     1       2.315   3.828  21.666  0.00  0.00    +0.000 C 
ATOM     23  C   UNL     1       1.731   2.483  21.254  0.00  0.00    +0.000 C 
ATOM     24  C   UNL     1       0.825   2.762  20.062  0.00  0.00    +0.000 C 
ATOM     25  C   UNL     1       1.028   4.231  19.695  0.00  0.00    +0.000 C 
ENDBRANCH  20  21
ENDBRANCH  17  20
ENDBRANCH   1  15
BRANCH   1  26
ATOM     26  C   UNL     1       0.958  11.848  18.478  0.00  0.00    +0.000 C 
BRANCH  26  27
ATOM     27  C   UNL     1       1.681  13.151  18.651  0.00  0.00    +0.000 A 
ATOM     28  C   UNL     1       0.926  14.155  19.308  0.00  0.00    +0.000 A 
ATOM     29  C   UNL     1       1.482  15.382  19.631  0.00  0.00    +0.000 A 
ATOM     30  N   UNL     1       2.791  15.655  19.314  0.00  0.00    +0.000 N 
ATOM     31  O   UNL     1       3.307  16.772  19.610  0.00  0.00    +0.000 OA
ATOM     32  C   UNL     1       3.533  14.666  18.671  0.00  0.00    +0.000 A 
ATOM     33  C   UNL     1       3.005  13.409  18.344  0.00  0.00    +0.000 A 
ENDBRANCH  26  27
ENDBRANCH   1  26
TORSDOF 6
ENDMDL
MODEL 7
REMARK VINA RESULT:      -8.1      3.550      8.708
REMARK  Name = 
REMARK  7 active torsions:
REMARK  status: ('A' for Active; 'I' for Inactive)
REMARK    1  A    between atoms: C_1  and  O_2
REMARK    2  A    between atoms: O_2  and  C_3
REMARK    3  A    between atoms: C_6  and  C_7
REMARK    4  A    between atoms: C_7  and  C_8
REMARK    5  A    between atoms: C_8  and  C_9
REMARK    6  A    between atoms: C_26  and  O_27
REMARK    7  A    between atoms: O_27  and  C_28
REMARK                            x       y       z     vdW  Elec       q    Type
REMARK                         _______ _______ _______ _____ _____    ______ ____
ROOT
ATOM      1  C   UNL     1       3.456   5.584  18.174  0.00  0.00    +0.000 C 
ATOM      2  C   UNL     1       4.664   5.016  19.016  0.00  0.00    +0.000 C 
ATOM      3  O   UNL     1       5.371   5.609  19.815  0.00  0.00    +0.000 OA
ATOM      4  N   UNL     1       4.926   3.735  18.537  0.00  0.00    +0.000 N 
ATOM      5  C   UNL     1       3.733   3.192  18.079  0.00  0.00    +0.000 A 
ATOM      6  C   UNL     1       3.496   1.830  18.113  0.00  0.00    +0.000 A 
ATOM      7  C   UNL     1       2.197   1.434  18.384  0.00  0.00    +0.000 A 
ATOM      8  C   UNL     1       1.200   2.407  18.574  0.00  0.00    +0.000 A 
ATOM      9  C   UNL     1       1.461   3.786  18.377  0.00  0.00    +0.000 A 
ATOM     10  C   UNL     1       2.754   4.200  18.057  0.00  0.00    +0.000 A 
ATOM     11  H   UNL     1       5.716   3.188  18.845  0.00  0.00    +0.000 HD
ENDROOT
BRANCH   1  15
ATOM     12  C   UNL     1       1.295   8.814  20.270  0.00  0.00    +0.000 A 
ATOM     13  C   UNL     1       1.496   7.552  20.850  0.00  0.00    +0.000 A 
ATOM     14  C   UNL     1       2.192   6.535  20.182  0.00  0.00    +0.000 A 
ATOM     15  C   UNL     1       2.668   6.712  18.877  0.00  0.00    +0.000 A 
ATOM     16  C   UNL     1       2.383   7.968  18.281  0.00  0.00    +0.000 A 
ATOM     17  C   UNL     1       1.726   9.031  18.959  0.00  0.00    +0.000 A 
BRANCH  12  19
ATOM     18  C   UNL     1       0.371   9.535  22.319  0.00  0.00    +0.000 C 
ATOM     19  O   UNL     1       0.638   9.805  20.945  0.00  0.00    +0.000 OA
ENDBRANCH  12  19
BRANCH  17  20
ATOM     20  O   UNL     1       1.585  10.173  18.202  0.00  0.00    +0.000 OA
BRANCH  20  21
ATOM     21  C   UNL     1       1.589  11.477  18.802  0.00  0.00    +0.000 C 
ATOM     22  C   UNL     1       2.538  12.447  18.099  0.00  0.00    +0.000 C 
ATOM     23  C   UNL     1       1.963  13.837  18.335  0.00  0.00    +0.000 C 
ATOM     24  C   UNL     1       0.466  13.649  18.539  0.00  0.00    +0.000 C 
ATOM     25  C   UNL     1       0.220  12.142  18.588  0.00  0.00    +0.000 C 
ENDBRANCH  20  21
ENDBRANCH  17  20
ENDBRANCH   1  15
BRANCH   1  26
ATOM     26  C   UNL     1       4.457   6.078  17.027  0.00  0.00    +0.000 C 
BRANCH  26  27
ATOM     27  C   UNL     1       5.321   5.439  15.981  0.00  0.00    +0.000 A 
ATOM     28  C   UNL     1       4.605   4.714  14.995  0.00  0.00    +0.000 A 
ATOM     29  C   UNL     1       5.248   4.147  13.906  0.00  0.00    +0.000 A 
ATOM     30  N   UNL     1       6.608   4.272  13.762  0.00  0.00    +0.000 N 
ATOM     31  O   UNL     1       7.201   3.760  12.767  0.00  0.00    +0.000 OA
ATOM     32  C   UNL     1       7.310   4.988  14.730  0.00  0.00    +0.000 A 
ATOM     33  C   UNL     1       6.689   5.588  15.834  0.00  0.00    +0.000 A 
ENDBRANCH  26  27
ENDBRANCH   1  26
TORSDOF 6
ENDMDL
MODEL 8
REMARK VINA RESULT:      -8.1      3.129      6.775
REMARK  Name = 
REMARK  7 active torsions:
REMARK  status: ('A' for Active; 'I' for Inactive)
REMARK    1  A    between atoms: C_1  and  O_2
REMARK    2  A    between atoms: O_2  and  C_3
REMARK    3  A    between atoms: C_6  and  C_7
REMARK    4  A    between atoms: C_7  and  C_8
REMARK    5  A    between atoms: C_8  and  C_9
REMARK    6  A    between atoms: C_26  and  O_27
REMARK    7  A    between atoms: O_27  and  C_28
REMARK                            x       y       z     vdW  Elec       q    Type
REMARK                         _______ _______ _______ _____ _____    ______ ____
ROOT
ATOM      1  C   UNL     1       2.890   5.100  18.473  0.00  0.00    +0.000 C 
ATOM      2  C   UNL     1       1.622   4.376  17.871  0.00  0.00    +0.000 C 
ATOM      3  O   UNL     1       1.310   4.255  16.697  0.00  0.00    +0.000 OA
ATOM      4  N   UNL     1       0.790   4.059  18.942  0.00  0.00    +0.000 N 
ATOM      5  C   UNL     1       1.586   3.836  20.057  0.00  0.00    +0.000 A 
ATOM      6  C   UNL     1       1.203   2.961  21.058  0.00  0.00    +0.000 A 
ATOM      7  C   UNL     1       2.213   2.231  21.662  0.00  0.00    +0.000 A 
ATOM      8  C   UNL     1       3.547   2.432  21.265  0.00  0.00    +0.000 A 
ATOM      9  C   UNL     1       3.904   3.449  20.345  0.00  0.00    +0.000 A 
ATOM     10  C   UNL     1       2.902   4.226  19.761  0.00  0.00    +0.000 A 
ATOM     11  H   UNL     1      -0.135   3.673  18.818  0.00  0.00    +0.000 HD
ENDROOT
BRANCH   1  15
ATOM     12  C   UNL     1       6.396   4.902  15.797  0.00  0.00    +0.000 A 
ATOM     13  C   UNL     1       5.557   3.797  16.011  0.00  0.00    +0.000 A 
ATOM     14  C   UNL     1       4.440   3.871  16.853  0.00  0.00    +0.000 A 
ATOM     15  C   UNL     1       4.143   5.036  17.571  0.00  0.00    +0.000 A 
ATOM     16  C   UNL     1       5.050   6.114  17.402  0.00  0.00    +0.000 A 
ATOM     17  C   UNL     1       6.159   6.078  16.511  0.00  0.00    +0.000 A 
BRANCH  12  19
ATOM     18  C   UNL     1       7.145   4.591  13.580  0.00  0.00    +0.000 C 
ATOM     19  O   UNL     1       7.467   4.823  14.949  0.00  0.00    +0.000 OA
ENDBRANCH  12  19
BRANCH  17  20
ATOM     20  O   UNL     1       6.886   7.247  16.479  0.00  0.00    +0.000 OA
BRANCH  20  21
ATOM     21  C   UNL     1       7.154   7.997  17.673  0.00  0.00    +0.000 C 
ATOM     22  C   UNL     1       8.266   7.380  18.520  0.00  0.00    +0.000 C 
ATOM     23  C   UNL     1       8.896   8.534  19.288  0.00  0.00    +0.000 C 
ATOM     24  C   UNL     1       8.658   9.782  18.449  0.00  0.00    +0.000 C 
ATOM     25  C   UNL     1       7.749   9.364  17.294  0.00  0.00    +0.000 C 
ENDBRANCH  20  21
ENDBRANCH  17  20
ENDBRANCH   1  15
BRANCH   1  26
ATOM     26  C   UNL     1       2.123   6.504  18.460  0.00  0.00    +0.000 C 
BRANCH  26  27
ATOM     27  C   UNL     1       1.828   7.597  19.444  0.00  0.00    +0.000 A 
ATOM     28  C   UNL     1       1.582   8.863  18.854  0.00  0.00    +0.000 A 
ATOM     29  C   UNL     1       1.199   9.954  19.617  0.00  0.00    +0.000 A 
ATOM     30  N   UNL     1       1.053   9.831  20.978  0.00  0.00    +0.000 N 
ATOM     31  O   UNL     1       0.700  10.822  21.681  0.00  0.00    +0.000 OA
ATOM     32  C   UNL     1       1.292   8.585  21.556  0.00  0.00    +0.000 A 
ATOM     33  C   UNL     1       1.666   7.458  20.811  0.00  0.00    +0.000 A 
ENDBRANCH  26  27
ENDBRANCH   1  26
TORSDOF 6
ENDMDL
MODEL 9
REMARK VINA RESULT:      -8.0      2.095      4.305
REMARK  Name = 
REMARK  7 active torsions:
REMARK  status: ('A' for Active; 'I' for Inactive)
REMARK    1  A    between atoms: C_1  and  O_2
REMARK    2  A    between atoms: O_2  and  C_3
REMARK    3  A    between atoms: C_6  and  C_7
REMARK    4  A    between atoms: C_7  and  C_8
REMARK    5  A    between atoms: C_8  and  C_9
REMARK    6  A    between atoms: C_26  and  O_27
REMARK    7  A    between atoms: O_27  and  C_28
REMARK                            x       y       z     vdW  Elec       q    Type
REMARK                         _______ _______ _______ _____ _____    ______ ____
ROOT
ATOM      1  C   UNL     1       0.713  10.497  19.444  0.00  0.00    +0.000 C 
ATOM      2  C   UNL     1       0.792  10.885  20.972  0.00  0.00    +0.000 C 
ATOM      3  O   UNL     1       0.898  10.142  21.935  0.00  0.00    +0.000 OA
ATOM      4  N   UNL     1       0.515  12.247  21.060  0.00  0.00    +0.000 N 
ATOM      5  C   UNL     1       0.951  12.853  19.889  0.00  0.00    +0.000 A 
ATOM      6  C   UNL     1       1.384  14.167  19.871  0.00  0.00    +0.000 A 
ATOM      7  C   UNL     1       2.429  14.462  19.011  0.00  0.00    +0.000 A 
ATOM      8  C   UNL     1       2.964  13.449  18.195  0.00  0.00    +0.000 A 
ATOM      9  C   UNL     1       2.385  12.157  18.139  0.00  0.00    +0.000 A 
ATOM     10  C   UNL     1       1.301  11.856  18.964  0.00  0.00    +0.000 A 
ATOM     11  H   UNL     1       0.409  12.727  21.941  0.00  0.00    +0.000 HD
ENDROOT
BRANCH   1  15
ATOM     12  C   UNL     1       3.074   6.922  18.374  0.00  0.00    +0.000 A 
ATOM     13  C   UNL     1       2.857   7.972  17.468  0.00  0.00    +0.000 A 
ATOM     14  C   UNL     1       2.115   9.108  17.818  0.00  0.00    +0.000 A 
ATOM     15  C   UNL     1       1.503   9.222  19.073  0.00  0.00    +0.000 A 
ATOM     16  C   UNL     1       1.668   8.113  19.944  0.00  0.00    +0.000 A 
ATOM     17  C   UNL     1       2.461   6.975  19.628  0.00  0.00    +0.000 A 
BRANCH  12  19
ATOM     18  C   UNL     1       4.962   6.108  17.214  0.00  0.00    +0.000 C 
ATOM     19  O   UNL     1       3.823   5.832  18.027  0.00  0.00    +0.000 OA
ENDBRANCH  12  19
BRANCH  17  20
ATOM     20  O   UNL     1       2.511   6.034  20.633  0.00  0.00    +0.000 OA
BRANCH  20  21
ATOM     21  C   UNL     1       2.448   4.629  20.349  0.00  0.00    +0.000 C 
ATOM     22  C   UNL     1       2.331   3.776  21.611  0.00  0.00    +0.000 C 
ATOM     23  C   UNL     1       1.606   2.505  21.191  0.00  0.00    +0.000 C 
ATOM     24  C   UNL     1       0.758   2.880  19.983  0.00  0.00    +0.000 C 
ATOM     25  C   UNL     1       1.132   4.315  19.617  0.00  0.00    +0.000 C 
ENDBRANCH  20  21
ENDBRANCH  17  20
ENDBRANCH   1  15
BRANCH   1  26
ATOM     26  C   UNL     1      -0.871  10.299  19.552  0.00  0.00    +0.000 C 
BRANCH  26  27
ATOM     27  C   UNL     1      -2.074  10.632  18.721  0.00  0.00    +0.000 A 
ATOM     28  C   UNL     1      -2.905  11.639  19.274  0.00  0.00    +0.000 A 
ATOM     29  C   UNL     1      -4.002  12.130  18.584  0.00  0.00    +0.000 A 
ATOM     30  N   UNL     1      -4.313  11.641  17.339  0.00  0.00    +0.000 N 
ATOM     31  O   UNL     1      -5.311  12.087  16.701  0.00  0.00    +0.000 OA
ATOM     32  C   UNL     1      -3.493  10.653  16.795  0.00  0.00    +0.000 A 
ATOM     33  C   UNL     1      -2.367  10.146  17.459  0.00  0.00    +0.000 A 
ENDBRANCH  26  27
ENDBRANCH   1  26
TORSDOF 6
ENDMDL
