MODEL 1
REMARK VINA RESULT:      -6.0      0.000      0.000
REMARK  Name = 
REMARK  8 active torsions:
REMARK  status: ('A' for Active; 'I' for Inactive)
REMARK    1  A    between atoms: C_1  and  C_2
REMARK    2  A    between atoms: C_2  and  C_3
REMARK    3  A    between atoms: C_2  and  C_4
REMARK    4  A    between atoms: C_2  and  N_6
REMARK    5  A    between atoms: C_7  and  C_9
REMARK    6  A    between atoms: C_9  and  N_10
REMARK    7  A    between atoms: C_9  and  C_11
REMARK    8  A    between atoms: C_11  and  C_12
REMARK                            x       y       z     vdW  Elec       q    Type
REMARK                         _______ _______ _______ _____ _____    ______ ____
ROOT
ATOM      1  C   UNL     1       3.279   3.220  17.052  0.00  0.00    +0.000 C 
ENDROOT
BRANCH   1   3
ATOM      2  N   UNL     1       5.214   4.530  17.818  0.00  0.00    +0.000 N 
ATOM      3  C   UNL     1       4.524   4.066  16.717  0.00  0.00    +0.000 C 
ATOM      4  O   UNL     1       4.811   4.381  15.565  0.00  0.00    +0.000 OA
ATOM      5  H   UNL     1       4.974   4.151  18.728  0.00  0.00    +0.000 HD
BRANCH   2   7
ATOM      6  C   UNL     1       7.461   4.639  16.774  0.00  0.00    +0.000 C 
ATOM      7  C   UNL     1       6.453   5.326  17.713  0.00  0.00    +0.000 C 
ATOM      8  C   UNL     1       6.153   6.755  17.224  0.00  0.00    +0.000 C 
BRANCH   7   9
ATOM      9  C   UNL     1       7.078   5.434  19.064  0.00  0.00    +0.000 C 
ATOM     10  N   UNL     1       7.573   5.494  20.111  0.00  0.00    +0.000 NA
ENDBRANCH   7   9
ENDBRANCH   2   7
ENDBRANCH   1   3
BRANCH   1  11
ATOM     11  N   UNL     1       3.702   2.153  17.992  0.00  0.00    +0.000 NA
ATOM     12  H   UNL     1       4.503   1.667  17.581  0.00  0.00    +0.000 HD
ATOM     13  H   UNL     1       2.966   1.450  18.055  0.00  0.00    +0.000 HD
ENDBRANCH   1  11
BRANCH   1  14
ATOM     14  C   UNL     1       2.188   4.101  17.685  0.00  0.00    +0.000 C 
BRANCH  14  15
ATOM     15  C   UNL     1       1.970   3.769  19.140  0.00  0.00    +0.000 A 
ATOM     16  C   UNL     1       1.130   2.814  19.677  0.00  0.00    +0.000 A 
ATOM     17  C   UNL     1       1.207   2.758  21.097  0.00  0.00    +0.000 A 
ATOM     18  C   UNL     1       2.087   3.690  21.600  0.00  0.00    +0.000 A 
ATOM     19  S   UNL     1       2.825   4.611  20.362  0.00  0.00    +0.000 S 
ENDBRANCH  14  15
ENDBRANCH   1  14
TORSDOF 6
ENDMDL
MODEL 2
REMARK VINA RESULT:      -6.0      2.915      3.600
REMARK  Name = 
REMARK  8 active torsions:
REMARK  status: ('A' for Active; 'I' for Inactive)
REMARK    1  A    between atoms: C_1  and  C_2
REMARK    2  A    between atoms: C_2  and  C_3
REMARK    3  A    between atoms: C_2  and  C_4
REMARK    4  A    between atoms: C_2  and  N_6
REMARK    5  A    between atoms: C_7  and  C_9
REMARK    6  A    between atoms: C_9  and  N_10
REMARK    7  A    between atoms: C_9  and  C_11
REMARK    8  A    between atoms: C_11  and  C_12
REMARK                            x       y       z     vdW  Elec       q    Type
REMARK                         _______ _______ _______ _____ _____    ______ ____
ROOT
ATOM      1  C   UNL     1       3.353   4.668  18.929  0.00  0.00    +0.000 C 
ENDROOT
BRANCH   1   3
ATOM      2  N   UNL     1       5.549   5.578  18.297  0.00  0.00    +0.000 N 
ATOM      3  C   UNL     1       4.891   4.551  18.942  0.00  0.00    +0.000 C 
ATOM      4  O   UNL     1       5.469   3.569  19.401  0.00  0.00    +0.000 OA
ATOM      5  H   UNL     1       5.012   6.396  18.028  0.00  0.00    +0.000 HD
BRANCH   2   7
ATOM      6  C   UNL     1       7.635   5.591  19.637  0.00  0.00    +0.000 C 
ATOM      7  C   UNL     1       7.020   5.672  18.228  0.00  0.00    +0.000 C 
ATOM      8  C   UNL     1       7.604   4.569  17.326  0.00  0.00    +0.000 C 
BRANCH   7   9
ATOM      9  C   UNL     1       7.397   6.988  17.634  0.00  0.00    +0.000 C 
ATOM     10  N   UNL     1       7.674   8.006  17.153  0.00  0.00    +0.000 NA
ENDBRANCH   7   9
ENDBRANCH   2   7
ENDBRANCH   1   3
BRANCH   1  11
ATOM     11  N   UNL     1       2.799   3.314  19.167  0.00  0.00    +0.000 NA
ATOM     12  H   UNL     1       3.086   3.013  20.102  0.00  0.00    +0.000 HD
ATOM     13  H   UNL     1       3.239   2.653  18.527  0.00  0.00    +0.000 HD
ENDBRANCH   1  11
BRANCH   1  14
ATOM     14  C   UNL     1       2.883   5.647  20.019  0.00  0.00    +0.000 C 
BRANCH  14  15
ATOM     15  C   UNL     1       2.388   6.946  19.434  0.00  0.00    +0.000 A 
ATOM     16  C   UNL     1       2.472   7.375  18.124  0.00  0.00    +0.000 A 
ATOM     17  C   UNL     1       1.866   8.648  17.929  0.00  0.00    +0.000 A 
ATOM     18  C   UNL     1       1.359   9.160  19.101  0.00  0.00    +0.000 A 
ATOM     19  S   UNL     1       1.601   8.101  20.423  0.00  0.00    +0.000 S 
ENDBRANCH  14  15
ENDBRANCH   1  14
TORSDOF 6
ENDMDL
MODEL 3
REMARK VINA RESULT:      -5.9      1.902      2.597
REMARK  Name = 
REMARK  8 active torsions:
REMARK  status: ('A' for Active; 'I' for Inactive)
REMARK    1  A    between atoms: C_1  and  C_2
REMARK    2  A    between atoms: C_2  and  C_3
REMARK    3  A    between atoms: C_2  and  C_4
REMARK    4  A    between atoms: C_2  and  N_6
REMARK    5  A    between atoms: C_7  and  C_9
REMARK    6  A    between atoms: C_9  and  N_10
REMARK    7  A    between atoms: C_9  and  C_11
REMARK    8  A    between atoms: C_11  and  C_12
REMARK                            x       y       z     vdW  Elec       q    Type
REMARK                         _______ _______ _______ _____ _____    ______ ____
ROOT
ATOM      1  C   UNL     1       3.262   6.398  18.322  0.00  0.00    +0.000 C 
ENDROOT
BRANCH   1   3
ATOM      2  N   UNL     1       5.708   6.188  18.478  0.00  0.00    +0.000 N 
ATOM      3  C   UNL     1       4.644   6.449  17.639  0.00  0.00    +0.000 C 
ATOM      4  O   UNL     1       4.783   6.795  16.469  0.00  0.00    +0.000 OA
ATOM      5  H   UNL     1       5.509   5.819  19.402  0.00  0.00    +0.000 HD
BRANCH   2   7
ATOM      6  C   UNL     1       7.555   7.544  17.533  0.00  0.00    +0.000 C 
ATOM      7  C   UNL     1       7.108   6.152  18.013  0.00  0.00    +0.000 C 
ATOM      8  C   UNL     1       8.047   5.640  19.121  0.00  0.00    +0.000 C 
BRANCH   7   9
ATOM      9  C   UNL     1       7.213   5.209  16.861  0.00  0.00    +0.000 C 
ATOM     10  N   UNL     1       7.287   4.458  15.980  0.00  0.00    +0.000 NA
ENDBRANCH   7   9
ENDBRANCH   2   7
ENDBRANCH   1   3
BRANCH   1  11
ATOM     11  N   UNL     1       2.573   7.680  18.037  0.00  0.00    +0.000 NA
ATOM     12  H   UNL     1       1.696   7.692  18.563  0.00  0.00    +0.000 HD
ATOM     13  H   UNL     1       2.295   7.701  17.056  0.00  0.00    +0.000 HD
ENDBRANCH   1  11
BRANCH   1  14
ATOM     14  C   UNL     1       2.444   5.210  17.785  0.00  0.00    +0.000 C 
BRANCH  14  15
ATOM     15  C   UNL     1       1.991   4.292  18.892  0.00  0.00    +0.000 A 
ATOM     16  C   UNL     1       1.687   2.947  18.810  0.00  0.00    +0.000 A 
ATOM     17  C   UNL     1       1.323   2.394  20.070  0.00  0.00    +0.000 A 
ATOM     18  C   UNL     1       1.339   3.340  21.069  0.00  0.00    +0.000 A 
ATOM     19  S   UNL     1       1.806   4.880  20.489  0.00  0.00    +0.000 S 
ENDBRANCH  14  15
ENDBRANCH   1  14
TORSDOF 6
ENDMDL
MODEL 4
REMARK VINA RESULT:      -5.9      2.232      2.819
REMARK  Name = 
REMARK  8 active torsions:
REMARK  status: ('A' for Active; 'I' for Inactive)
REMARK    1  A    between atoms: C_1  and  C_2
REMARK    2  A    between atoms: C_2  and  C_3
REMARK    3  A    between atoms: C_2  and  C_4
REMARK    4  A    between atoms: C_2  and  N_6
REMARK    5  A    between atoms: C_7  and  C_9
REMARK    6  A    between atoms: C_9  and  N_10
REMARK    7  A    between atoms: C_9  and  C_11
REMARK    8  A    between atoms: C_11  and  C_12
REMARK                            x       y       z     vdW  Elec       q    Type
REMARK                         _______ _______ _______ _____ _____    ______ ____
ROOT
ATOM      1  C   UNL     1       3.236   6.348  18.539  0.00  0.00    +0.000 C 
ENDROOT
BRANCH   1   3
ATOM      2  N   UNL     1       5.567   6.766  17.877  0.00  0.00    +0.000 N 
ATOM      3  C   UNL     1       4.692   5.853  18.429  0.00  0.00    +0.000 C 
ATOM      4  O   UNL     1       5.016   4.704  18.716  0.00  0.00    +0.000 OA
ATOM      5  H   UNL     1       5.248   7.721  17.754  0.00  0.00    +0.000 HD
BRANCH   2   7
ATOM      6  C   UNL     1       7.771   7.804  17.415  0.00  0.00    +0.000 C 
ATOM      7  C   UNL     1       7.010   6.500  17.718  0.00  0.00    +0.000 C 
ATOM      8  C   UNL     1       7.590   5.822  18.972  0.00  0.00    +0.000 C 
BRANCH   7   9
ATOM      9  C   UNL     1       7.210   5.570  16.568  0.00  0.00    +0.000 C 
ATOM     10  N   UNL     1       7.366   4.827  15.691  0.00  0.00    +0.000 NA
ENDBRANCH   7   9
ENDBRANCH   2   7
ENDBRANCH   1   3
BRANCH   1  11
ATOM     11  N   UNL     1       3.141   7.631  17.802  0.00  0.00    +0.000 NA
ATOM     12  H   UNL     1       2.271   7.625  17.263  0.00  0.00    +0.000 HD
ATOM     13  H   UNL     1       3.884   7.674  17.104  0.00  0.00    +0.000 HD
ENDBRANCH   1  11
BRANCH   1  14
ATOM     14  C   UNL     1       2.271   5.308  17.944  0.00  0.00    +0.000 C 
BRANCH  14  15
ATOM     15  C   UNL     1       1.882   4.258  18.955  0.00  0.00    +0.000 A 
ATOM     16  C   UNL     1       1.532   4.440  20.278  0.00  0.00    +0.000 A 
ATOM     17  C   UNL     1       1.193   3.218  20.924  0.00  0.00    +0.000 A 
ATOM     18  C   UNL     1       1.318   2.139  20.079  0.00  0.00    +0.000 A 
ATOM     19  S   UNL     1       1.826   2.604  18.513  0.00  0.00    +0.000 S 
ENDBRANCH  14  15
ENDBRANCH   1  14
TORSDOF 6
ENDMDL
MODEL 5
REMARK VINA RESULT:      -5.9      2.692      5.562
REMARK  Name = 
REMARK  8 active torsions:
REMARK  status: ('A' for Active; 'I' for Inactive)
REMARK    1  A    between atoms: C_1  and  C_2
REMARK    2  A    between atoms: C_2  and  C_3
REMARK    3  A    between atoms: C_2  and  C_4
REMARK    4  A    between atoms: C_2  and  N_6
REMARK    5  A    between atoms: C_7  and  C_9
REMARK    6  A    between atoms: C_9  and  N_10
REMARK    7  A    between atoms: C_9  and  C_11
REMARK    8  A    between atoms: C_11  and  C_12
REMARK                            x       y       z     vdW  Elec       q    Type
REMARK                         _______ _______ _______ _____ _____    ______ ____
ROOT
ATOM      1  C   UNL     1       5.259   5.290  19.290  0.00  0.00    +0.000 C 
ENDROOT
BRANCH   1   3
ATOM      2  N   UNL     1       3.120   4.075  19.291  0.00  0.00    +0.000 N 
ATOM      3  C   UNL     1       4.482   3.972  19.486  0.00  0.00    +0.000 C 
ATOM      4  O   UNL     1       5.026   2.945  19.884  0.00  0.00    +0.000 OA
ATOM      5  H   UNL     1       2.760   4.927  18.874  0.00  0.00    +0.000 HD
BRANCH   2   7
ATOM      6  C   UNL     1       0.856   3.240  18.724  0.00  0.00    +0.000 C 
ATOM      7  C   UNL     1       2.204   2.923  19.394  0.00  0.00    +0.000 C 
ATOM      8  C   UNL     1       2.828   1.661  18.770  0.00  0.00    +0.000 C 
BRANCH   7   9
ATOM      9  C   UNL     1       1.947   2.633  20.836  0.00  0.00    +0.000 C 
ATOM     10  N   UNL     1       1.758   2.431  21.962  0.00  0.00    +0.000 NA
ENDBRANCH   7   9
ENDBRANCH   2   7
ENDBRANCH   1   3
BRANCH   1  11
ATOM     11  N   UNL     1       6.705   4.963  19.294  0.00  0.00    +0.000 NA
ATOM     12  H   UNL     1       7.227   5.834  19.420  0.00  0.00    +0.000 HD
ATOM     13  H   UNL     1       6.975   4.621  18.372  0.00  0.00    +0.000 HD
ENDBRANCH   1  11
BRANCH   1  14
ATOM     14  C   UNL     1       4.856   5.955  17.962  0.00  0.00    +0.000 C 
BRANCH  14  15
ATOM     15  C   UNL     1       5.506   5.285  16.777  0.00  0.00    +0.000 A 
ATOM     16  C   UNL     1       5.054   4.189  16.069  0.00  0.00    +0.000 A 
ATOM     17  C   UNL     1       5.914   3.851  14.986  0.00  0.00    +0.000 A 
ATOM     18  C   UNL     1       7.006   4.686  14.917  0.00  0.00    +0.000 A 
ATOM     19  S   UNL     1       6.981   5.878  16.143  0.00  0.00    +0.000 S 
ENDBRANCH  14  15
ENDBRANCH   1  14
TORSDOF 6
ENDMDL
MODEL 6
REMARK VINA RESULT:      -5.9      0.815      1.042
REMARK  Name = 
REMARK  8 active torsions:
REMARK  status: ('A' for Active; 'I' for Inactive)
REMARK    1  A    between atoms: C_1  and  C_2
REMARK    2  A    between atoms: C_2  and  C_3
REMARK    3  A    between atoms: C_2  and  C_4
REMARK    4  A    between atoms: C_2  and  N_6
REMARK    5  A    between atoms: C_7  and  C_9
REMARK    6  A    between atoms: C_9  and  N_10
REMARK    7  A    between atoms: C_9  and  C_11
REMARK    8  A    between atoms: C_11  and  C_12
REMARK                            x       y       z     vdW  Elec       q    Type
REMARK                         _______ _______ _______ _____ _____    ______ ____
ROOT
ATOM      1  C   UNL     1       3.402   3.213  17.113  0.00  0.00    +0.000 C 
ENDROOT
BRANCH   1   3
ATOM      2  N   UNL     1       5.337   4.514  17.895  0.00  0.00    +0.000 N 
ATOM      3  C   UNL     1       4.662   4.040  16.789  0.00  0.00    +0.000 C 
ATOM      4  O   UNL     1       4.974   4.334  15.637  0.00  0.00    +0.000 OA
ATOM      5  H   UNL     1       5.075   4.152  18.806  0.00  0.00    +0.000 HD
BRANCH   2   7
ATOM      6  C   UNL     1       7.603   4.582  16.893  0.00  0.00    +0.000 C 
ATOM      7  C   UNL     1       6.586   5.295  17.801  0.00  0.00    +0.000 C 
ATOM      8  C   UNL     1       6.311   6.719  17.284  0.00  0.00    +0.000 C 
BRANCH   7   9
ATOM      9  C   UNL     1       7.186   5.417  19.162  0.00  0.00    +0.000 C 
ATOM     10  N   UNL     1       7.650   5.487  20.223  0.00  0.00    +0.000 NA
ENDBRANCH   7   9
ENDBRANCH   2   7
ENDBRANCH   1   3
BRANCH   1  11
ATOM     11  N   UNL     1       3.801   2.140  18.055  0.00  0.00    +0.000 NA
ATOM     12  H   UNL     1       4.801   1.963  17.930  0.00  0.00    +0.000 HD
ATOM     13  H   UNL     1       3.341   1.269  17.788  0.00  0.00    +0.000 HD
ENDBRANCH   1  11
BRANCH   1  14
ATOM     14  C   UNL     1       2.319   4.111  17.738  0.00  0.00    +0.000 C 
BRANCH  14  15
ATOM     15  C   UNL     1       2.098   3.793  19.196  0.00  0.00    +0.000 A 
ATOM     16  C   UNL     1       2.714   4.364  20.292  0.00  0.00    +0.000 A 
ATOM     17  C   UNL     1       2.231   3.836  21.523  0.00  0.00    +0.000 A 
ATOM     18  C   UNL     1       1.277   2.863  21.325  0.00  0.00    +0.000 A 
ATOM     19  S   UNL     1       0.960   2.603  19.664  0.00  0.00    +0.000 S 
ENDBRANCH  14  15
ENDBRANCH   1  14
TORSDOF 6
ENDMDL
MODEL 7
REMARK VINA RESULT:      -5.8      1.564      1.786
REMARK  Name = 
REMARK  8 active torsions:
REMARK  status: ('A' for Active; 'I' for Inactive)
REMARK    1  A    between atoms: C_1  and  C_2
REMARK    2  A    between atoms: C_2  and  C_3
REMARK    3  A    between atoms: C_2  and  C_4
REMARK    4  A    between atoms: C_2  and  N_6
REMARK    5  A    between atoms: C_7  and  C_9
REMARK    6  A    between atoms: C_9  and  N_10
REMARK    7  A    between atoms: C_9  and  C_11
REMARK    8  A    between atoms: C_11  and  C_12
REMARK                            x       y       z     vdW  Elec       q    Type
REMARK                         _______ _______ _______ _____ _____    ______ ____
ROOT
ATOM      1  C   UNL     1       3.077   2.947  17.259  0.00  0.00    +0.000 C 
ENDROOT
BRANCH   1   3
ATOM      2  N   UNL     1       4.861   3.784  15.788  0.00  0.00    +0.000 N 
ATOM      3  C   UNL     1       4.247   3.922  17.015  0.00  0.00    +0.000 C 
ATOM      4  O   UNL     1       4.655   4.685  17.887  0.00  0.00    +0.000 OA
ATOM      5  H   UNL     1       4.410   3.202  15.090  0.00  0.00    +0.000 HD
BRANCH   2   7
ATOM      6  C   UNL     1       6.450   4.238  13.940  0.00  0.00    +0.000 C 
ATOM      7  C   UNL     1       5.976   4.645  15.346  0.00  0.00    +0.000 C 
ATOM      8  C   UNL     1       5.569   6.130  15.365  0.00  0.00    +0.000 C 
BRANCH   7   9
ATOM      9  C   UNL     1       7.122   4.478  16.287  0.00  0.00    +0.000 C 
ATOM     10  N   UNL     1       8.004   4.368  17.032  0.00  0.00    +0.000 NA
ENDBRANCH   7   9
ENDBRANCH   2   7
ENDBRANCH   1   3
BRANCH   1  11
ATOM     11  N   UNL     1       3.564   1.882  18.169  0.00  0.00    +0.000 NA
ATOM     12  H   UNL     1       4.140   2.322  18.893  0.00  0.00    +0.000 HD
ATOM     13  H   UNL     1       4.200   1.268  17.660  0.00  0.00    +0.000 HD
ENDBRANCH   1  11
BRANCH   1  14
ATOM     14  C   UNL     1       1.882   3.690  17.883  0.00  0.00    +0.000 C 
BRANCH  14  15
ATOM     15  C   UNL     1       1.821   3.502  19.378  0.00  0.00    +0.000 A 
ATOM     16  C   UNL     1       1.198   2.491  20.082  0.00  0.00    +0.000 A 
ATOM     17  C   UNL     1       1.375   2.620  21.489  0.00  0.00    +0.000 A 
ATOM     18  C   UNL     1       2.109   3.738  21.813  0.00  0.00    +0.000 A 
ATOM     19  S   UNL     1       2.592   4.615  20.426  0.00  0.00    +0.000 S 
ENDBRANCH  14  15
ENDBRANCH   1  14
TORSDOF 6
ENDMDL
MODEL 8
REMARK VINA RESULT:      -5.8      2.062      2.868
REMARK  Name = 
REMARK  8 active torsions:
REMARK  status: ('A' for Active; 'I' for Inactive)
REMARK    1  A    between atoms: C_1  and  C_2
REMARK    2  A    between atoms: C_2  and  C_3
REMARK    3  A    between atoms: C_2  and  C_4
REMARK    4  A    between atoms: C_2  and  N_6
REMARK    5  A    between atoms: C_7  and  C_9
REMARK    6  A    between atoms: C_9  and  N_10
REMARK    7  A    between atoms: C_9  and  C_11
REMARK    8  A    between atoms: C_11  and  C_12
REMARK                            x       y       z     vdW  Elec       q    Type
REMARK                         _______ _______ _______ _____ _____    ______ ____
ROOT
ATOM      1  C   UNL     1       3.119   6.376  18.331  0.00  0.00    +0.000 C 
ENDROOT
BRANCH   1   3
ATOM      2  N   UNL     1       5.483   5.791  17.990  0.00  0.00    +0.000 N 
ATOM      3  C   UNL     1       4.416   6.521  17.509  0.00  0.00    +0.000 C 
ATOM      4  O   UNL     1       4.510   7.303  16.566  0.00  0.00    +0.000 OA
ATOM      5  H   UNL     1       5.304   5.100  18.711  0.00  0.00    +0.000 HD
BRANCH   2   7
ATOM      6  C   UNL     1       7.500   7.130  17.454  0.00  0.00    +0.000 C 
ATOM      7  C   UNL     1       6.802   5.764  17.327  0.00  0.00    +0.000 C 
ATOM      8  C   UNL     1       7.692   4.651  17.910  0.00  0.00    +0.000 C 
BRANCH   7   9
ATOM      9  C   UNL     1       6.610   5.475  15.876  0.00  0.00    +0.000 C 
ATOM     10  N   UNL     1       6.480   5.266  14.742  0.00  0.00    +0.000 NA
ENDBRANCH   7   9
ENDBRANCH   2   7
ENDBRANCH   1   3
BRANCH   1  11
ATOM     11  N   UNL     1       2.306   7.595  18.103  0.00  0.00    +0.000 NA
ATOM     12  H   UNL     1       1.517   7.342  17.502  0.00  0.00    +0.000 HD
ATOM     13  H   UNL     1       2.849   8.266  17.560  0.00  0.00    +0.000 HD
ENDBRANCH   1  11
BRANCH   1  14
ATOM     14  C   UNL     1       2.347   5.119  17.894  0.00  0.00    +0.000 C 
BRANCH  14  15
ATOM     15  C   UNL     1       2.025   4.221  19.062  0.00  0.00    +0.000 A 
ATOM     16  C   UNL     1       1.552   4.586  20.308  0.00  0.00    +0.000 A 
ATOM     17  C   UNL     1       1.330   3.463  21.154  0.00  0.00    +0.000 A 
ATOM     18  C   UNL     1       1.663   2.280  20.535  0.00  0.00    +0.000 A 
ATOM     19  S   UNL     1       2.223   2.526  18.937  0.00  0.00    +0.000 S 
ENDBRANCH  14  15
ENDBRANCH   1  14
TORSDOF 6
ENDMDL
MODEL 9
REMARK VINA RESULT:      -5.8      1.370      1.955
REMARK  Name = 
REMARK  8 active torsions:
REMARK  status: ('A' for Active; 'I' for Inactive)
REMARK    1  A    between atoms: C_1  and  C_2
REMARK    2  A    between atoms: C_2  and  C_3
REMARK    3  A    between atoms: C_2  and  C_4
REMARK    4  A    between atoms: C_2  and  N_6
REMARK    5  A    between atoms: C_7  and  C_9
REMARK    6  A    between atoms: C_9  and  N_10
REMARK    7  A    between atoms: C_9  and  C_11
REMARK    8  A    between atoms: C_11  and  C_12
REMARK                            x       y       z     vdW  Elec       q    Type
REMARK                         _______ _______ _______ _____ _____    ______ ____
ROOT
ATOM      1  C   UNL     1       4.158   2.097  17.966  0.00  0.00    +0.000 C 
ENDROOT
BRANCH   1   3
ATOM      2  N   UNL     1       5.739   3.969  18.179  0.00  0.00    +0.000 N 
ATOM      3  C   UNL     1       4.762   3.395  17.392  0.00  0.00    +0.000 C 
ATOM      4  O   UNL     1       4.330   3.922  16.369  0.00  0.00    +0.000 OA
ATOM      5  H   UNL     1       6.106   3.430  18.955  0.00  0.00    +0.000 HD
BRANCH   2   7
ATOM      6  C   UNL     1       5.489   6.369  17.608  0.00  0.00    +0.000 C 
ATOM      7  C   UNL     1       6.466   5.194  17.791  0.00  0.00    +0.000 C 
ATOM      8  C   UNL     1       7.544   5.551  18.831  0.00  0.00    +0.000 C 
BRANCH   7   9
ATOM      9  C   UNL     1       7.156   4.958  16.489  0.00  0.00    +0.000 C 
ATOM     10  N   UNL     1       7.674   4.788  15.465  0.00  0.00    +0.000 NA
ENDBRANCH   7   9
ENDBRANCH   2   7
ENDBRANCH   1   3
BRANCH   1  11
ATOM     11  N   UNL     1       4.677   1.933  19.345  0.00  0.00    +0.000 NA
ATOM     12  H   UNL     1       5.305   2.717  19.543  0.00  0.00    +0.000 HD
ATOM     13  H   UNL     1       5.268   1.103  19.386  0.00  0.00    +0.000 HD
ENDBRANCH   1  11
BRANCH   1  14
ATOM     14  C   UNL     1       2.621   2.179  17.970  0.00  0.00    +0.000 C 
BRANCH  14  15
ATOM     15  C   UNL     1       2.102   2.953  19.155  0.00  0.00    +0.000 A 
ATOM     16  C   UNL     1       1.581   2.454  20.333  0.00  0.00    +0.000 A 
ATOM     17  C   UNL     1       1.218   3.484  21.246  0.00  0.00    +0.000 A 
ATOM     18  C   UNL     1       1.453   4.737  20.726  0.00  0.00    +0.000 A 
ATOM     19  S   UNL     1       2.121   4.665  19.153  0.00  0.00    +0.000 S 
ENDBRANCH  14  15
ENDBRANCH   1  14
TORSDOF 6
ENDMDL
