MODEL 1
REMARK VINA RESULT:      -8.3      0.000      0.000
REMARK  Name = 
REMARK  5 active torsions:
REMARK  status: ('A' for Active; 'I' for Inactive)
REMARK    1  A    between atoms: C_1  and  N_2
REMARK    2  A    between atoms: N_2  and  C_3
REMARK    3  A    between atoms: C_3  and  C_4
REMARK    4  A    between atoms: C_14  and  C_16
REMARK    5  A    between atoms: C_16  and  N_17
REMARK                            x       y       z     vdW  Elec       q    Type
REMARK                         _______ _______ _______ _____ _____    ______ ____
ROOT
ATOM      1  C   UNL     1       1.139   8.190  21.113  0.00  0.00    +0.000 C 
ATOM      2  N   UNL     1       1.529   8.558  19.755  0.00  0.00    +0.000 N 
ATOM      3  C   UNL     1       2.146   7.649  18.896  0.00  0.00    +0.000 C 
ATOM      4  O   UNL     1       2.442   7.962  17.738  0.00  0.00    +0.000 OA
ENDROOT
BRANCH   2   5
ATOM      5  C   UNL     1       1.459   9.949  19.281  0.00  0.00    +0.000 C 
BRANCH   5   6
ATOM      6  C   UNL     1       0.143  10.332  18.697  0.00  0.00    +0.000 A 
ATOM      7  N   UNL     1      -0.770  11.109  19.247  0.00  0.00    +0.000 NA
ATOM      8  C   UNL     1      -1.863  11.047  18.421  0.00  0.00    +0.000 A 
ATOM      9  C   UNL     1      -3.121  11.649  18.559  0.00  0.00    +0.000 A 
ATOM     10  C   UNL     1      -4.085  11.386  17.581  0.00  0.00    +0.000 A 
ATOM     11 BR   UNL     1      -5.800  12.172  17.742  0.00  0.00    +0.000 Br
ATOM     12  C   UNL     1      -3.813  10.553  16.493  0.00  0.00    +0.000 A 
ATOM     13  C   UNL     1      -2.557   9.953  16.339  0.00  0.00    +0.000 A 
ATOM     14  C   UNL     1      -1.608  10.230  17.325  0.00  0.00    +0.000 A 
ATOM     15  N   UNL     1      -0.310   9.821  17.502  0.00  0.00    +0.000 N 
ATOM     16  H   UNL     1       0.196   9.182  16.906  0.00  0.00    +0.000 HD
ENDBRANCH   5   6
ENDBRANCH   2   5
BRANCH   3  17
ATOM     17  C   UNL     1       2.409   6.216  19.393  0.00  0.00    +0.000 C 
BRANCH  17  18
ATOM     18  N   UNL     1       3.040   5.378  18.403  0.00  0.00    +0.000 N 
ATOM     19  C   UNL     1       2.410   4.437  17.614  0.00  0.00    +0.000 A 
ATOM     20  O   UNL     1       1.215   4.181  17.617  0.00  0.00    +0.000 OA
ATOM     21  O   UNL     1       3.327   3.778  16.784  0.00  0.00    +0.000 OA
ATOM     22  C   UNL     1       4.531   4.354  17.152  0.00  0.00    +0.000 A 
ATOM     23  C   UNL     1       5.765   4.014  16.640  0.00  0.00    +0.000 A 
ATOM     24  C   UNL     1       6.877   4.691  17.151  0.00  0.00    +0.000 A 
ATOM     25  C   UNL     1       6.720   5.678  18.145  0.00  0.00    +0.000 A 
ATOM     26 CL   UNL     1       8.113   6.484  18.757  0.00  0.00    +0.000 Cl
ATOM     27  C   UNL     1       5.461   6.008  18.649  0.00  0.00    +0.000 A 
ATOM     28  C   UNL     1       4.387   5.323  18.126  0.00  0.00    +0.000 A 
ENDBRANCH  17  18
ENDBRANCH   3  17
TORSDOF 4
ENDMDL
MODEL 2
REMARK VINA RESULT:      -7.5      0.904      1.574
REMARK  Name = 
REMARK  5 active torsions:
REMARK  status: ('A' for Active; 'I' for Inactive)
REMARK    1  A    between atoms: C_1  and  N_2
REMARK    2  A    between atoms: N_2  and  C_3
REMARK    3  A    between atoms: C_3  and  C_4
REMARK    4  A    between atoms: C_14  and  C_16
REMARK    5  A    between atoms: C_16  and  N_17
REMARK                            x       y       z     vdW  Elec       q    Type
REMARK                         _______ _______ _______ _____ _____    ______ ____
ROOT
ATOM      1  C   UNL     1       1.319   8.551  21.027  0.00  0.00    +0.000 C 
ATOM      2  N   UNL     1       1.476   8.792  19.595  0.00  0.00    +0.000 N 
ATOM      3  C   UNL     1       2.052   7.844  18.750  0.00  0.00    +0.000 C 
ATOM      4  O   UNL     1       2.149   8.046  17.534  0.00  0.00    +0.000 OA
ENDROOT
BRANCH   2   5
ATOM      5  C   UNL     1       1.205  10.110  19.000  0.00  0.00    +0.000 C 
BRANCH   5   6
ATOM      6  C   UNL     1      -0.226  10.521  19.049  0.00  0.00    +0.000 A 
ATOM      7  N   UNL     1      -1.167  10.215  18.177  0.00  0.00    +0.000 NA
ATOM      8  C   UNL     1      -2.273  10.937  18.549  0.00  0.00    +0.000 A 
ATOM      9  C   UNL     1      -3.532  11.017  17.940  0.00  0.00    +0.000 A 
ATOM     10  C   UNL     1      -4.482  11.872  18.507  0.00  0.00    +0.000 A 
ATOM     11 BR   UNL     1      -6.191  12.015  17.704  0.00  0.00    +0.000 Br
ATOM     12  C   UNL     1      -4.196  12.628  19.647  0.00  0.00    +0.000 A 
ATOM     13  C   UNL     1      -2.944  12.550  20.269  0.00  0.00    +0.000 A 
ATOM     14  C   UNL     1      -2.011  11.689  19.689  0.00  0.00    +0.000 A 
ATOM     15  N   UNL     1      -0.715  11.374  20.013  0.00  0.00    +0.000 N 
ATOM     16  H   UNL     1      -0.182  11.769  20.774  0.00  0.00    +0.000 HD
ENDBRANCH   5   6
ENDBRANCH   2   5
BRANCH   3  17
ATOM     17  C   UNL     1       2.520   6.503  19.343  0.00  0.00    +0.000 C 
BRANCH  17  18
ATOM     18  N   UNL     1       3.033   5.591  18.351  0.00  0.00    +0.000 N 
ATOM     19  C   UNL     1       2.396   4.462  17.878  0.00  0.00    +0.000 A 
ATOM     20  O   UNL     1       1.288   4.069  18.213  0.00  0.00    +0.000 OA
ATOM     21  O   UNL     1       3.192   3.785  16.944  0.00  0.00    +0.000 OA
ATOM     22  C   UNL     1       4.343   4.555  16.920  0.00  0.00    +0.000 A 
ATOM     23  C   UNL     1       5.466   4.283  16.168  0.00  0.00    +0.000 A 
ATOM     24  C   UNL     1       6.545   5.165  16.290  0.00  0.00    +0.000 A 
ATOM     25  C   UNL     1       6.465   6.281  17.148  0.00  0.00    +0.000 A 
ATOM     26 CL   UNL     1       7.817   7.339  17.279  0.00  0.00    +0.000 Cl
ATOM     27  C   UNL     1       5.318   6.538  17.899  0.00  0.00    +0.000 A 
ATOM     28  C   UNL     1       4.273   5.651  17.758  0.00  0.00    +0.000 A 
ENDBRANCH  17  18
ENDBRANCH   3  17
TORSDOF 4
ENDMDL
MODEL 3
REMARK VINA RESULT:      -7.3      4.783      8.028
REMARK  Name = 
REMARK  5 active torsions:
REMARK  status: ('A' for Active; 'I' for Inactive)
REMARK    1  A    between atoms: C_1  and  N_2
REMARK    2  A    between atoms: N_2  and  C_3
REMARK    3  A    between atoms: C_3  and  C_4
REMARK    4  A    between atoms: C_14  and  C_16
REMARK    5  A    between atoms: C_16  and  N_17
REMARK                            x       y       z     vdW  Elec       q    Type
REMARK                         _______ _______ _______ _____ _____    ______ ____
ROOT
ATOM      1  C   UNL     1       5.457   5.070  15.892  0.00  0.00    +0.000 C 
ATOM      2  N   UNL     1       6.088   4.917  17.200  0.00  0.00    +0.000 N 
ATOM      3  C   UNL     1       5.354   4.578  18.335  0.00  0.00    +0.000 C 
ATOM      4  O   UNL     1       5.905   4.419  19.430  0.00  0.00    +0.000 OA
ENDROOT
BRANCH   2   5
ATOM      5  C   UNL     1       7.495   5.287  17.427  0.00  0.00    +0.000 C 
BRANCH   5   6
ATOM      6  C   UNL     1       7.705   6.725  17.753  0.00  0.00    +0.000 A 
ATOM      7  N   UNL     1       7.338   7.762  17.026  0.00  0.00    +0.000 NA
ATOM      8  C   UNL     1       7.877   8.863  17.643  0.00  0.00    +0.000 A 
ATOM      9  C   UNL     1       7.829  10.211  17.263  0.00  0.00    +0.000 A 
ATOM     10  C   UNL     1       8.506  11.141  18.059  0.00  0.00    +0.000 A 
ATOM     11 BR   UNL     1       8.474  12.970  17.569  0.00  0.00    +0.000 Br
ATOM     12  C   UNL     1       9.210  10.750  19.200  0.00  0.00    +0.000 A 
ATOM     13  C   UNL     1       9.258   9.407  19.595  0.00  0.00    +0.000 A 
ATOM     14  C   UNL     1       8.573   8.495  18.789  0.00  0.00    +0.000 A 
ATOM     15  N   UNL     1       8.414   7.134  18.860  0.00  0.00    +0.000 N 
ATOM     16  H   UNL     1       8.821   6.525  19.555  0.00  0.00    +0.000 HD
ENDBRANCH   5   6
ENDBRANCH   2   5
BRANCH   3  17
ATOM     17  C   UNL     1       3.838   4.347  18.200  0.00  0.00    +0.000 C 
BRANCH  17  18
ATOM     18  N   UNL     1       3.077   4.911  19.288  0.00  0.00    +0.000 N 
ATOM     19  C   UNL     1       2.653   4.238  20.417  0.00  0.00    +0.000 A 
ATOM     20  O   UNL     1       2.873   3.065  20.679  0.00  0.00    +0.000 OA
ATOM     21  O   UNL     1       1.908   5.079  21.255  0.00  0.00    +0.000 OA
ATOM     22  C   UNL     1       1.886   6.267  20.543  0.00  0.00    +0.000 A 
ATOM     23  C   UNL     1       1.234   7.417  20.936  0.00  0.00    +0.000 A 
ATOM     24  C   UNL     1       1.304   8.516  20.074  0.00  0.00    +0.000 A 
ATOM     25  C   UNL     1       2.019   8.432  18.862  0.00  0.00    +0.000 A 
ATOM     26 CL   UNL     1       2.075   9.803  17.822  0.00  0.00    +0.000 Cl
ATOM     27  C   UNL     1       2.673   7.258  18.485  0.00  0.00    +0.000 A 
ATOM     28  C   UNL     1       2.584   6.193  19.354  0.00  0.00    +0.000 A 
ENDBRANCH  17  18
ENDBRANCH   3  17
TORSDOF 4
ENDMDL
MODEL 4
REMARK VINA RESULT:      -7.3      4.437      8.895
REMARK  Name = 
REMARK  5 active torsions:
REMARK  status: ('A' for Active; 'I' for Inactive)
REMARK    1  A    between atoms: C_1  and  N_2
REMARK    2  A    between atoms: N_2  and  C_3
REMARK    3  A    between atoms: C_3  and  C_4
REMARK    4  A    between atoms: C_14  and  C_16
REMARK    5  A    between atoms: C_16  and  N_17
REMARK                            x       y       z     vdW  Elec       q    Type
REMARK                         _______ _______ _______ _____ _____    ______ ____
ROOT
ATOM      1  C   UNL     1       1.554   9.315  17.814  0.00  0.00    +0.000 C 
ATOM      2  N   UNL     1       1.274   9.138  19.236  0.00  0.00    +0.000 N 
ATOM      3  C   UNL     1       0.691  10.147  20.001  0.00  0.00    +0.000 C 
ATOM      4  O   UNL     1       0.429   9.973  21.196  0.00  0.00    +0.000 OA
ENDROOT
BRANCH   2   5
ATOM      5  C   UNL     1       1.754   7.961  19.977  0.00  0.00    +0.000 C 
BRANCH   5   6
ATOM      6  C   UNL     1       2.563   7.011  19.161  0.00  0.00    +0.000 A 
ATOM      7  N   UNL     1       3.539   7.318  18.328  0.00  0.00    +0.000 NA
ATOM      8  C   UNL     1       3.875   6.146  17.697  0.00  0.00    +0.000 A 
ATOM      9  C   UNL     1       4.820   5.916  16.689  0.00  0.00    +0.000 A 
ATOM     10  C   UNL     1       4.937   4.617  16.184  0.00  0.00    +0.000 A 
ATOM     11 BR   UNL     1       6.195   4.271  14.811  0.00  0.00    +0.000 Br
ATOM     12  C   UNL     1       4.143   3.573  16.664  0.00  0.00    +0.000 A 
ATOM     13  C   UNL     1       3.201   3.789  17.678  0.00  0.00    +0.000 A 
ATOM     14  C   UNL     1       3.102   5.091  18.170  0.00  0.00    +0.000 A 
ATOM     15  N   UNL     1       2.304   5.660  19.131  0.00  0.00    +0.000 N 
ATOM     16  H   UNL     1       1.587   5.186  19.662  0.00  0.00    +0.000 HD
ENDBRANCH   5   6
ENDBRANCH   2   5
BRANCH   3  17
ATOM     17  C   UNL     1       0.321  11.478  19.321  0.00  0.00    +0.000 C 
BRANCH  17  18
ATOM     18  N   UNL     1      -1.093  11.757  19.350  0.00  0.00    +0.000 N 
ATOM     19  C   UNL     1      -1.787  12.329  20.398  0.00  0.00    +0.000 A 
ATOM     20  O   UNL     1      -1.308  12.706  21.457  0.00  0.00    +0.000 OA
ATOM     21  O   UNL     1      -3.154  12.425  20.105  0.00  0.00    +0.000 OA
ATOM     22  C   UNL     1      -3.232  11.848  18.848  0.00  0.00    +0.000 A 
ATOM     23  C   UNL     1      -4.393  11.667  18.127  0.00  0.00    +0.000 A 
ATOM     24  C   UNL     1      -4.279  11.043  16.880  0.00  0.00    +0.000 A 
ATOM     25  C   UNL     1      -3.021  10.627  16.399  0.00  0.00    +0.000 A 
ATOM     26 CL   UNL     1      -2.921   9.854  14.864  0.00  0.00    +0.000 Cl
ATOM     27  C   UNL     1      -1.858  10.821  17.146  0.00  0.00    +0.000 A 
ATOM     28  C   UNL     1      -2.004  11.437  18.370  0.00  0.00    +0.000 A 
ENDBRANCH  17  18
ENDBRANCH   3  17
TORSDOF 4
ENDMDL
MODEL 5
REMARK VINA RESULT:      -7.2      3.509      4.419
REMARK  Name = 
REMARK  5 active torsions:
REMARK  status: ('A' for Active; 'I' for Inactive)
REMARK    1  A    between atoms: C_1  and  N_2
REMARK    2  A    between atoms: N_2  and  C_3
REMARK    3  A    between atoms: C_3  and  C_4
REMARK    4  A    between atoms: C_14  and  C_16
REMARK    5  A    between atoms: C_16  and  N_17
REMARK                            x       y       z     vdW  Elec       q    Type
REMARK                         _______ _______ _______ _____ _____    ______ ____
ROOT
ATOM      1  C   UNL     1       1.940   7.698  20.042  0.00  0.00    +0.000 C 
ATOM      2  N   UNL     1       2.076   8.133  18.655  0.00  0.00    +0.000 N 
ATOM      3  C   UNL     1       3.137   7.713  17.854  0.00  0.00    +0.000 C 
ATOM      4  O   UNL     1       3.224   8.060  16.672  0.00  0.00    +0.000 OA
ENDROOT
BRANCH   2   5
ATOM      5  C   UNL     1       1.207   9.173  18.082  0.00  0.00    +0.000 C 
BRANCH   5   6
ATOM      6  C   UNL     1       1.513  10.554  18.553  0.00  0.00    +0.000 A 
ATOM      7  N   UNL     1       1.041  11.142  19.635  0.00  0.00    +0.000 NA
ATOM      8  C   UNL     1       1.472  12.443  19.572  0.00  0.00    +0.000 A 
ATOM      9  C   UNL     1       1.218  13.510  20.445  0.00  0.00    +0.000 A 
ATOM     10  C   UNL     1       1.750  14.762  20.122  0.00  0.00    +0.000 A 
ATOM     11 BR   UNL     1       1.417  16.230  21.272  0.00  0.00    +0.000 Br
ATOM     12  C   UNL     1       2.515  14.956  18.969  0.00  0.00    +0.000 A 
ATOM     13  C   UNL     1       2.782  13.895  18.094  0.00  0.00    +0.000 A 
ATOM     14  C   UNL     1       2.244  12.654  18.435  0.00  0.00    +0.000 A 
ATOM     15  N   UNL     1       2.291  11.425  17.825  0.00  0.00    +0.000 N 
ATOM     16  H   UNL     1       2.743  11.217  16.946  0.00  0.00    +0.000 HD
ENDBRANCH   5   6
ENDBRANCH   2   5
BRANCH   3  17
ATOM     17  C   UNL     1       4.185   6.754  18.449  0.00  0.00    +0.000 C 
BRANCH  17  18
ATOM     18  N   UNL     1       4.096   5.415  17.921  0.00  0.00    +0.000 N 
ATOM     19  C   UNL     1       4.612   4.982  16.716  0.00  0.00    +0.000 A 
ATOM     20  O   UNL     1       5.241   5.660  15.918  0.00  0.00    +0.000 OA
ATOM     21  O   UNL     1       4.315   3.630  16.497  0.00  0.00    +0.000 OA
ATOM     22  C   UNL     1       3.569   3.302  17.617  0.00  0.00    +0.000 A 
ATOM     23  C   UNL     1       3.001   2.071  17.862  0.00  0.00    +0.000 A 
ATOM     24  C   UNL     1       2.260   1.932  19.040  0.00  0.00    +0.000 A 
ATOM     25  C   UNL     1       2.115   3.018  19.928  0.00  0.00    +0.000 A 
ATOM     26 CL   UNL     1       1.189   2.812  21.364  0.00  0.00    +0.000 Cl
ATOM     27  C   UNL     1       2.701   4.256  19.660  0.00  0.00    +0.000 A 
ATOM     28  C   UNL     1       3.422   4.361  18.492  0.00  0.00    +0.000 A 
ENDBRANCH  17  18
ENDBRANCH   3  17
TORSDOF 4
ENDMDL
MODEL 6
REMARK VINA RESULT:      -7.0      2.389      3.083
REMARK  Name = 
REMARK  5 active torsions:
REMARK  status: ('A' for Active; 'I' for Inactive)
REMARK    1  A    between atoms: C_1  and  N_2
REMARK    2  A    between atoms: N_2  and  C_3
REMARK    3  A    between atoms: C_3  and  C_4
REMARK    4  A    between atoms: C_14  and  C_16
REMARK    5  A    between atoms: C_16  and  N_17
REMARK                            x       y       z     vdW  Elec       q    Type
REMARK                         _______ _______ _______ _____ _____    ______ ____
ROOT
ATOM      1  C   UNL     1       2.532   9.718  17.570  0.00  0.00    +0.000 C 
ATOM      2  N   UNL     1       2.050   8.932  18.702  0.00  0.00    +0.000 N 
ATOM      3  C   UNL     1       2.426   7.603  18.888  0.00  0.00    +0.000 C 
ATOM      4  O   UNL     1       2.038   6.959  19.868  0.00  0.00    +0.000 OA
ENDROOT
BRANCH   2   5
ATOM      5  C   UNL     1       1.004   9.439  19.605  0.00  0.00    +0.000 C 
BRANCH   5   6
ATOM      6  C   UNL     1      -0.194   9.988  18.908  0.00  0.00    +0.000 A 
ATOM      7  N   UNL     1      -1.129  10.757  19.431  0.00  0.00    +0.000 NA
ATOM      8  C   UNL     1      -2.097  10.879  18.466  0.00  0.00    +0.000 A 
ATOM      9  C   UNL     1      -3.326  11.551  18.516  0.00  0.00    +0.000 A 
ATOM     10  C   UNL     1      -4.156  11.483  17.393  0.00  0.00    +0.000 A 
ATOM     11 BR   UNL     1      -5.830  12.368  17.428  0.00  0.00    +0.000 Br
ATOM     12  C   UNL     1      -3.781  10.773  16.250  0.00  0.00    +0.000 A 
ATOM     13  C   UNL     1      -2.552  10.105  16.185  0.00  0.00    +0.000 A 
ATOM     14  C   UNL     1      -1.737  10.187  17.315  0.00  0.00    +0.000 A 
ATOM     15  N   UNL     1      -0.502   9.663  17.607  0.00  0.00    +0.000 N 
ATOM     16  H   UNL     1       0.046   9.067  17.003  0.00  0.00    +0.000 HD
ENDBRANCH   5   6
ENDBRANCH   2   5
BRANCH   3  17
ATOM     17  C   UNL     1       3.388   6.953  17.876  0.00  0.00    +0.000 C 
BRANCH  17  18
ATOM     18  N   UNL     1       4.056   5.785  18.396  0.00  0.00    +0.000 N 
ATOM     19  C   UNL     1       5.406   5.672  18.660  0.00  0.00    +0.000 A 
ATOM     20  O   UNL     1       6.243   6.551  18.514  0.00  0.00    +0.000 OA
ATOM     21  O   UNL     1       5.724   4.389  19.125  0.00  0.00    +0.000 OA
ATOM     22  C   UNL     1       4.498   3.745  19.085  0.00  0.00    +0.000 A 
ATOM     23  C   UNL     1       4.283   2.425  19.417  0.00  0.00    +0.000 A 
ATOM     24  C   UNL     1       2.976   1.940  19.294  0.00  0.00    +0.000 A 
ATOM     25  C   UNL     1       1.938   2.784  18.848  0.00  0.00    +0.000 A 
ATOM     26 CL   UNL     1       0.345   2.150  18.700  0.00  0.00    +0.000 Cl
ATOM     27  C   UNL     1       2.179   4.118  18.518  0.00  0.00    +0.000 A 
ATOM     28  C   UNL     1       3.475   4.564  18.650  0.00  0.00    +0.000 A 
ENDBRANCH  17  18
ENDBRANCH   3  17
TORSDOF 4
ENDMDL
MODEL 7
REMARK VINA RESULT:      -7.0      5.964      9.929
REMARK  Name = 
REMARK  5 active torsions:
REMARK  status: ('A' for Active; 'I' for Inactive)
REMARK    1  A    between atoms: C_1  and  N_2
REMARK    2  A    between atoms: N_2  and  C_3
REMARK    3  A    between atoms: C_3  and  C_4
REMARK    4  A    between atoms: C_14  and  C_16
REMARK    5  A    between atoms: C_16  and  N_17
REMARK                            x       y       z     vdW  Elec       q    Type
REMARK                         _______ _______ _______ _____ _____    ______ ____
ROOT
ATOM      1  C   UNL     1      -1.632  14.735  20.810  0.00  0.00    +0.000 C 
ATOM      2  N   UNL     1      -1.691  13.617  21.747  0.00  0.00    +0.000 N 
ATOM      3  C   UNL     1      -2.890  13.208  22.329  0.00  0.00    +0.000 C 
ATOM      4  O   UNL     1      -2.932  12.239  23.095  0.00  0.00    +0.000 OA
ENDROOT
BRANCH   2   5
ATOM      5  C   UNL     1      -0.470  12.979  22.265  0.00  0.00    +0.000 C 
BRANCH   5   6
ATOM      6  C   UNL     1      -0.026  11.786  21.489  0.00  0.00    +0.000 A 
ATOM      7  N   UNL     1       0.288  10.601  21.975  0.00  0.00    +0.000 NA
ATOM      8  C   UNL     1       0.782   9.881  20.915  0.00  0.00    +0.000 A 
ATOM      9  C   UNL     1       1.299   8.579  20.886  0.00  0.00    +0.000 A 
ATOM     10  C   UNL     1       1.781   8.093  19.666  0.00  0.00    +0.000 A 
ATOM     11 BR   UNL     1       2.499   6.342  19.591  0.00  0.00    +0.000 Br
ATOM     12  C   UNL     1       1.750   8.871  18.506  0.00  0.00    +0.000 A 
ATOM     13  C   UNL     1       1.227  10.170  18.522  0.00  0.00    +0.000 A 
ATOM     14  C   UNL     1       0.750  10.636  19.748  0.00  0.00    +0.000 A 
ATOM     15  N   UNL     1       0.192  11.830  20.131  0.00  0.00    +0.000 N 
ATOM     16  H   UNL     1       0.049  12.634  19.538  0.00  0.00    +0.000 HD
ENDBRANCH   5   6
ENDBRANCH   2   5
BRANCH   3  17
ATOM     17  C   UNL     1      -4.188  13.950  21.961  0.00  0.00    +0.000 C 
BRANCH  17  18
ATOM     18  N   UNL     1      -5.295  13.064  21.701  0.00  0.00    +0.000 N 
ATOM     19  C   UNL     1      -6.258  12.678  22.612  0.00  0.00    +0.000 A 
ATOM     20  O   UNL     1      -6.333  13.042  23.776  0.00  0.00    +0.000 OA
ATOM     21  O   UNL     1      -7.168  11.782  22.036  0.00  0.00    +0.000 OA
ATOM     22  C   UNL     1      -6.670  11.634  20.752  0.00  0.00    +0.000 A 
ATOM     23  C   UNL     1      -7.202  10.812  19.782  0.00  0.00    +0.000 A 
ATOM     24  C   UNL     1      -6.548  10.775  18.546  0.00  0.00    +0.000 A 
ATOM     25  C   UNL     1      -5.396  11.557  18.322  0.00  0.00    +0.000 A 
ATOM     26 CL   UNL     1      -4.612  11.479  16.791  0.00  0.00    +0.000 Cl
ATOM     27  C   UNL     1      -4.875  12.384  19.318  0.00  0.00    +0.000 A 
ATOM     28  C   UNL     1      -5.541  12.397  20.524  0.00  0.00    +0.000 A 
ENDBRANCH  17  18
ENDBRANCH   3  17
TORSDOF 4
ENDMDL
MODEL 8
REMARK VINA RESULT:      -6.9      2.307      2.758
REMARK  Name = 
REMARK  5 active torsions:
REMARK  status: ('A' for Active; 'I' for Inactive)
REMARK    1  A    between atoms: C_1  and  N_2
REMARK    2  A    between atoms: N_2  and  C_3
REMARK    3  A    between atoms: C_3  and  C_4
REMARK    4  A    between atoms: C_14  and  C_16
REMARK    5  A    between atoms: C_16  and  N_17
REMARK                            x       y       z     vdW  Elec       q    Type
REMARK                         _______ _______ _______ _____ _____    ______ ____
ROOT
ATOM      1  C   UNL     1       1.320   8.277  21.374  0.00  0.00    +0.000 C 
ATOM      2  N   UNL     1       1.468   8.597  19.957  0.00  0.00    +0.000 N 
ATOM      3  C   UNL     1       2.040   7.699  19.057  0.00  0.00    +0.000 C 
ATOM      4  O   UNL     1       2.128   7.968  17.854  0.00  0.00    +0.000 OA
ENDROOT
BRANCH   2   5
ATOM      5  C   UNL     1       1.189   9.945  19.437  0.00  0.00    +0.000 C 
BRANCH   5   6
ATOM      6  C   UNL     1       0.159  10.697  20.206  0.00  0.00    +0.000 A 
ATOM      7  N   UNL     1      -0.056  10.639  21.506  0.00  0.00    +0.000 NA
ATOM      8  C   UNL     1      -1.192  11.375  21.732  0.00  0.00    +0.000 A 
ATOM      9  C   UNL     1      -1.883  11.604  22.929  0.00  0.00    +0.000 A 
ATOM     10  C   UNL     1      -3.053  12.368  22.875  0.00  0.00    +0.000 A 
ATOM     11 BR   UNL     1      -4.020  12.688  24.472  0.00  0.00    +0.000 Br
ATOM     12  C   UNL     1      -3.527  12.894  21.671  0.00  0.00    +0.000 A 
ATOM     13  C   UNL     1      -2.840  12.680  20.469  0.00  0.00    +0.000 A 
ATOM     14  C   UNL     1      -1.674  11.917  20.545  0.00  0.00    +0.000 A 
ATOM     15  N   UNL     1      -0.772  11.506  19.595  0.00  0.00    +0.000 N 
ATOM     16  H   UNL     1      -0.832  11.690  18.603  0.00  0.00    +0.000 HD
ENDBRANCH   5   6
ENDBRANCH   2   5
BRANCH   3  17
ATOM     17  C   UNL     1       2.515   6.328  19.572  0.00  0.00    +0.000 C 
BRANCH  17  18
ATOM     18  N   UNL     1       2.946   5.443  18.518  0.00  0.00    +0.000 N 
ATOM     19  C   UNL     1       2.252   4.349  18.042  0.00  0.00    +0.000 A 
ATOM     20  O   UNL     1       1.155   3.972  18.426  0.00  0.00    +0.000 OA
ATOM     21  O   UNL     1       2.975   3.691  17.038  0.00  0.00    +0.000 OA
ATOM     22  C   UNL     1       4.143   4.431  16.976  0.00  0.00    +0.000 A 
ATOM     23  C   UNL     1       5.213   4.161  16.150  0.00  0.00    +0.000 A 
ATOM     24  C   UNL     1       6.321   5.010  16.241  0.00  0.00    +0.000 A 
ATOM     25  C   UNL     1       6.321   6.093  17.144  0.00  0.00    +0.000 A 
ATOM     26 CL   UNL     1       7.706   7.111  17.236  0.00  0.00    +0.000 Cl
ATOM     27  C   UNL     1       5.226   6.349  17.970  0.00  0.00    +0.000 A 
ATOM     28  C   UNL     1       4.151   5.495  17.857  0.00  0.00    +0.000 A 
ENDBRANCH  17  18
ENDBRANCH   3  17
TORSDOF 4
ENDMDL
MODEL 9
REMARK VINA RESULT:      -6.9      3.243      4.118
REMARK  Name = 
REMARK  5 active torsions:
REMARK  status: ('A' for Active; 'I' for Inactive)
REMARK    1  A    between atoms: C_1  and  N_2
REMARK    2  A    between atoms: N_2  and  C_3
REMARK    3  A    between atoms: C_3  and  C_4
REMARK    4  A    between atoms: C_14  and  C_16
REMARK    5  A    between atoms: C_16  and  N_17
REMARK                            x       y       z     vdW  Elec       q    Type
REMARK                         _______ _______ _______ _____ _____    ______ ____
ROOT
ATOM      1  C   UNL     1       0.956   8.606  20.960  0.00  0.00    +0.000 C 
ATOM      2  N   UNL     1       1.096   8.860  19.528  0.00  0.00    +0.000 N 
ATOM      3  C   UNL     1       1.901   8.064  18.716  0.00  0.00    +0.000 C 
ATOM      4  O   UNL     1       1.985   8.268  17.500  0.00  0.00    +0.000 OA
ENDROOT
BRANCH   2   5
ATOM      5  C   UNL     1       0.542  10.071  18.901  0.00  0.00    +0.000 C 
BRANCH   5   6
ATOM      6  C   UNL     1       1.319  11.313  19.175  0.00  0.00    +0.000 A 
ATOM      7  N   UNL     1       1.326  12.009  20.296  0.00  0.00    +0.000 NA
ATOM      8  C   UNL     1       2.056  13.140  20.029  0.00  0.00    +0.000 A 
ATOM      9  C   UNL     1       2.338  14.235  20.857  0.00  0.00    +0.000 A 
ATOM     10  C   UNL     1       3.080  15.291  20.318  0.00  0.00    +0.000 A 
ATOM     11 BR   UNL     1       3.469  16.793  21.404  0.00  0.00    +0.000 Br
ATOM     12  C   UNL     1       3.534  15.265  18.998  0.00  0.00    +0.000 A 
ATOM     13  C   UNL     1       3.267  14.172  18.163  0.00  0.00    +0.000 A 
ATOM     14  C   UNL     1       2.527  13.128  18.721  0.00  0.00    +0.000 A 
ATOM     15  N   UNL     1       2.080  11.934  18.211  0.00  0.00    +0.000 N 
ATOM     16  H   UNL     1       2.210  11.609  17.264  0.00  0.00    +0.000 HD
ENDBRANCH   5   6
ENDBRANCH   2   5
BRANCH   3  17
ATOM     17  C   UNL     1       2.651   6.876  19.346  0.00  0.00    +0.000 C 
BRANCH  17  18
ATOM     18  N   UNL     1       3.190   5.961  18.370  0.00  0.00    +0.000 N 
ATOM     19  C   UNL     1       2.580   4.811  17.911  0.00  0.00    +0.000 A 
ATOM     20  O   UNL     1       1.479   4.399  18.247  0.00  0.00    +0.000 OA
ATOM     21  O   UNL     1       3.395   4.139  16.991  0.00  0.00    +0.000 OA
ATOM     22  C   UNL     1       4.529   4.934  16.961  0.00  0.00    +0.000 A 
ATOM     23  C   UNL     1       5.662   4.676  16.219  0.00  0.00    +0.000 A 
ATOM     24  C   UNL     1       6.720   5.583  16.332  0.00  0.00    +0.000 A 
ATOM     25  C   UNL     1       6.612   6.709  17.174  0.00  0.00    +0.000 A 
ATOM     26 CL   UNL     1       7.939   7.799  17.295  0.00  0.00    +0.000 Cl
ATOM     27  C   UNL     1       5.455   6.951  17.915  0.00  0.00    +0.000 A 
ATOM     28  C   UNL     1       4.431   6.040  17.783  0.00  0.00    +0.000 A 
ENDBRANCH  17  18
ENDBRANCH   3  17
TORSDOF 4
ENDMDL
