MODEL 1
REMARK VINA RESULT:      -9.4      0.000      0.000
REMARK  Name = 
REMARK  6 active torsions:
REMARK  status: ('A' for Active; 'I' for Inactive)
REMARK    1  A    between atoms: N_3  and  C_4
REMARK    2  A    between atoms: C_6  and  C_7
REMARK    3  A    between atoms: C_12  and  C_13
REMARK    4  A    between atoms: N_18  and  C_19
REMARK    5  A    between atoms: N_22  and  C_23
REMARK    6  A    between atoms: C_29  and  C_30
REMARK                            x       y       z     vdW  Elec       q    Type
REMARK                         _______ _______ _______ _____ _____    ______ ____
ROOT
ATOM      1  O   UNL     1       1.352   8.668  18.620  0.00  0.00    +0.000 OA
ATOM      2  C   UNL     1       1.754   8.337  19.729  0.00  0.00    +0.000 C 
ATOM      3  N   UNL     1       2.419   7.150  20.021  0.00  0.00    +0.000 N 
ATOM      4  N   UNL     1       1.548   9.093  20.863  0.00  0.00    +0.000 N 
ATOM      5  H   UNL     1       2.474   6.891  20.993  0.00  0.00    +0.000 HD
ATOM      6  H   UNL     1       2.005   8.816  21.721  0.00  0.00    +0.000 HD
ENDROOT
BRANCH   3   7
ATOM      7  C   UNL     1       2.730   6.149  19.075  0.00  0.00    +0.000 A 
ATOM      8  C   UNL     1       2.157   4.876  19.119  0.00  0.00    +0.000 A 
ATOM      9  C   UNL     1       2.558   3.862  18.244  0.00  0.00    +0.000 A 
ATOM     10  C   UNL     1       3.524   4.152  17.273  0.00  0.00    +0.000 A 
ATOM     11  C   UNL     1       4.086   5.437  17.178  0.00  0.00    +0.000 A 
ATOM     12  C   UNL     1       3.670   6.436  18.080  0.00  0.00    +0.000 A 
BRANCH   9  13
ATOM     13  C   UNL     1       1.975   2.476  18.376  0.00  0.00    +0.000 C 
ATOM     14  F   UNL     1       0.615   2.450  18.427  0.00  0.00    +0.000 F 
ATOM     15  F   UNL     1       2.325   1.666  17.341  0.00  0.00    +0.000 F 
ATOM     16  F   UNL     1       2.401   1.846  19.507  0.00  0.00    +0.000 F 
ENDBRANCH   9  13
BRANCH  11  17
ATOM     17  C   UNL     1       5.151   5.740  16.149  0.00  0.00    +0.000 C 
ATOM     18  F   UNL     1       4.977   6.937  15.524  0.00  0.00    +0.000 F 
ATOM     19  F   UNL     1       6.400   5.775  16.687  0.00  0.00    +0.000 F 
ATOM     20  F   UNL     1       5.194   4.803  15.162  0.00  0.00    +0.000 F 
ENDBRANCH  11  17
ENDBRANCH   3   7
BRANCH   4  21
ATOM     21  C   UNL     1       0.820  10.273  20.877  0.00  0.00    +0.000 A 
ATOM     22  C   UNL     1       0.863  11.393  20.031  0.00  0.00    +0.000 A 
ATOM     23  N   UNL     1       0.040  12.357  20.435  0.00  0.00    +0.000 NA
ATOM     24  N   UNL     1      -0.604  11.853  21.523  0.00  0.00    +0.000 N 
ATOM     25  C   UNL     1      -0.149  10.576  21.812  0.00  0.00    +0.000 A 
BRANCH  24  26
ATOM     26  C   UNL     1      -1.558  12.687  22.185  0.00  0.00    +0.000 A 
ATOM     27  C   UNL     1      -2.917  12.696  21.856  0.00  0.00    +0.000 A 
ATOM     28  C   UNL     1      -3.820  13.471  22.591  0.00  0.00    +0.000 A 
ATOM     29  C   UNL     1      -3.377  14.256  23.649  0.00  0.00    +0.000 A 
ATOM     30  C   UNL     1      -2.020  14.298  23.954  0.00  0.00    +0.000 A 
ATOM     31  C   UNL     1      -1.112  13.527  23.221  0.00  0.00    +0.000 A 
ENDBRANCH  24  26
BRANCH  25  32
ATOM     32  C   UNL     1      -0.592   9.769  22.948  0.00  0.00    +0.000 C 
ATOM     33  F   UNL     1      -1.008   8.534  22.538  0.00  0.00    +0.000 F 
ATOM     34  F   UNL     1       0.376   9.548  23.866  0.00  0.00    +0.000 F 
ATOM     35  F   UNL     1      -1.659  10.314  23.582  0.00  0.00    +0.000 F 
ENDBRANCH  25  32
ENDBRANCH   4  21
TORSDOF 6
ENDMDL
MODEL 2
REMARK VINA RESULT:      -9.4      0.070      1.134
REMARK  Name = 
REMARK  6 active torsions:
REMARK  status: ('A' for Active; 'I' for Inactive)
REMARK    1  A    between atoms: N_3  and  C_4
REMARK    2  A    between atoms: C_6  and  C_7
REMARK    3  A    between atoms: C_12  and  C_13
REMARK    4  A    between atoms: N_18  and  C_19
REMARK    5  A    between atoms: N_22  and  C_23
REMARK    6  A    between atoms: C_29  and  C_30
REMARK                            x       y       z     vdW  Elec       q    Type
REMARK                         _______ _______ _______ _____ _____    ______ ____
ROOT
ATOM      1  O   UNL     1       1.288   8.659  18.600  0.00  0.00    +0.000 OA
ATOM      2  C   UNL     1       1.729   8.357  19.701  0.00  0.00    +0.000 C 
ATOM      3  N   UNL     1       2.426   7.189  19.995  0.00  0.00    +0.000 N 
ATOM      4  N   UNL     1       1.543   9.130  20.827  0.00  0.00    +0.000 N 
ATOM      5  H   UNL     1       2.515   6.949  20.970  0.00  0.00    +0.000 HD
ATOM      6  H   UNL     1       2.031   8.878  21.677  0.00  0.00    +0.000 HD
ENDROOT
BRANCH   3   7
ATOM      7  C   UNL     1       2.729   6.175  19.060  0.00  0.00    +0.000 A 
ATOM      8  C   UNL     1       2.133   4.913  19.106  0.00  0.00    +0.000 A 
ATOM      9  C   UNL     1       2.524   3.886  18.242  0.00  0.00    +0.000 A 
ATOM     10  C   UNL     1       3.505   4.153  17.278  0.00  0.00    +0.000 A 
ATOM     11  C   UNL     1       4.089   5.428  17.180  0.00  0.00    +0.000 A 
ATOM     12  C   UNL     1       3.683   6.439  18.071  0.00  0.00    +0.000 A 
BRANCH   9  13
ATOM     13  C   UNL     1       1.917   2.511  18.378  0.00  0.00    +0.000 C 
ATOM     14  F   UNL     1       2.276   1.858  19.518  0.00  0.00    +0.000 F 
ATOM     15  F   UNL     1       0.557   2.544  18.380  0.00  0.00    +0.000 F 
ATOM     16  F   UNL     1       2.271   1.689  17.352  0.00  0.00    +0.000 F 
ENDBRANCH   9  13
BRANCH  11  17
ATOM     17  C   UNL     1       5.169   5.704  16.159  0.00  0.00    +0.000 C 
ATOM     18  F   UNL     1       6.426   5.702  16.685  0.00  0.00    +0.000 F 
ATOM     19  F   UNL     1       5.181   4.789  15.153  0.00  0.00    +0.000 F 
ATOM     20  F   UNL     1       5.014   6.917  15.562  0.00  0.00    +0.000 F 
ENDBRANCH  11  17
ENDBRANCH   3   7
BRANCH   4  21
ATOM     21  C   UNL     1       0.792  10.296  20.841  0.00  0.00    +0.000 A 
ATOM     22  C   UNL     1       0.811  11.414  19.993  0.00  0.00    +0.000 A 
ATOM     23  N   UNL     1      -0.029  12.364  20.398  0.00  0.00    +0.000 NA
ATOM     24  N   UNL     1      -0.659  11.850  21.490  0.00  0.00    +0.000 N 
ATOM     25  C   UNL     1      -0.179  10.583  21.780  0.00  0.00    +0.000 A 
BRANCH  24  26
ATOM     26  C   UNL     1      -1.627  12.667  22.153  0.00  0.00    +0.000 A 
ATOM     27  C   UNL     1      -2.985  12.657  21.822  0.00  0.00    +0.000 A 
ATOM     28  C   UNL     1      -3.901  13.416  22.558  0.00  0.00    +0.000 A 
ATOM     29  C   UNL     1      -3.471  14.203  23.620  0.00  0.00    +0.000 A 
ATOM     30  C   UNL     1      -2.115  14.264  23.927  0.00  0.00    +0.000 A 
ATOM     31  C   UNL     1      -1.195  13.510  23.193  0.00  0.00    +0.000 A 
ENDBRANCH  24  26
BRANCH  25  32
ATOM     32  C   UNL     1      -0.602   9.770  22.919  0.00  0.00    +0.000 C 
ATOM     33  F   UNL     1       0.432   9.572  23.789  0.00  0.00    +0.000 F 
ATOM     34  F   UNL     1      -1.595  10.330  23.645  0.00  0.00    +0.000 F 
ATOM     35  F   UNL     1      -0.998   8.529  22.547  0.00  0.00    +0.000 F 
ENDBRANCH  25  32
ENDBRANCH   4  21
TORSDOF 6
ENDMDL
MODEL 3
REMARK VINA RESULT:      -9.4      0.100      1.067
REMARK  Name = 
REMARK  6 active torsions:
REMARK  status: ('A' for Active; 'I' for Inactive)
REMARK    1  A    between atoms: N_3  and  C_4
REMARK    2  A    between atoms: C_6  and  C_7
REMARK    3  A    between atoms: C_12  and  C_13
REMARK    4  A    between atoms: N_18  and  C_19
REMARK    5  A    between atoms: N_22  and  C_23
REMARK    6  A    between atoms: C_29  and  C_30
REMARK                            x       y       z     vdW  Elec       q    Type
REMARK                         _______ _______ _______ _____ _____    ______ ____
ROOT
ATOM      1  O   UNL     1       1.315   8.673  18.628  0.00  0.00    +0.000 OA
ATOM      2  C   UNL     1       1.746   8.356  19.730  0.00  0.00    +0.000 C 
ATOM      3  N   UNL     1       2.429   7.178  20.017  0.00  0.00    +0.000 N 
ATOM      4  N   UNL     1       1.559   9.120  20.862  0.00  0.00    +0.000 N 
ATOM      5  H   UNL     1       2.509   6.928  20.990  0.00  0.00    +0.000 HD
ATOM      6  H   UNL     1       2.039   8.855  21.712  0.00  0.00    +0.000 HD
ENDROOT
BRANCH   3   7
ATOM      7  C   UNL     1       2.728   6.171  19.073  0.00  0.00    +0.000 A 
ATOM      8  C   UNL     1       2.135   4.908  19.115  0.00  0.00    +0.000 A 
ATOM      9  C   UNL     1       2.523   3.887  18.243  0.00  0.00    +0.000 A 
ATOM     10  C   UNL     1       3.497   4.161  17.275  0.00  0.00    +0.000 A 
ATOM     11  C   UNL     1       4.079   5.437  17.181  0.00  0.00    +0.000 A 
ATOM     12  C   UNL     1       3.676   6.443  18.081  0.00  0.00    +0.000 A 
BRANCH   9  13
ATOM     13  C   UNL     1       1.918   2.510  18.374  0.00  0.00    +0.000 C 
ATOM     14  F   UNL     1       0.557   2.505  18.416  0.00  0.00    +0.000 F 
ATOM     15  F   UNL     1       2.262   1.693  17.343  0.00  0.00    +0.000 F 
ATOM     16  F   UNL     1       2.326   1.876  19.509  0.00  0.00    +0.000 F 
ENDBRANCH   9  13
BRANCH  11  17
ATOM     17  C   UNL     1       5.152   5.722  16.156  0.00  0.00    +0.000 C 
ATOM     18  F   UNL     1       6.408   5.760  16.681  0.00  0.00    +0.000 F 
ATOM     19  F   UNL     1       5.187   4.790  15.166  0.00  0.00    +0.000 F 
ATOM     20  F   UNL     1       4.968   6.921  15.537  0.00  0.00    +0.000 F 
ENDBRANCH  11  17
ENDBRANCH   3   7
BRANCH   4  21
ATOM     21  C   UNL     1       0.820  10.294  20.882  0.00  0.00    +0.000 A 
ATOM     22  C   UNL     1       0.851  11.417  20.041  0.00  0.00    +0.000 A 
ATOM     23  N   UNL     1       0.020  12.372  20.451  0.00  0.00    +0.000 NA
ATOM     24  N   UNL     1      -0.617  11.857  21.539  0.00  0.00    +0.000 N 
ATOM     25  C   UNL     1      -0.150  10.584  21.822  0.00  0.00    +0.000 A 
BRANCH  24  26
ATOM     26  C   UNL     1      -1.578  12.679  22.206  0.00  0.00    +0.000 A 
ATOM     27  C   UNL     1      -1.254  13.500  23.290  0.00  0.00    +0.000 A 
ATOM     28  C   UNL     1      -2.216  14.345  23.853  0.00  0.00    +0.000 A 
ATOM     29  C   UNL     1      -3.512  14.369  23.354  0.00  0.00    +0.000 A 
ATOM     30  C   UNL     1      -3.863  13.518  22.309  0.00  0.00    +0.000 A 
ATOM     31  C   UNL     1      -2.906  12.669  21.744  0.00  0.00    +0.000 A 
ENDBRANCH  24  26
BRANCH  25  32
ATOM     32  C   UNL     1      -0.582   9.768  22.955  0.00  0.00    +0.000 C 
ATOM     33  F   UNL     1      -1.001   8.535  22.538  0.00  0.00    +0.000 F 
ATOM     34  F   UNL     1       0.393   9.540  23.862  0.00  0.00    +0.000 F 
ATOM     35  F   UNL     1      -1.644  10.306  23.601  0.00  0.00    +0.000 F 
ENDBRANCH  25  32
ENDBRANCH   4  21
TORSDOF 6
ENDMDL
MODEL 4
REMARK VINA RESULT:      -9.4      0.182      3.084
REMARK  Name = 
REMARK  6 active torsions:
REMARK  status: ('A' for Active; 'I' for Inactive)
REMARK    1  A    between atoms: N_3  and  C_4
REMARK    2  A    between atoms: C_6  and  C_7
REMARK    3  A    between atoms: C_12  and  C_13
REMARK    4  A    between atoms: N_18  and  C_19
REMARK    5  A    between atoms: N_22  and  C_23
REMARK    6  A    between atoms: C_29  and  C_30
REMARK                            x       y       z     vdW  Elec       q    Type
REMARK                         _______ _______ _______ _____ _____    ______ ____
ROOT
ATOM      1  O   UNL     1       1.540   8.557  18.587  0.00  0.00    +0.000 OA
ATOM      2  C   UNL     1       1.873   8.234  19.720  0.00  0.00    +0.000 C 
ATOM      3  N   UNL     1       2.547   7.064  20.057  0.00  0.00    +0.000 N 
ATOM      4  N   UNL     1       1.571   8.982  20.838  0.00  0.00    +0.000 N 
ATOM      5  H   UNL     1       2.542   6.805  21.030  0.00  0.00    +0.000 HD
ATOM      6  H   UNL     1       1.975   8.715  21.726  0.00  0.00    +0.000 HD
ENDROOT
BRANCH   3   7
ATOM      7  C   UNL     1       2.948   6.073  19.135  0.00  0.00    +0.000 A 
ATOM      8  C   UNL     1       3.886   6.323  18.130  0.00  0.00    +0.000 A 
ATOM      9  C   UNL     1       4.191   5.366  17.158  0.00  0.00    +0.000 A 
ATOM     10  C   UNL     1       3.571   4.112  17.229  0.00  0.00    +0.000 A 
ATOM     11  C   UNL     1       2.656   3.819  18.255  0.00  0.00    +0.000 A 
ATOM     12  C   UNL     1       2.361   4.806  19.214  0.00  0.00    +0.000 A 
BRANCH   9  13
ATOM     13  C   UNL     1       5.147   5.702  16.040  0.00  0.00    +0.000 C 
ATOM     14  F   UNL     1       6.449   5.785  16.431  0.00  0.00    +0.000 F 
ATOM     15  F   UNL     1       5.116   4.783  15.038  0.00  0.00    +0.000 F 
ATOM     16  F   UNL     1       4.857   6.900  15.459  0.00  0.00    +0.000 F 
ENDBRANCH   9  13
BRANCH  11  17
ATOM     17  C   UNL     1       1.965   2.475  18.312  0.00  0.00    +0.000 C 
ATOM     18  F   UNL     1       2.298   1.740  19.408  0.00  0.00    +0.000 F 
ATOM     19  F   UNL     1       0.610   2.587  18.332  0.00  0.00    +0.000 F 
ATOM     20  F   UNL     1       2.262   1.698  17.234  0.00  0.00    +0.000 F 
ENDBRANCH  11  17
ENDBRANCH   3   7
BRANCH   4  21
ATOM     21  C   UNL     1       0.813  10.143  20.802  0.00  0.00    +0.000 A 
ATOM     22  C   UNL     1       0.818  11.220  19.902  0.00  0.00    +0.000 A 
ATOM     23  N   UNL     1      -0.024  12.183  20.267  0.00  0.00    +0.000 NA
ATOM     24  N   UNL     1      -0.643  11.718  21.388  0.00  0.00    +0.000 N 
ATOM     25  C   UNL     1      -0.153  10.468  21.734  0.00  0.00    +0.000 A 
BRANCH  24  26
ATOM     26  C   UNL     1      -1.611  12.559  22.019  0.00  0.00    +0.000 A 
ATOM     27  C   UNL     1      -2.955  12.592  21.636  0.00  0.00    +0.000 A 
ATOM     28  C   UNL     1      -3.875  13.374  22.342  0.00  0.00    +0.000 A 
ATOM     29  C   UNL     1      -3.464  14.141  23.425  0.00  0.00    +0.000 A 
ATOM     30  C   UNL     1      -2.119  14.160  23.784  0.00  0.00    +0.000 A 
ATOM     31  C   UNL     1      -1.194  13.383  23.081  0.00  0.00    +0.000 A 
ENDBRANCH  24  26
BRANCH  25  32
ATOM     32  C   UNL     1      -0.562   9.708  22.914  0.00  0.00    +0.000 C 
ATOM     33  F   UNL     1      -0.980   8.454  22.567  0.00  0.00    +0.000 F 
ATOM     34  F   UNL     1       0.429   9.532  23.816  0.00  0.00    +0.000 F 
ATOM     35  F   UNL     1      -1.617  10.273  23.550  0.00  0.00    +0.000 F 
ENDBRANCH  25  32
ENDBRANCH   4  21
TORSDOF 6
ENDMDL
MODEL 5
REMARK VINA RESULT:      -9.3      0.142      3.114
REMARK  Name = 
REMARK  6 active torsions:
REMARK  status: ('A' for Active; 'I' for Inactive)
REMARK    1  A    between atoms: N_3  and  C_4
REMARK    2  A    between atoms: C_6  and  C_7
REMARK    3  A    between atoms: C_12  and  C_13
REMARK    4  A    between atoms: N_18  and  C_19
REMARK    5  A    between atoms: N_22  and  C_23
REMARK    6  A    between atoms: C_29  and  C_30
REMARK                            x       y       z     vdW  Elec       q    Type
REMARK                         _______ _______ _______ _____ _____    ______ ____
ROOT
ATOM      1  O   UNL     1       1.600   8.641  18.662  0.00  0.00    +0.000 OA
ATOM      2  C   UNL     1       1.870   8.268  19.796  0.00  0.00    +0.000 C 
ATOM      3  N   UNL     1       2.480   7.060  20.121  0.00  0.00    +0.000 N 
ATOM      4  N   UNL     1       1.549   8.991  20.925  0.00  0.00    +0.000 N 
ATOM      5  H   UNL     1       2.422   6.770  21.084  0.00  0.00    +0.000 HD
ATOM      6  H   UNL     1       1.903   8.679  21.819  0.00  0.00    +0.000 HD
ENDROOT
BRANCH   3   7
ATOM      7  C   UNL     1       2.881   6.084  19.183  0.00  0.00    +0.000 A 
ATOM      8  C   UNL     1       3.823   6.347  18.186  0.00  0.00    +0.000 A 
ATOM      9  C   UNL     1       4.127   5.405  17.199  0.00  0.00    +0.000 A 
ATOM     10  C   UNL     1       3.503   4.152  17.247  0.00  0.00    +0.000 A 
ATOM     11  C   UNL     1       2.584   3.845  18.265  0.00  0.00    +0.000 A 
ATOM     12  C   UNL     1       2.289   4.817  19.240  0.00  0.00    +0.000 A 
BRANCH   9  13
ATOM     13  C   UNL     1       5.087   5.757  16.089  0.00  0.00    +0.000 C 
ATOM     14  F   UNL     1       5.139   4.835  15.088  0.00  0.00    +0.000 F 
ATOM     15  F   UNL     1       4.776   6.939  15.491  0.00  0.00    +0.000 F 
ATOM     16  F   UNL     1       6.367   5.889  16.539  0.00  0.00    +0.000 F 
ENDBRANCH   9  13
BRANCH  11  17
ATOM     17  C   UNL     1       1.889   2.503  18.297  0.00  0.00    +0.000 C 
ATOM     18  F   UNL     1       2.155   1.728  17.210  0.00  0.00    +0.000 F 
ATOM     19  F   UNL     1       2.239   1.761  19.382  0.00  0.00    +0.000 F 
ATOM     20  F   UNL     1       0.534   2.626  18.347  0.00  0.00    +0.000 F 
ENDBRANCH  11  17
ENDBRANCH   3   7
BRANCH   4  21
ATOM     21  C   UNL     1       0.842  10.184  20.896  0.00  0.00    +0.000 A 
ATOM     22  C   UNL     1       0.916  11.280  20.022  0.00  0.00    +0.000 A 
ATOM     23  N   UNL     1       0.104  12.268  20.388  0.00  0.00    +0.000 NA
ATOM     24  N   UNL     1      -0.565  11.804  21.480  0.00  0.00    +0.000 N 
ATOM     25  C   UNL     1      -0.136  10.528  21.809  0.00  0.00    +0.000 A 
BRANCH  24  26
ATOM     26  C   UNL     1      -1.514  12.671  22.105  0.00  0.00    +0.000 A 
ATOM     27  C   UNL     1      -2.860  12.722  21.729  0.00  0.00    +0.000 A 
ATOM     28  C   UNL     1      -3.762  13.529  22.429  0.00  0.00    +0.000 A 
ATOM     29  C   UNL     1      -3.331  14.304  23.498  0.00  0.00    +0.000 A 
ATOM     30  C   UNL     1      -1.984  14.304  23.851  0.00  0.00    +0.000 A 
ATOM     31  C   UNL     1      -1.077  13.502  23.152  0.00  0.00    +0.000 A 
ENDBRANCH  24  26
BRANCH  25  32
ATOM     32  C   UNL     1      -0.609   9.759  22.959  0.00  0.00    +0.000 C 
ATOM     33  F   UNL     1       0.391   9.578  23.872  0.00  0.00    +0.000 F 
ATOM     34  F   UNL     1      -1.620  10.354  23.630  0.00  0.00    +0.000 F 
ATOM     35  F   UNL     1      -1.008   8.510  22.614  0.00  0.00    +0.000 F 
ENDBRANCH  25  32
ENDBRANCH   4  21
TORSDOF 6
ENDMDL
MODEL 6
REMARK VINA RESULT:      -9.3      0.217      3.241
REMARK  Name = 
REMARK  6 active torsions:
REMARK  status: ('A' for Active; 'I' for Inactive)
REMARK    1  A    between atoms: N_3  and  C_4
REMARK    2  A    between atoms: C_6  and  C_7
REMARK    3  A    between atoms: C_12  and  C_13
REMARK    4  A    between atoms: N_18  and  C_19
REMARK    5  A    between atoms: N_22  and  C_23
REMARK    6  A    between atoms: C_29  and  C_30
REMARK                            x       y       z     vdW  Elec       q    Type
REMARK                         _______ _______ _______ _____ _____    ______ ____
ROOT
ATOM      1  O   UNL     1       1.577   8.593  18.621  0.00  0.00    +0.000 OA
ATOM      2  C   UNL     1       1.881   8.250  19.757  0.00  0.00    +0.000 C 
ATOM      3  N   UNL     1       2.522   7.062  20.092  0.00  0.00    +0.000 N 
ATOM      4  N   UNL     1       1.572   8.991  20.877  0.00  0.00    +0.000 N 
ATOM      5  H   UNL     1       2.492   6.791  21.063  0.00  0.00    +0.000 HD
ATOM      6  H   UNL     1       1.952   8.705  21.770  0.00  0.00    +0.000 HD
ENDROOT
BRANCH   3   7
ATOM      7  C   UNL     1       2.921   6.073  19.167  0.00  0.00    +0.000 A 
ATOM      8  C   UNL     1       3.861   6.323  18.165  0.00  0.00    +0.000 A 
ATOM      9  C   UNL     1       4.162   5.369  17.189  0.00  0.00    +0.000 A 
ATOM     10  C   UNL     1       3.538   4.117  17.254  0.00  0.00    +0.000 A 
ATOM     11  C   UNL     1       2.620   3.823  18.278  0.00  0.00    +0.000 A 
ATOM     12  C   UNL     1       2.328   4.808  19.241  0.00  0.00    +0.000 A 
BRANCH   9  13
ATOM     13  C   UNL     1       5.121   5.706  16.072  0.00  0.00    +0.000 C 
ATOM     14  F   UNL     1       4.853   6.888  15.452  0.00  0.00    +0.000 F 
ATOM     15  F   UNL     1       6.407   5.795  16.504  0.00  0.00    +0.000 F 
ATOM     16  F   UNL     1       5.118   4.762  15.090  0.00  0.00    +0.000 F 
ENDBRANCH   9  13
BRANCH  11  17
ATOM     17  C   UNL     1       1.924   2.482  18.328  0.00  0.00    +0.000 C 
ATOM     18  F   UNL     1       0.566   2.577  18.343  0.00  0.00    +0.000 F 
ATOM     19  F   UNL     1       2.234   1.695  17.264  0.00  0.00    +0.000 F 
ATOM     20  F   UNL     1       2.263   1.767  19.436  0.00  0.00    +0.000 F 
ENDBRANCH  11  17
ENDBRANCH   3   7
BRANCH   4  21
ATOM     21  C   UNL     1       0.840  10.169  20.840  0.00  0.00    +0.000 A 
ATOM     22  C   UNL     1       0.893  11.260  19.959  0.00  0.00    +0.000 A 
ATOM     23  N   UNL     1       0.061  12.234  20.317  0.00  0.00    +0.000 NA
ATOM     24  N   UNL     1      -0.599  11.765  21.412  0.00  0.00    +0.000 N 
ATOM     25  C   UNL     1      -0.145  10.500  21.750  0.00  0.00    +0.000 A 
BRANCH  24  26
ATOM     26  C   UNL     1      -1.565  12.616  22.030  0.00  0.00    +0.000 A 
ATOM     27  C   UNL     1      -1.265  13.449  23.113  0.00  0.00    +0.000 A 
ATOM     28  C   UNL     1      -2.229  14.321  23.626  0.00  0.00    +0.000 A 
ATOM     29  C   UNL     1      -3.505  14.363  23.079  0.00  0.00    +0.000 A 
ATOM     30  C   UNL     1      -3.835  13.503  22.036  0.00  0.00    +0.000 A 
ATOM     31  C   UNL     1      -2.876  12.626  21.520  0.00  0.00    +0.000 A 
ENDBRANCH  24  26
BRANCH  25  32
ATOM     32  C   UNL     1      -0.603   9.729  22.905  0.00  0.00    +0.000 C 
ATOM     33  F   UNL     1       0.403   9.568  23.816  0.00  0.00    +0.000 F 
ATOM     34  F   UNL     1      -1.621  10.312  23.576  0.00  0.00    +0.000 F 
ATOM     35  F   UNL     1      -0.983   8.473  22.567  0.00  0.00    +0.000 F 
ENDBRANCH  25  32
ENDBRANCH   4  21
TORSDOF 6
ENDMDL
MODEL 7
REMARK VINA RESULT:      -9.2      0.454      1.036
REMARK  Name = 
REMARK  6 active torsions:
REMARK  status: ('A' for Active; 'I' for Inactive)
REMARK    1  A    between atoms: N_3  and  C_4
REMARK    2  A    between atoms: C_6  and  C_7
REMARK    3  A    between atoms: C_12  and  C_13
REMARK    4  A    between atoms: N_18  and  C_19
REMARK    5  A    between atoms: N_22  and  C_23
REMARK    6  A    between atoms: C_29  and  C_30
REMARK                            x       y       z     vdW  Elec       q    Type
REMARK                         _______ _______ _______ _____ _____    ______ ____
ROOT
ATOM      1  O   UNL     1       1.134   8.535  18.863  0.00  0.00    +0.000 OA
ATOM      2  C   UNL     1       1.705   8.331  19.927  0.00  0.00    +0.000 C 
ATOM      3  N   UNL     1       2.443   7.193  20.237  0.00  0.00    +0.000 N 
ATOM      4  N   UNL     1       1.645   9.201  20.994  0.00  0.00    +0.000 N 
ATOM      5  H   UNL     1       2.649   7.041  21.212  0.00  0.00    +0.000 HD
ATOM      6  H   UNL     1       2.233   9.025  21.798  0.00  0.00    +0.000 HD
ENDROOT
BRANCH   3   7
ATOM      7  C   UNL     1       2.643   6.100  19.365  0.00  0.00    +0.000 A 
ATOM      8  C   UNL     1       1.982   4.882  19.530  0.00  0.00    +0.000 A 
ATOM      9  C   UNL     1       2.273   3.775  18.727  0.00  0.00    +0.000 A 
ATOM     10  C   UNL     1       3.217   3.916  17.702  0.00  0.00    +0.000 A 
ATOM     11  C   UNL     1       3.866   5.145  17.485  0.00  0.00    +0.000 A 
ATOM     12  C   UNL     1       3.560   6.238  18.318  0.00  0.00    +0.000 A 
BRANCH   9  13
ATOM     13  C   UNL     1       1.598   2.451  18.990  0.00  0.00    +0.000 C 
ATOM     14  F   UNL     1       0.345   2.354  18.464  0.00  0.00    +0.000 F 
ATOM     15  F   UNL     1       2.298   1.403  18.481  0.00  0.00    +0.000 F 
ATOM     16  F   UNL     1       1.461   2.201  20.323  0.00  0.00    +0.000 F 
ENDBRANCH   9  13
BRANCH  11  17
ATOM     17  C   UNL     1       4.907   5.285  16.399  0.00  0.00    +0.000 C 
ATOM     18  F   UNL     1       6.186   5.233  16.863  0.00  0.00    +0.000 F 
ATOM     19  F   UNL     1       4.810   4.311  15.455  0.00  0.00    +0.000 F 
ATOM     20  F   UNL     1       4.799   6.467  15.732  0.00  0.00    +0.000 F 
ENDBRANCH  11  17
ENDBRANCH   3   7
BRANCH   4  21
ATOM     21  C   UNL     1       0.890  10.365  20.994  0.00  0.00    +0.000 A 
ATOM     22  C   UNL     1       0.958  11.507  20.182  0.00  0.00    +0.000 A 
ATOM     23  N   UNL     1       0.090  12.442  20.560  0.00  0.00    +0.000 NA
ATOM     24  N   UNL     1      -0.607  11.895  21.594  0.00  0.00    +0.000 N 
ATOM     25  C   UNL     1      -0.141  10.621  21.877  0.00  0.00    +0.000 A 
BRANCH  24  26
ATOM     26  C   UNL     1      -1.618  12.689  22.217  0.00  0.00    +0.000 A 
ATOM     27  C   UNL     1      -2.961  12.654  21.828  0.00  0.00    +0.000 A 
ATOM     28  C   UNL     1      -3.922  13.391  22.526  0.00  0.00    +0.000 A 
ATOM     29  C   UNL     1      -3.555  14.181  23.608  0.00  0.00    +0.000 A 
ATOM     30  C   UNL     1      -2.215  14.267  23.975  0.00  0.00    +0.000 A 
ATOM     31  C   UNL     1      -1.249  13.535  23.278  0.00  0.00    +0.000 A 
ENDBRANCH  24  26
BRANCH  25  32
ATOM     32  C   UNL     1      -0.632   9.773  22.962  0.00  0.00    +0.000 C 
ATOM     33  F   UNL     1      -1.706  10.347  23.582  0.00  0.00    +0.000 F 
ATOM     34  F   UNL     1      -1.048   8.555  22.552  0.00  0.00    +0.000 F 
ATOM     35  F   UNL     1       0.293   9.599  23.938  0.00  0.00    +0.000 F 
ENDBRANCH  25  32
ENDBRANCH   4  21
TORSDOF 6
ENDMDL
MODEL 8
REMARK VINA RESULT:      -9.2      0.613      3.264
REMARK  Name = 
REMARK  6 active torsions:
REMARK  status: ('A' for Active; 'I' for Inactive)
REMARK    1  A    between atoms: N_3  and  C_4
REMARK    2  A    between atoms: C_6  and  C_7
REMARK    3  A    between atoms: C_12  and  C_13
REMARK    4  A    between atoms: N_18  and  C_19
REMARK    5  A    between atoms: N_22  and  C_23
REMARK    6  A    between atoms: C_29  and  C_30
REMARK                            x       y       z     vdW  Elec       q    Type
REMARK                         _______ _______ _______ _____ _____    ______ ____
ROOT
ATOM      1  O   UNL     1       1.946   8.452  18.447  0.00  0.00    +0.000 OA
ATOM      2  C   UNL     1       2.012   8.001  19.583  0.00  0.00    +0.000 C 
ATOM      3  N   UNL     1       2.557   6.768  19.927  0.00  0.00    +0.000 N 
ATOM      4  N   UNL     1       1.498   8.651  20.684  0.00  0.00    +0.000 N 
ATOM      5  H   UNL     1       2.331   6.414  20.844  0.00  0.00    +0.000 HD
ATOM      6  H   UNL     1       1.690   8.276  21.604  0.00  0.00    +0.000 HD
ENDROOT
BRANCH   3   7
ATOM      7  C   UNL     1       3.117   5.851  19.011  0.00  0.00    +0.000 A 
ATOM      8  C   UNL     1       3.968   6.251  17.979  0.00  0.00    +0.000 A 
ATOM      9  C   UNL     1       4.425   5.349  17.014  0.00  0.00    +0.000 A 
ATOM     10  C   UNL     1       4.054   4.003  17.121  0.00  0.00    +0.000 A 
ATOM     11  C   UNL     1       3.233   3.564  18.175  0.00  0.00    +0.000 A 
ATOM     12  C   UNL     1       2.780   4.498  19.126  0.00  0.00    +0.000 A 
BRANCH   9  13
ATOM     13  C   UNL     1       5.276   5.836  15.867  0.00  0.00    +0.000 C 
ATOM     14  F   UNL     1       5.328   4.975  14.813  0.00  0.00    +0.000 F 
ATOM     15  F   UNL     1       4.833   7.018  15.360  0.00  0.00    +0.000 F 
ATOM     16  F   UNL     1       6.569   6.046  16.239  0.00  0.00    +0.000 F 
ENDBRANCH   9  13
BRANCH  11  17
ATOM     17  C   UNL     1       2.809   2.116  18.271  0.00  0.00    +0.000 C 
ATOM     18  F   UNL     1       3.850   1.257  18.450  0.00  0.00    +0.000 F 
ATOM     19  F   UNL     1       1.954   1.892  19.304  0.00  0.00    +0.000 F 
ATOM     20  F   UNL     1       2.163   1.694  17.149  0.00  0.00    +0.000 F 
ENDBRANCH  11  17
ENDBRANCH   3   7
BRANCH   4  21
ATOM     21  C   UNL     1       0.806   9.851  20.613  0.00  0.00    +0.000 A 
ATOM     22  C   UNL     1       0.831  10.874  19.653  0.00  0.00    +0.000 A 
ATOM     23  N   UNL     1       0.061  11.903  19.997  0.00  0.00    +0.000 NA
ATOM     24  N   UNL     1      -0.533  11.538  21.166  0.00  0.00    +0.000 N 
ATOM     25  C   UNL     1      -0.098  10.283  21.564  0.00  0.00    +0.000 A 
BRANCH  24  26
ATOM     26  C   UNL     1      -1.423  12.468  21.787  0.00  0.00    +0.000 A 
ATOM     27  C   UNL     1      -1.026  13.332  22.812  0.00  0.00    +0.000 A 
ATOM     28  C   UNL     1      -1.917  14.278  23.328  0.00  0.00    +0.000 A 
ATOM     29  C   UNL     1      -3.215  14.363  22.840  0.00  0.00    +0.000 A 
ATOM     30  C   UNL     1      -3.641  13.474  21.857  0.00  0.00    +0.000 A 
ATOM     31  C   UNL     1      -2.755  12.523  21.340  0.00  0.00    +0.000 A 
ENDBRANCH  24  26
BRANCH  25  32
ATOM     32  C   UNL     1      -0.497   9.614  22.801  0.00  0.00    +0.000 C 
ATOM     33  F   UNL     1       0.566   9.481  23.649  0.00  0.00    +0.000 F 
ATOM     34  F   UNL     1      -1.444  10.281  23.497  0.00  0.00    +0.000 F 
ATOM     35  F   UNL     1      -0.941   8.352  22.584  0.00  0.00    +0.000 F 
ENDBRANCH  25  32
ENDBRANCH   4  21
TORSDOF 6
ENDMDL
MODEL 9
REMARK VINA RESULT:      -9.1      0.486      1.376
REMARK  Name = 
REMARK  6 active torsions:
REMARK  status: ('A' for Active; 'I' for Inactive)
REMARK    1  A    between atoms: N_3  and  C_4
REMARK    2  A    between atoms: C_6  and  C_7
REMARK    3  A    between atoms: C_12  and  C_13
REMARK    4  A    between atoms: N_18  and  C_19
REMARK    5  A    between atoms: N_22  and  C_23
REMARK    6  A    between atoms: C_29  and  C_30
REMARK                            x       y       z     vdW  Elec       q    Type
REMARK                         _______ _______ _______ _____ _____    ______ ____
ROOT
ATOM      1  O   UNL     1       1.654   8.545  18.458  0.00  0.00    +0.000 OA
ATOM      2  C   UNL     1       1.910   8.159  19.591  0.00  0.00    +0.000 C 
ATOM      3  N   UNL     1       2.529   6.953  19.909  0.00  0.00    +0.000 N 
ATOM      4  N   UNL     1       1.564   8.862  20.725  0.00  0.00    +0.000 N 
ATOM      5  H   UNL     1       2.459   6.648  20.867  0.00  0.00    +0.000 HD
ATOM      6  H   UNL     1       1.908   8.541  21.621  0.00  0.00    +0.000 HD
ENDROOT
BRANCH   3   7
ATOM      7  C   UNL     1       2.956   5.994  18.964  0.00  0.00    +0.000 A 
ATOM      8  C   UNL     1       2.595   4.648  19.050  0.00  0.00    +0.000 A 
ATOM      9  C   UNL     1       3.114   3.692  18.172  0.00  0.00    +0.000 A 
ATOM     10  C   UNL     1       3.979   4.112  17.154  0.00  0.00    +0.000 A 
ATOM     11  C   UNL     1       4.324   5.468  17.017  0.00  0.00    +0.000 A 
ATOM     12  C   UNL     1       3.794   6.406  17.923  0.00  0.00    +0.000 A 
BRANCH   9  13
ATOM     13  C   UNL     1       2.766   2.235  18.350  0.00  0.00    +0.000 C 
ATOM     14  F   UNL     1       3.836   1.440  18.631  0.00  0.00    +0.000 F 
ATOM     15  F   UNL     1       1.878   2.034  19.360  0.00  0.00    +0.000 F 
ATOM     16  F   UNL     1       2.192   1.703  17.234  0.00  0.00    +0.000 F 
ENDBRANCH   9  13
BRANCH  11  17
ATOM     17  C   UNL     1       5.283   5.914  15.936  0.00  0.00    +0.000 C 
ATOM     18  F   UNL     1       4.860   7.016  15.257  0.00  0.00    +0.000 F 
ATOM     19  F   UNL     1       6.513   6.224  16.426  0.00  0.00    +0.000 F 
ATOM     20  F   UNL     1       5.485   4.949  14.997  0.00  0.00    +0.000 F 
ENDBRANCH  11  17
ENDBRANCH   3   7
BRANCH   4  21
ATOM     21  C   UNL     1       0.844  10.047  20.703  0.00  0.00    +0.000 A 
ATOM     22  C   UNL     1       0.875  11.128  19.808  0.00  0.00    +0.000 A 
ATOM     23  N   UNL     1       0.068  12.115  20.187  0.00  0.00    +0.000 NA
ATOM     24  N   UNL     1      -0.555  11.664  21.310  0.00  0.00    +0.000 N 
ATOM     25  C   UNL     1      -0.102  10.398  21.645  0.00  0.00    +0.000 A 
BRANCH  24  26
ATOM     26  C   UNL     1      -1.490  12.533  21.955  0.00  0.00    +0.000 A 
ATOM     27  C   UNL     1      -1.147  13.350  23.037  0.00  0.00    +0.000 A 
ATOM     28  C   UNL     1      -2.080  14.240  23.577  0.00  0.00    +0.000 A 
ATOM     29  C   UNL     1      -3.366  14.315  23.057  0.00  0.00    +0.000 A 
ATOM     30  C   UNL     1      -3.738  13.470  22.015  0.00  0.00    +0.000 A 
ATOM     31  C   UNL     1      -2.810  12.576  21.473  0.00  0.00    +0.000 A 
ENDBRANCH  24  26
BRANCH  25  32
ATOM     32  C   UNL     1      -0.525   9.645  22.825  0.00  0.00    +0.000 C 
ATOM     33  F   UNL     1       0.514   9.479  23.697  0.00  0.00    +0.000 F 
ATOM     34  F   UNL     1      -1.507  10.248  23.530  0.00  0.00    +0.000 F 
ATOM     35  F   UNL     1      -0.935   8.391  22.515  0.00  0.00    +0.000 F 
ENDBRANCH  25  32
ENDBRANCH   4  21
TORSDOF 6
ENDMDL
