MODEL 1
REMARK VINA RESULT:      -9.2      0.000      0.000
REMARK  Name = 
REMARK  6 active torsions:
REMARK  status: ('A' for Active; 'I' for Inactive)
REMARK    1  A    between atoms: C_1  and  C_2
REMARK    2  A    between atoms: C_5  and  N_6
REMARK    3  A    between atoms: C_7  and  C_9
REMARK    4  A    between atoms: C_9  and  N_10
REMARK    5  A    between atoms: N_13  and  C_14
REMARK    6  A    between atoms: C_27  and  C_28
REMARK                            x       y       z     vdW  Elec       q    Type
REMARK                         _______ _______ _______ _____ _____    ______ ____
ROOT
ATOM      1  N   UNL     1       4.366   4.254  18.831  0.00  0.00    +0.000 N 
ATOM      2  C   UNL     1       3.706   3.758  17.733  0.00  0.00    +0.000 A 
ATOM      3  C   UNL     1       4.291   3.705  16.533  0.00  0.00    +0.000 A 
ATOM      4  N   UNL     1       5.565   4.201  16.306  0.00  0.00    +0.000 N 
ATOM      5  C   UNL     1       6.328   4.741  17.361  0.00  0.00    +0.000 A 
ATOM      6  O   UNL     1       7.448   5.232  17.261  0.00  0.00    +0.000 OA
ATOM      7  C   UNL     1       5.698   4.644  18.766  0.00  0.00    +0.000 A 
ATOM      8  O   UNL     1       6.373   4.870  19.767  0.00  0.00    +0.000 OA
ENDROOT
BRANCH   4   9
ATOM      9  C   UNL     1       6.102   4.236  14.982  0.00  0.00    +0.000 A 
ATOM     10  C   UNL     1       7.191   5.070  14.678  0.00  0.00    +0.000 A 
ATOM     11  C   UNL     1       7.667   5.168  13.369  0.00  0.00    +0.000 A 
ATOM     12  C   UNL     1       7.079   4.405  12.369  0.00  0.00    +0.000 A 
ATOM     13  F   UNL     1       7.534   4.502  11.113  0.00  0.00    +0.000 F 
ATOM     14  C   UNL     1       6.022   3.553  12.666  0.00  0.00    +0.000 A 
ATOM     15  F   UNL     1       5.473   2.798  11.704  0.00  0.00    +0.000 F 
ATOM     16  C   UNL     1       5.516   3.475  13.960  0.00  0.00    +0.000 A 
ENDBRANCH   4   9
BRANCH   1  17
ATOM     17  C   UNL     1       3.698   4.297  20.132  0.00  0.00    +0.000 C 
BRANCH  17  19
ATOM     18  N   UNL     1       2.910   6.613  20.010  0.00  0.00    +0.000 N 
ATOM     19  C   UNL     1       2.537   5.287  20.160  0.00  0.00    +0.000 C 
ATOM     20  O   UNL     1       1.391   4.862  20.302  0.00  0.00    +0.000 OA
ATOM     21  H   UNL     1       3.908   6.823  20.015  0.00  0.00    +0.000 HD
BRANCH  18  26
ATOM     22  C   UNL     1      -0.785  11.008  19.852  0.00  0.00    +0.000 C 
ATOM     23  C   UNL     1       0.200   9.873  19.932  0.00  0.00    +0.000 A 
ATOM     24  C   UNL     1       0.922   9.527  18.787  0.00  0.00    +0.000 A 
ATOM     25  C   UNL     1       1.822   8.462  18.801  0.00  0.00    +0.000 A 
ATOM     26  C   UNL     1       2.032   7.720  19.964  0.00  0.00    +0.000 A 
ATOM     27  C   UNL     1       1.344   8.088  21.128  0.00  0.00    +0.000 A 
ATOM     28  C   UNL     1       0.411   9.147  21.120  0.00  0.00    +0.000 A 
ATOM     29  C   UNL     1      -0.364   9.474  22.368  0.00  0.00    +0.000 C 
ENDBRANCH  18  26
ENDBRANCH  17  19
ENDBRANCH   1  17
TORSDOF 4
ENDMDL
MODEL 2
REMARK VINA RESULT:      -9.2      0.535      1.279
REMARK  Name = 
REMARK  6 active torsions:
REMARK  status: ('A' for Active; 'I' for Inactive)
REMARK    1  A    between atoms: C_1  and  C_2
REMARK    2  A    between atoms: C_5  and  N_6
REMARK    3  A    between atoms: C_7  and  C_9
REMARK    4  A    between atoms: C_9  and  N_10
REMARK    5  A    between atoms: N_13  and  C_14
REMARK    6  A    between atoms: C_27  and  C_28
REMARK                            x       y       z     vdW  Elec       q    Type
REMARK                         _______ _______ _______ _____ _____    ______ ____
ROOT
ATOM      1  N   UNL     1       4.318   4.366  18.754  0.00  0.00    +0.000 N 
ATOM      2  C   UNL     1       3.595   4.003  17.645  0.00  0.00    +0.000 A 
ATOM      3  C   UNL     1       4.160   3.935  16.436  0.00  0.00    +0.000 A 
ATOM      4  N   UNL     1       5.482   4.284  16.214  0.00  0.00    +0.000 N 
ATOM      5  C   UNL     1       6.313   4.680  17.281  0.00  0.00    +0.000 A 
ATOM      6  O   UNL     1       7.483   5.036  17.188  0.00  0.00    +0.000 OA
ATOM      7  C   UNL     1       5.688   4.595  18.689  0.00  0.00    +0.000 A 
ATOM      8  O   UNL     1       6.392   4.693  19.689  0.00  0.00    +0.000 OA
ENDROOT
BRANCH   4   9
ATOM      9  C   UNL     1       6.008   4.313  14.886  0.00  0.00    +0.000 A 
ATOM     10  C   UNL     1       5.425   3.533  13.872  0.00  0.00    +0.000 A 
ATOM     11  C   UNL     1       5.983   3.497  12.593  0.00  0.00    +0.000 A 
ATOM     12  C   UNL     1       7.104   4.268  12.314  0.00  0.00    +0.000 A 
ATOM     13  F   UNL     1       7.640   4.230  11.087  0.00  0.00    +0.000 F 
ATOM     14  C   UNL     1       7.668   5.067  13.301  0.00  0.00    +0.000 A 
ATOM     15  F   UNL     1       8.735   5.830  13.022  0.00  0.00    +0.000 F 
ATOM     16  C   UNL     1       7.142   5.083  14.589  0.00  0.00    +0.000 A 
ENDBRANCH   4   9
BRANCH   1  17
ATOM     17  C   UNL     1       3.670   4.429  20.065  0.00  0.00    +0.000 C 
BRANCH  17  19
ATOM     18  N   UNL     1       2.841   6.735  20.072  0.00  0.00    +0.000 N 
ATOM     19  C   UNL     1       2.489   5.395  20.085  0.00  0.00    +0.000 C 
ATOM     20  O   UNL     1       1.345   4.940  20.106  0.00  0.00    +0.000 OA
ATOM     21  H   UNL     1       3.832   6.959  20.168  0.00  0.00    +0.000 HD
BRANCH  18  26
ATOM     22  C   UNL     1      -0.930  11.067  20.012  0.00  0.00    +0.000 C 
ATOM     23  C   UNL     1       0.075   9.949  20.066  0.00  0.00    +0.000 A 
ATOM     24  C   UNL     1       0.788   9.628  18.907  0.00  0.00    +0.000 A 
ATOM     25  C   UNL     1       1.707   8.578  18.898  0.00  0.00    +0.000 A 
ATOM     26  C   UNL     1       1.944   7.827  20.050  0.00  0.00    +0.000 A 
ATOM     27  C   UNL     1       1.266   8.170  21.227  0.00  0.00    +0.000 A 
ATOM     28  C   UNL     1       0.314   9.213  21.242  0.00  0.00    +0.000 A 
ATOM     29  C   UNL     1      -0.449   9.512  22.505  0.00  0.00    +0.000 C 
ENDBRANCH  18  26
ENDBRANCH  17  19
ENDBRANCH   1  17
TORSDOF 4
ENDMDL
MODEL 3
REMARK VINA RESULT:      -8.9      5.862      7.488
REMARK  Name = 
REMARK  6 active torsions:
REMARK  status: ('A' for Active; 'I' for Inactive)
REMARK    1  A    between atoms: C_1  and  C_2
REMARK    2  A    between atoms: C_5  and  N_6
REMARK    3  A    between atoms: C_7  and  C_9
REMARK    4  A    between atoms: C_9  and  N_10
REMARK    5  A    between atoms: N_13  and  C_14
REMARK    6  A    between atoms: C_27  and  C_28
REMARK                            x       y       z     vdW  Elec       q    Type
REMARK                         _______ _______ _______ _____ _____    ______ ____
ROOT
ATOM      1  N   UNL     1       7.037   6.836  17.751  0.00  0.00    +0.000 N 
ATOM      2  C   UNL     1       5.860   7.085  17.089  0.00  0.00    +0.000 A 
ATOM      3  C   UNL     1       4.754   6.380  17.343  0.00  0.00    +0.000 A 
ATOM      4  N   UNL     1       4.738   5.320  18.236  0.00  0.00    +0.000 N 
ATOM      5  C   UNL     1       5.893   4.972  18.963  0.00  0.00    +0.000 A 
ATOM      6  O   UNL     1       5.994   4.038  19.751  0.00  0.00    +0.000 OA
ATOM      7  C   UNL     1       7.112   5.899  18.776  0.00  0.00    +0.000 A 
ATOM      8  O   UNL     1       8.076   5.820  19.532  0.00  0.00    +0.000 OA
ENDROOT
BRANCH   4   9
ATOM      9  C   UNL     1       3.565   4.518  18.383  0.00  0.00    +0.000 A 
ATOM     10  C   UNL     1       3.340   3.424  17.530  0.00  0.00    +0.000 A 
ATOM     11  C   UNL     1       2.158   2.686  17.617  0.00  0.00    +0.000 A 
ATOM     12  C   UNL     1       1.215   3.016  18.581  0.00  0.00    +0.000 A 
ATOM     13  F   UNL     1       0.080   2.310  18.661  0.00  0.00    +0.000 F 
ATOM     14  C   UNL     1       1.443   4.076  19.450  0.00  0.00    +0.000 A 
ATOM     15  F   UNL     1       0.543   4.377  20.397  0.00  0.00    +0.000 F 
ATOM     16  C   UNL     1       2.601   4.842  19.348  0.00  0.00    +0.000 A 
ENDBRANCH   4   9
BRANCH   1  17
ATOM     17  C   UNL     1       8.231   7.627  17.451  0.00  0.00    +0.000 C 
BRANCH  17  19
ATOM     18  N   UNL     1       9.180   9.353  18.909  0.00  0.00    +0.000 N 
ATOM     19  C   UNL     1       8.156   9.037  18.030  0.00  0.00    +0.000 C 
ATOM     20  O   UNL     1       7.232   9.776  17.690  0.00  0.00    +0.000 OA
ATOM     21  H   UNL     1       9.812   8.600  19.181  0.00  0.00    +0.000 HD
BRANCH  18  26
ATOM     22  C   UNL     1      10.091  14.398  21.499  0.00  0.00    +0.000 C 
ATOM     23  C   UNL     1       9.831  13.098  20.787  0.00  0.00    +0.000 A 
ATOM     24  C   UNL     1       9.330  12.018  21.519  0.00  0.00    +0.000 A 
ATOM     25  C   UNL     1       9.104  10.783  20.912  0.00  0.00    +0.000 A 
ATOM     26  C   UNL     1       9.364  10.597  19.554  0.00  0.00    +0.000 A 
ATOM     27  C   UNL     1       9.826  11.687  18.803  0.00  0.00    +0.000 A 
ATOM     28  C   UNL     1      10.083  12.934  19.412  0.00  0.00    +0.000 A 
ATOM     29  C   UNL     1      10.645  14.066  18.593  0.00  0.00    +0.000 C 
ENDBRANCH  18  26
ENDBRANCH  17  19
ENDBRANCH   1  17
TORSDOF 4
ENDMDL
MODEL 4
REMARK VINA RESULT:      -8.9      5.710      7.244
REMARK  Name = 
REMARK  6 active torsions:
REMARK  status: ('A' for Active; 'I' for Inactive)
REMARK    1  A    between atoms: C_1  and  C_2
REMARK    2  A    between atoms: C_5  and  N_6
REMARK    3  A    between atoms: C_7  and  C_9
REMARK    4  A    between atoms: C_9  and  N_10
REMARK    5  A    between atoms: N_13  and  C_14
REMARK    6  A    between atoms: C_27  and  C_28
REMARK                            x       y       z     vdW  Elec       q    Type
REMARK                         _______ _______ _______ _____ _____    ______ ____
ROOT
ATOM      1  N   UNL     1       7.013   6.890  17.712  0.00  0.00    +0.000 N 
ATOM      2  C   UNL     1       5.827   7.118  17.058  0.00  0.00    +0.000 A 
ATOM      3  C   UNL     1       4.732   6.403  17.332  0.00  0.00    +0.000 A 
ATOM      4  N   UNL     1       4.737   5.354  18.237  0.00  0.00    +0.000 N 
ATOM      5  C   UNL     1       5.904   5.028  18.956  0.00  0.00    +0.000 A 
ATOM      6  O   UNL     1       6.023   4.104  19.754  0.00  0.00    +0.000 OA
ATOM      7  C   UNL     1       7.110   5.967  18.746  0.00  0.00    +0.000 A 
ATOM      8  O   UNL     1       8.082   5.908  19.493  0.00  0.00    +0.000 OA
ENDROOT
BRANCH   4   9
ATOM      9  C   UNL     1       3.575   4.539  18.405  0.00  0.00    +0.000 A 
ATOM     10  C   UNL     1       3.371   3.415  17.588  0.00  0.00    +0.000 A 
ATOM     11  C   UNL     1       2.199   2.662  17.694  0.00  0.00    +0.000 A 
ATOM     12  C   UNL     1       1.246   3.011  18.642  0.00  0.00    +0.000 A 
ATOM     13  F   UNL     1       0.121   2.291  18.741  0.00  0.00    +0.000 F 
ATOM     14  C   UNL     1       1.454   4.103  19.476  0.00  0.00    +0.000 A 
ATOM     15  F   UNL     1       0.545   4.422  20.408  0.00  0.00    +0.000 F 
ATOM     16  C   UNL     1       2.601   4.881  19.354  0.00  0.00    +0.000 A 
ENDBRANCH   4   9
BRANCH   1  17
ATOM     17  C   UNL     1       8.194   7.692  17.390  0.00  0.00    +0.000 C 
BRANCH  17  19
ATOM     18  N   UNL     1       9.194   9.306  18.939  0.00  0.00    +0.000 N 
ATOM     19  C   UNL     1       8.161   9.069  18.047  0.00  0.00    +0.000 C 
ATOM     20  O   UNL     1       7.257   9.851  17.751  0.00  0.00    +0.000 OA
ATOM     21  H   UNL     1       9.805   8.521  19.166  0.00  0.00    +0.000 HD
BRANCH  18  26
ATOM     22  C   UNL     1       9.927  14.220  21.821  0.00  0.00    +0.000 C 
ATOM     23  C   UNL     1       9.745  12.910  21.104  0.00  0.00    +0.000 A 
ATOM     24  C   UNL     1      10.348  12.737  19.855  0.00  0.00    +0.000 A 
ATOM     25  C   UNL     1      10.181  11.553  19.136  0.00  0.00    +0.000 A 
ATOM     26  C   UNL     1       9.415  10.507  19.651  0.00  0.00    +0.000 A 
ATOM     27  C   UNL     1       8.842  10.656  20.921  0.00  0.00    +0.000 A 
ATOM     28  C   UNL     1       8.982  11.858  21.647  0.00  0.00    +0.000 A 
ATOM     29  C   UNL     1       8.297  12.014  22.979  0.00  0.00    +0.000 C 
ENDBRANCH  18  26
ENDBRANCH  17  19
ENDBRANCH   1  17
TORSDOF 4
ENDMDL
MODEL 5
REMARK VINA RESULT:      -8.8      0.600      1.809
REMARK  Name = 
REMARK  6 active torsions:
REMARK  status: ('A' for Active; 'I' for Inactive)
REMARK    1  A    between atoms: C_1  and  C_2
REMARK    2  A    between atoms: C_5  and  N_6
REMARK    3  A    between atoms: C_7  and  C_9
REMARK    4  A    between atoms: C_9  and  N_10
REMARK    5  A    between atoms: N_13  and  C_14
REMARK    6  A    between atoms: C_27  and  C_28
REMARK                            x       y       z     vdW  Elec       q    Type
REMARK                         _______ _______ _______ _____ _____    ______ ____
ROOT
ATOM      1  N   UNL     1       4.362   4.244  18.784  0.00  0.00    +0.000 N 
ATOM      2  C   UNL     1       3.669   3.796  17.686  0.00  0.00    +0.000 A 
ATOM      3  C   UNL     1       4.229   3.764  16.473  0.00  0.00    +0.000 A 
ATOM      4  N   UNL     1       5.511   4.234  16.235  0.00  0.00    +0.000 N 
ATOM      5  C   UNL     1       6.307   4.724  17.289  0.00  0.00    +0.000 A 
ATOM      6  O   UNL     1       7.437   5.189  17.182  0.00  0.00    +0.000 OA
ATOM      7  C   UNL     1       5.702   4.602  18.703  0.00  0.00    +0.000 A 
ATOM      8  O   UNL     1       6.401   4.782  19.696  0.00  0.00    +0.000 OA
ENDROOT
BRANCH   4   9
ATOM      9  C   UNL     1       6.022   4.293  14.902  0.00  0.00    +0.000 A 
ATOM     10  C   UNL     1       5.418   3.548  13.875  0.00  0.00    +0.000 A 
ATOM     11  C   UNL     1       5.962   3.539  12.589  0.00  0.00    +0.000 A 
ATOM     12  C   UNL     1       7.088   4.304  12.318  0.00  0.00    +0.000 A 
ATOM     13  F   UNL     1       7.611   4.293  11.085  0.00  0.00    +0.000 F 
ATOM     14  C   UNL     1       7.674   5.069  13.319  0.00  0.00    +0.000 A 
ATOM     15  F   UNL     1       8.746   5.827  13.049  0.00  0.00    +0.000 F 
ATOM     16  C   UNL     1       7.162   5.057  14.613  0.00  0.00    +0.000 A 
ENDBRANCH   4   9
BRANCH   1  17
ATOM     17  C   UNL     1       3.720   4.266  20.099  0.00  0.00    +0.000 C 
BRANCH  17  19
ATOM     18  N   UNL     1       2.828   6.544  20.228  0.00  0.00    +0.000 N 
ATOM     19  C   UNL     1       2.512   5.197  20.143  0.00  0.00    +0.000 C 
ATOM     20  O   UNL     1       1.381   4.714  20.097  0.00  0.00    +0.000 OA
ATOM     21  H   UNL     1       3.808   6.787  20.372  0.00  0.00    +0.000 HD
BRANCH  18  26
ATOM     22  C   UNL     1      -0.806  10.991  20.302  0.00  0.00    +0.000 C 
ATOM     23  C   UNL     1       0.131   9.816  20.241  0.00  0.00    +0.000 A 
ATOM     24  C   UNL     1       0.201   8.953  21.338  0.00  0.00    +0.000 A 
ATOM     25  C   UNL     1       1.078   7.869  21.343  0.00  0.00    +0.000 A 
ATOM     26  C   UNL     1       1.902   7.612  20.248  0.00  0.00    +0.000 A 
ATOM     27  C   UNL     1       1.808   8.447  19.126  0.00  0.00    +0.000 A 
ATOM     28  C   UNL     1       0.943   9.563  19.119  0.00  0.00    +0.000 A 
ATOM     29  C   UNL     1       0.915  10.482  17.927  0.00  0.00    +0.000 C 
ENDBRANCH  18  26
ENDBRANCH  17  19
ENDBRANCH   1  17
TORSDOF 4
ENDMDL
MODEL 6
REMARK VINA RESULT:      -8.7      5.627      7.269
REMARK  Name = 
REMARK  6 active torsions:
REMARK  status: ('A' for Active; 'I' for Inactive)
REMARK    1  A    between atoms: C_1  and  C_2
REMARK    2  A    between atoms: C_5  and  N_6
REMARK    3  A    between atoms: C_7  and  C_9
REMARK    4  A    between atoms: C_9  and  N_10
REMARK    5  A    between atoms: N_13  and  C_14
REMARK    6  A    between atoms: C_27  and  C_28
REMARK                            x       y       z     vdW  Elec       q    Type
REMARK                         _______ _______ _______ _____ _____    ______ ____
ROOT
ATOM      1  N   UNL     1       6.953   6.948  17.812  0.00  0.00    +0.000 N 
ATOM      2  C   UNL     1       5.748   7.233  17.218  0.00  0.00    +0.000 A 
ATOM      3  C   UNL     1       4.632   6.579  17.555  0.00  0.00    +0.000 A 
ATOM      4  N   UNL     1       4.630   5.540  18.472  0.00  0.00    +0.000 N 
ATOM      5  C   UNL     1       5.813   5.160  19.135  0.00  0.00    +0.000 A 
ATOM      6  O   UNL     1       5.925   4.238  19.937  0.00  0.00    +0.000 OA
ATOM      7  C   UNL     1       7.054   6.031  18.852  0.00  0.00    +0.000 A 
ATOM      8  O   UNL     1       8.059   5.928  19.549  0.00  0.00    +0.000 OA
ENDROOT
BRANCH   4   9
ATOM      9  C   UNL     1       3.437   4.790  18.710  0.00  0.00    +0.000 A 
ATOM     10  C   UNL     1       2.528   5.195  19.703  0.00  0.00    +0.000 A 
ATOM     11  C   UNL     1       1.402   4.422  19.994  0.00  0.00    +0.000 A 
ATOM     12  C   UNL     1       1.163   3.263  19.269  0.00  0.00    +0.000 A 
ATOM     13  F   UNL     1       0.085   2.520  19.551  0.00  0.00    +0.000 F 
ATOM     14  C   UNL     1       2.039   2.871  18.264  0.00  0.00    +0.000 A 
ATOM     15  F   UNL     1       1.792   1.765  17.547  0.00  0.00    +0.000 F 
ATOM     16  C   UNL     1       3.183   3.614  17.990  0.00  0.00    +0.000 A 
ENDBRANCH   4   9
BRANCH   1  17
ATOM     17  C   UNL     1       8.157   7.683  17.421  0.00  0.00    +0.000 C 
BRANCH  17  19
ATOM     18  N   UNL     1       9.189   9.301  18.944  0.00  0.00    +0.000 N 
ATOM     19  C   UNL     1       8.193   9.094  18.002  0.00  0.00    +0.000 C 
ATOM     20  O   UNL     1       7.373   9.924  17.611  0.00  0.00    +0.000 OA
ATOM     21  H   UNL     1       9.721   8.486  19.250  0.00  0.00    +0.000 HD
BRANCH  18  26
ATOM     22  C   UNL     1      10.134  14.290  21.629  0.00  0.00    +0.000 C 
ATOM     23  C   UNL     1       9.898  12.961  20.964  0.00  0.00    +0.000 A 
ATOM     24  C   UNL     1      10.440  12.737  19.695  0.00  0.00    +0.000 A 
ATOM     25  C   UNL     1      10.221  11.535  19.024  0.00  0.00    +0.000 A 
ATOM     26  C   UNL     1       9.461  10.520  19.606  0.00  0.00    +0.000 A 
ATOM     27  C   UNL     1       8.950  10.719  20.895  0.00  0.00    +0.000 A 
ATOM     28  C   UNL     1       9.143  11.941  21.575  0.00  0.00    +0.000 A 
ATOM     29  C   UNL     1       8.523  12.152  22.930  0.00  0.00    +0.000 C 
ENDBRANCH  18  26
ENDBRANCH  17  19
ENDBRANCH   1  17
TORSDOF 4
ENDMDL
MODEL 7
REMARK VINA RESULT:      -8.6      5.750      7.443
REMARK  Name = 
REMARK  6 active torsions:
REMARK  status: ('A' for Active; 'I' for Inactive)
REMARK    1  A    between atoms: C_1  and  C_2
REMARK    2  A    between atoms: C_5  and  N_6
REMARK    3  A    between atoms: C_7  and  C_9
REMARK    4  A    between atoms: C_9  and  N_10
REMARK    5  A    between atoms: N_13  and  C_14
REMARK    6  A    between atoms: C_27  and  C_28
REMARK                            x       y       z     vdW  Elec       q    Type
REMARK                         _______ _______ _______ _____ _____    ______ ____
ROOT
ATOM      1  N   UNL     1       7.011   6.952  17.788  0.00  0.00    +0.000 N 
ATOM      2  C   UNL     1       5.835   7.208  17.127  0.00  0.00    +0.000 A 
ATOM      3  C   UNL     1       4.714   6.541  17.415  0.00  0.00    +0.000 A 
ATOM      4  N   UNL     1       4.679   5.514  18.345  0.00  0.00    +0.000 N 
ATOM      5  C   UNL     1       5.832   5.162  19.074  0.00  0.00    +0.000 A 
ATOM      6  O   UNL     1       5.916   4.253  19.894  0.00  0.00    +0.000 OA
ATOM      7  C   UNL     1       7.072   6.050  18.844  0.00  0.00    +0.000 A 
ATOM      8  O   UNL     1       8.041   5.972  19.595  0.00  0.00    +0.000 OA
ENDROOT
BRANCH   4   9
ATOM      9  C   UNL     1       3.488   4.748  18.530  0.00  0.00    +0.000 A 
ATOM     10  C   UNL     1       2.522   5.150  19.469  0.00  0.00    +0.000 A 
ATOM     11  C   UNL     1       1.395   4.363  19.711  0.00  0.00    +0.000 A 
ATOM     12  C   UNL     1       1.212   3.190  18.990  0.00  0.00    +0.000 A 
ATOM     13  F   UNL     1       0.132   2.434  19.225  0.00  0.00    +0.000 F 
ATOM     14  C   UNL     1       2.145   2.801  18.037  0.00  0.00    +0.000 A 
ATOM     15  F   UNL     1       1.954   1.682  17.324  0.00  0.00    +0.000 F 
ATOM     16  C   UNL     1       3.291   3.559  17.814  0.00  0.00    +0.000 A 
ENDBRANCH   4   9
BRANCH   1  17
ATOM     17  C   UNL     1       8.222   7.701  17.451  0.00  0.00    +0.000 C 
BRANCH  17  19
ATOM     18  N   UNL     1       9.160   9.378  18.971  0.00  0.00    +0.000 N 
ATOM     19  C   UNL     1       8.201   9.123  18.004  0.00  0.00    +0.000 C 
ATOM     20  O   UNL     1       7.371   9.922  17.571  0.00  0.00    +0.000 OA
ATOM     21  H   UNL     1       9.706   8.585  19.310  0.00  0.00    +0.000 HD
BRANCH  18  26
ATOM     22  C   UNL     1      10.207  14.392  21.570  0.00  0.00    +0.000 C 
ATOM     23  C   UNL     1       9.914  13.101  20.855  0.00  0.00    +0.000 A 
ATOM     24  C   UNL     1       9.329  12.053  21.571  0.00  0.00    +0.000 A 
ATOM     25  C   UNL     1       9.069  10.826  20.960  0.00  0.00    +0.000 A 
ATOM     26  C   UNL     1       9.378  10.617  19.616  0.00  0.00    +0.000 A 
ATOM     27  C   UNL     1       9.925  11.676  18.880  0.00  0.00    +0.000 A 
ATOM     28  C   UNL     1      10.217  12.914  19.493  0.00  0.00    +0.000 A 
ATOM     29  C   UNL     1      10.869  14.010  18.693  0.00  0.00    +0.000 C 
ENDBRANCH  18  26
ENDBRANCH  17  19
ENDBRANCH   1  17
TORSDOF 4
ENDMDL
MODEL 8
REMARK VINA RESULT:      -8.6      0.430      1.334
REMARK  Name = 
REMARK  6 active torsions:
REMARK  status: ('A' for Active; 'I' for Inactive)
REMARK    1  A    between atoms: C_1  and  C_2
REMARK    2  A    between atoms: C_5  and  N_6
REMARK    3  A    between atoms: C_7  and  C_9
REMARK    4  A    between atoms: C_9  and  N_10
REMARK    5  A    between atoms: N_13  and  C_14
REMARK    6  A    between atoms: C_27  and  C_28
REMARK                            x       y       z     vdW  Elec       q    Type
REMARK                         _______ _______ _______ _____ _____    ______ ____
ROOT
ATOM      1  N   UNL     1       4.063   4.000  18.910  0.00  0.00    +0.000 N 
ATOM      2  C   UNL     1       3.449   3.572  17.759  0.00  0.00    +0.000 A 
ATOM      3  C   UNL     1       4.086   3.581  16.584  0.00  0.00    +0.000 A 
ATOM      4  N   UNL     1       5.372   4.078  16.441  0.00  0.00    +0.000 N 
ATOM      5  C   UNL     1       6.091   4.551  17.557  0.00  0.00    +0.000 A 
ATOM      6  O   UNL     1       7.217   5.036  17.534  0.00  0.00    +0.000 OA
ATOM      7  C   UNL     1       5.400   4.381  18.926  0.00  0.00    +0.000 A 
ATOM      8  O   UNL     1       6.031   4.543  19.966  0.00  0.00    +0.000 OA
ENDROOT
BRANCH   4   9
ATOM      9  C   UNL     1       5.966   4.182  15.146  0.00  0.00    +0.000 A 
ATOM     10  C   UNL     1       7.022   5.081  14.918  0.00  0.00    +0.000 A 
ATOM     11  C   UNL     1       7.552   5.245  13.637  0.00  0.00    +0.000 A 
ATOM     12  C   UNL     1       7.053   4.484  12.588  0.00  0.00    +0.000 A 
ATOM     13  F   UNL     1       7.560   4.644  11.359  0.00  0.00    +0.000 F 
ATOM     14  C   UNL     1       6.031   3.569  12.810  0.00  0.00    +0.000 A 
ATOM     15  F   UNL     1       5.568   2.817  11.801  0.00  0.00    +0.000 F 
ATOM     16  C   UNL     1       5.470   3.424  14.076  0.00  0.00    +0.000 A 
ENDBRANCH   4   9
BRANCH   1  17
ATOM     17  C   UNL     1       3.338   3.975  20.182  0.00  0.00    +0.000 C 
BRANCH  17  19
ATOM     18  N   UNL     1       2.706   6.342  20.201  0.00  0.00    +0.000 N 
ATOM     19  C   UNL     1       2.244   5.036  20.250  0.00  0.00    +0.000 C 
ATOM     20  O   UNL     1       1.069   4.679  20.335  0.00  0.00    +0.000 OA
ATOM     21  H   UNL     1       3.715   6.483  20.244  0.00  0.00    +0.000 HD
BRANCH  18  26
ATOM     22  C   UNL     1      -0.419  11.161  20.242  0.00  0.00    +0.000 C 
ATOM     23  C   UNL     1       0.386   9.891  20.189  0.00  0.00    +0.000 A 
ATOM     24  C   UNL     1       0.313   9.003  21.266  0.00  0.00    +0.000 A 
ATOM     25  C   UNL     1       1.065   7.828  21.278  0.00  0.00    +0.000 A 
ATOM     26  C   UNL     1       1.903   7.505  20.210  0.00  0.00    +0.000 A 
ATOM     27  C   UNL     1       1.948   8.368  19.107  0.00  0.00    +0.000 A 
ATOM     28  C   UNL     1       1.212   9.573  19.094  0.00  0.00    +0.000 A 
ATOM     29  C   UNL     1       1.335  10.514  17.925  0.00  0.00    +0.000 C 
ENDBRANCH  18  26
ENDBRANCH  17  19
ENDBRANCH   1  17
TORSDOF 4
ENDMDL
MODEL 9
REMARK VINA RESULT:      -8.6      5.878      7.793
REMARK  Name = 
REMARK  6 active torsions:
REMARK  status: ('A' for Active; 'I' for Inactive)
REMARK    1  A    between atoms: C_1  and  C_2
REMARK    2  A    between atoms: C_5  and  N_6
REMARK    3  A    between atoms: C_7  and  C_9
REMARK    4  A    between atoms: C_9  and  N_10
REMARK    5  A    between atoms: N_13  and  C_14
REMARK    6  A    between atoms: C_27  and  C_28
REMARK                            x       y       z     vdW  Elec       q    Type
REMARK                         _______ _______ _______ _____ _____    ______ ____
ROOT
ATOM      1  N   UNL     1       7.020   6.687  17.934  0.00  0.00    +0.000 N 
ATOM      2  C   UNL     1       7.098   5.920  19.070  0.00  0.00    +0.000 A 
ATOM      3  C   UNL     1       6.052   5.212  19.506  0.00  0.00    +0.000 A 
ATOM      4  N   UNL     1       4.815   5.255  18.884  0.00  0.00    +0.000 N 
ATOM      5  C   UNL     1       4.622   6.018  17.715  0.00  0.00    +0.000 A 
ATOM      6  O   UNL     1       3.564   6.148  17.107  0.00  0.00    +0.000 OA
ATOM      7  C   UNL     1       5.881   6.697  17.137  0.00  0.00    +0.000 A 
ATOM      8  O   UNL     1       5.864   7.183  16.010  0.00  0.00    +0.000 OA
ENDROOT
BRANCH   4   9
ATOM      9  C   UNL     1       3.694   4.579  19.457  0.00  0.00    +0.000 A 
ATOM     10  C   UNL     1       2.895   5.218  20.421  0.00  0.00    +0.000 A 
ATOM     11  C   UNL     1       1.848   4.535  21.042  0.00  0.00    +0.000 A 
ATOM     12  C   UNL     1       1.574   3.224  20.676  0.00  0.00    +0.000 A 
ATOM     13  F   UNL     1       0.571   2.568  21.275  0.00  0.00    +0.000 F 
ATOM     14  C   UNL     1       2.338   2.595  19.701  0.00  0.00    +0.000 A 
ATOM     15  F   UNL     1       2.056   1.338  19.330  0.00  0.00    +0.000 F 
ATOM     16  C   UNL     1       3.407   3.254  19.101  0.00  0.00    +0.000 A 
ENDBRANCH   4   9
BRANCH   1  17
ATOM     17  C   UNL     1       8.184   7.449  17.481  0.00  0.00    +0.000 C 
BRANCH  17  19
ATOM     18  N   UNL     1       9.151   9.201  18.896  0.00  0.00    +0.000 N 
ATOM     19  C   UNL     1       8.163   8.894  17.974  0.00  0.00    +0.000 C 
ATOM     20  O   UNL     1       7.308   9.663  17.536  0.00  0.00    +0.000 OA
ATOM     21  H   UNL     1       9.718   8.430  19.249  0.00  0.00    +0.000 HD
BRANCH  18  26
ATOM     22  C   UNL     1      10.217  14.338  21.232  0.00  0.00    +0.000 C 
ATOM     23  C   UNL     1       9.915  13.013  20.587  0.00  0.00    +0.000 A 
ATOM     24  C   UNL     1       9.438  11.969  21.384  0.00  0.00    +0.000 A 
ATOM     25  C   UNL     1       9.175  10.713  20.839  0.00  0.00    +0.000 A 
ATOM     26  C   UNL     1       9.373  10.469  19.480  0.00  0.00    +0.000 A 
ATOM     27  C   UNL     1       9.810  11.522  18.665  0.00  0.00    +0.000 A 
ATOM     28  C   UNL     1      10.105  12.790  19.210  0.00  0.00    +0.000 A 
ATOM     29  C   UNL     1      10.639  13.882  18.321  0.00  0.00    +0.000 C 
ENDBRANCH  18  26
ENDBRANCH  17  19
ENDBRANCH   1  17
TORSDOF 4
ENDMDL
