MODEL 1
REMARK VINA RESULT:      -7.2      0.000      0.000
REMARK  Name = 
REMARK  1 active torsions:
REMARK  status: ('A' for Active; 'I' for Inactive)
REMARK    1  A    between atoms: C_2  and  C_3
REMARK                            x       y       z     vdW  Elec       q    Type
REMARK                         _______ _______ _______ _____ _____    ______ ____
ROOT
ATOM      1  C   UNL     1      -4.832  14.602  23.077  0.00  0.00    +0.000 A 
ATOM      2  C   UNL     1      -5.139  13.292  22.700  0.00  0.00    +0.000 A 
ATOM      3  N   UNL     1      -4.057  12.564  22.394  0.00  0.00    +0.000 NA
ATOM      4  N   UNL     1      -2.985  13.375  22.693  0.00  0.00    +0.000 N 
ATOM      5  C   UNL     1      -1.568  13.084  22.583  0.00  0.00    +0.000 A 
ATOM      6  C   UNL     1      -0.774  13.978  23.275  0.00  0.00    +0.000 A 
ATOM      7  C   UNL     1      -1.377  15.284  23.926  0.00  0.00    +0.000 A 
ATOM      8  N   UNL     1      -2.650  15.504  23.822  0.00  0.00    +0.000 NA
ATOM      9  C   UNL     1      -3.456  14.581  23.248  0.00  0.00    +0.000 A 
ATOM     10  N   UNL     1      -0.691  16.318  24.672  0.00  0.00    +0.000 N 
ATOM     11  C   UNL     1      -1.424  17.179  25.651  0.00  0.00    +0.000 C 
ATOM     12  C   UNL     1      -0.810  18.566  25.533  0.00  0.00    +0.000 C 
ATOM     13  C   UNL     1       0.644  18.275  25.246  0.00  0.00    +0.000 C 
ATOM     14  C   UNL     1       0.671  16.897  24.507  0.00  0.00    +0.000 C 
ATOM     15  C   UNL     1       1.017  17.248  23.075  0.00  0.00    +0.000 C 
ATOM     16  C   UNL     1       1.533  16.089  22.298  0.00  0.00    +0.000 C 
ATOM     17  O   UNL     1       2.126  15.135  22.783  0.00  0.00    +0.000 OA
ATOM     18  N   UNL     1       1.178  16.217  20.959  0.00  0.00    +0.000 N 
ATOM     19  C   UNL     1       0.326  15.159  20.510  0.00  0.00    +0.000 C 
ATOM     20  C   UNL     1       0.032  15.130  19.004  0.00  0.00    +0.000 C 
ATOM     21  O   UNL     1      -1.128  14.331  18.638  0.00  0.00    +0.000 OA
ATOM     22  C   UNL     1      -1.001  13.017  18.963  0.00  0.00    +0.000 A 
ATOM     23  C   UNL     1      -0.058  12.604  19.882  0.00  0.00    +0.000 A 
ATOM     24  C   UNL     1      -0.461  11.562  20.650  0.00  0.00    +0.000 A 
ATOM     25  C   UNL     1      -0.664  10.454  19.789  0.00  0.00    +0.000 A 
ATOM     26  C   UNL     1      -1.126  10.728  18.483  0.00  0.00    +0.000 A 
ATOM     27  C   UNL     1      -1.684  11.985  18.354  0.00  0.00    +0.000 A 
ATOM     28  N   UNL     1      -3.023  11.986  17.913  0.00  0.00    +0.000 N 
ATOM     29  C   UNL     1      -3.672  10.792  17.614  0.00  0.00    +0.000 C 
ATOM     30  O   UNL     1      -4.890  10.672  17.743  0.00  0.00    +0.000 OA
ATOM     31  C   UNL     1      -2.823   9.627  17.099  0.00  0.00    +0.000 C 
ATOM     32  C   UNL     1      -1.340   9.903  17.246  0.00  0.00    +0.000 C 
ATOM     33  N   UNL     1      -1.172  11.834  21.894  0.00  0.00    +0.000 N 
ATOM     34  H   UNL     1       0.847  17.133  20.690  0.00  0.00    +0.000 HD
ATOM     35  H   UNL     1      -3.618  12.708  18.303  0.00  0.00    +0.000 HD
ATOM     36  H   UNL     1      -1.529  10.999  22.349  0.00  0.00    +0.000 HD
ENDROOT
BRANCH   1  38
ATOM     37  N   UNL     1      -6.472  16.499  23.724  0.00  0.00    +0.000 NA
ATOM     38  C   UNL     1      -5.720  15.664  23.402  0.00  0.00    +0.000 C 
ENDBRANCH   1  38
TORSDOF 1
ENDMDL
MODEL 2
REMARK VINA RESULT:      -7.1      2.511      6.706
REMARK  Name = 
REMARK  1 active torsions:
REMARK  status: ('A' for Active; 'I' for Inactive)
REMARK    1  A    between atoms: C_2  and  C_3
REMARK                            x       y       z     vdW  Elec       q    Type
REMARK                         _______ _______ _______ _____ _____    ______ ____
ROOT
ATOM      1  C   UNL     1      -3.142  13.514  23.533  0.00  0.00    +0.000 A 
ATOM      2  C   UNL     1      -2.241  14.580  23.579  0.00  0.00    +0.000 A 
ATOM      3  N   UNL     1      -1.746  14.905  22.378  0.00  0.00    +0.000 NA
ATOM      4  N   UNL     1      -2.430  14.110  21.484  0.00  0.00    +0.000 N 
ATOM      5  C   UNL     1      -2.316  14.066  20.039  0.00  0.00    +0.000 A 
ATOM      6  C   UNL     1      -3.370  13.412  19.430  0.00  0.00    +0.000 A 
ATOM      7  C   UNL     1      -4.452  12.629  20.273  0.00  0.00    +0.000 A 
ATOM      8  N   UNL     1      -4.352  12.621  21.566  0.00  0.00    +0.000 NA
ATOM      9  C   UNL     1      -3.393  13.352  22.179  0.00  0.00    +0.000 A 
ATOM     10  N   UNL     1      -5.604  11.892  19.798  0.00  0.00    +0.000 N 
ATOM     11  C   UNL     1      -6.791  11.665  20.679  0.00  0.00    +0.000 C 
ATOM     12  C   UNL     1      -7.298  10.268  20.351  0.00  0.00    +0.000 C 
ATOM     13  C   UNL     1      -7.026  10.143  18.871  0.00  0.00    +0.000 C 
ATOM     14  C   UNL     1      -5.793  11.058  18.579  0.00  0.00    +0.000 C 
ATOM     15  C   UNL     1      -4.659  10.088  18.320  0.00  0.00    +0.000 C 
ATOM     16  C   UNL     1      -3.517  10.704  17.592  0.00  0.00    +0.000 C 
ATOM     17  O   UNL     1      -3.613  11.647  16.819  0.00  0.00    +0.000 OA
ATOM     18  N   UNL     1      -2.325  10.098  17.976  0.00  0.00    +0.000 N 
ATOM     19  C   UNL     1      -1.420  11.009  18.607  0.00  0.00    +0.000 C 
ATOM     20  C   UNL     1      -0.017  10.463  18.901  0.00  0.00    +0.000 C 
ATOM     21  O   UNL     1       0.729  11.235  19.884  0.00  0.00    +0.000 OA
ATOM     22  C   UNL     1       0.962  12.518  19.498  0.00  0.00    +0.000 A 
ATOM     23  C   UNL     1       0.224  13.095  18.485  0.00  0.00    +0.000 A 
ATOM     24  C   UNL     1      -0.019  14.417  18.669  0.00  0.00    +0.000 A 
ATOM     25  C   UNL     1       1.232  15.084  18.657  0.00  0.00    +0.000 A 
ATOM     26  C   UNL     1       2.342  14.381  19.174  0.00  0.00    +0.000 A 
ATOM     27  C   UNL     1       1.988  13.309  19.969  0.00  0.00    +0.000 A 
ATOM     28  N   UNL     1       2.489  13.369  21.286  0.00  0.00    +0.000 N 
ATOM     29  C   UNL     1       3.297  14.428  21.690  0.00  0.00    +0.000 C 
ATOM     30  O   UNL     1       3.320  14.810  22.859  0.00  0.00    +0.000 OA
ATOM     31  C   UNL     1       4.179  15.097  20.632  0.00  0.00    +0.000 C 
ATOM     32  C   UNL     1       3.821  14.641  19.231  0.00  0.00    +0.000 C 
ATOM     33  N   UNL     1      -1.209  14.821  19.409  0.00  0.00    +0.000 N 
ATOM     34  H   UNL     1      -2.430   9.231  18.483  0.00  0.00    +0.000 HD
ATOM     35  H   UNL     1       1.883  12.996  22.009  0.00  0.00    +0.000 HD
ATOM     36  H   UNL     1      -1.254  15.819  19.592  0.00  0.00    +0.000 HD
ENDROOT
BRANCH   1  38
ATOM     37  N   UNL     1      -4.411  12.327  25.455  0.00  0.00    +0.000 NA
ATOM     38  C   UNL     1      -3.806  12.864  24.610  0.00  0.00    +0.000 C 
ENDBRANCH   1  38
TORSDOF 1
ENDMDL
MODEL 3
REMARK VINA RESULT:      -6.9      2.404      3.932
REMARK  Name = 
REMARK  1 active torsions:
REMARK  status: ('A' for Active; 'I' for Inactive)
REMARK    1  A    between atoms: C_2  and  C_3
REMARK                            x       y       z     vdW  Elec       q    Type
REMARK                         _______ _______ _______ _____ _____    ______ ____
ROOT
ATOM      1  C   UNL     1      -6.143  13.900  20.068  0.00  0.00    +0.000 A 
ATOM      2  C   UNL     1      -5.844  12.554  19.846  0.00  0.00    +0.000 A 
ATOM      3  N   UNL     1      -4.976  12.053  20.734  0.00  0.00    +0.000 NA
ATOM      4  N   UNL     1      -4.782  13.062  21.651  0.00  0.00    +0.000 N 
ATOM      5  C   UNL     1      -3.960  13.057  22.846  0.00  0.00    +0.000 A 
ATOM      6  C   UNL     1      -4.250  14.093  23.711  0.00  0.00    +0.000 A 
ATOM      7  C   UNL     1      -5.235  15.258  23.302  0.00  0.00    +0.000 A 
ATOM      8  N   UNL     1      -5.795  15.221  22.132  0.00  0.00    +0.000 NA
ATOM      9  C   UNL     1      -5.610  14.154  21.322  0.00  0.00    +0.000 A 
ATOM     10  N   UNL     1      -5.639  16.411  24.078  0.00  0.00    +0.000 N 
ATOM     11  C   UNL     1      -6.929  17.115  23.800  0.00  0.00    +0.000 C 
ATOM     12  C   UNL     1      -6.657  18.596  24.019  0.00  0.00    +0.000 C 
ATOM     13  C   UNL     1      -5.663  18.596  25.157  0.00  0.00    +0.000 C 
ATOM     14  C   UNL     1      -4.879  17.248  25.047  0.00  0.00    +0.000 C 
ATOM     15  C   UNL     1      -3.504  17.653  24.558  0.00  0.00    +0.000 C 
ATOM     16  C   UNL     1      -2.467  16.615  24.805  0.00  0.00    +0.000 C 
ATOM     17  O   UNL     1      -2.502  15.800  25.718  0.00  0.00    +0.000 OA
ATOM     18  N   UNL     1      -1.497  16.663  23.809  0.00  0.00    +0.000 N 
ATOM     19  C   UNL     1      -1.429  15.455  23.046  0.00  0.00    +0.000 C 
ATOM     20  C   UNL     1      -0.271  15.360  22.044  0.00  0.00    +0.000 C 
ATOM     21  O   UNL     1      -0.452  14.345  21.017  0.00  0.00    +0.000 OA
ATOM     22  C   UNL     1      -0.544  13.084  21.517  0.00  0.00    +0.000 A 
ATOM     23  C   UNL     1      -0.833  12.871  22.849  0.00  0.00    +0.000 A 
ATOM     24  C   UNL     1      -1.597  11.774  23.075  0.00  0.00    +0.000 A 
ATOM     25  C   UNL     1      -0.848  10.643  22.662  0.00  0.00    +0.000 A 
ATOM     26  C   UNL     1       0.026  10.814  21.567  0.00  0.00    +0.000 A 
ATOM     27  C   UNL     1      -0.257  11.934  20.811  0.00  0.00    +0.000 A 
ATOM     28  N   UNL     1      -0.538  11.668  19.455  0.00  0.00    +0.000 N 
ATOM     29  C   UNL     1      -0.487  10.367  18.962  0.00  0.00    +0.000 C 
ATOM     30  O   UNL     1      -1.188  10.009  18.017  0.00  0.00    +0.000 OA
ATOM     31  C   UNL     1       0.489   9.391  19.625  0.00  0.00    +0.000 C 
ATOM     32  C   UNL     1       1.068   9.956  20.907  0.00  0.00    +0.000 C 
ATOM     33  N   UNL     1      -3.050  11.906  23.052  0.00  0.00    +0.000 N 
ATOM     34  H   UNL     1      -1.516  17.494  23.235  0.00  0.00    +0.000 HD
ATOM     35  H   UNL     1      -1.238  12.260  19.022  0.00  0.00    +0.000 HD
ATOM     36  H   UNL     1      -3.540  11.019  23.123  0.00  0.00    +0.000 HD
ENDROOT
BRANCH   1  38
ATOM     37  N   UNL     1      -7.651  15.427  18.616  0.00  0.00    +0.000 NA
ATOM     38  C   UNL     1      -6.964  14.768  19.295  0.00  0.00    +0.000 C 
ENDBRANCH   1  38
TORSDOF 1
ENDMDL
MODEL 4
REMARK VINA RESULT:      -6.9      1.860      2.493
REMARK  Name = 
REMARK  1 active torsions:
REMARK  status: ('A' for Active; 'I' for Inactive)
REMARK    1  A    between atoms: C_2  and  C_3
REMARK                            x       y       z     vdW  Elec       q    Type
REMARK                         _______ _______ _______ _____ _____    ______ ____
ROOT
ATOM      1  C   UNL     1      -6.005  13.995  21.085  0.00  0.00    +0.000 A 
ATOM      2  C   UNL     1      -5.839  12.655  20.728  0.00  0.00    +0.000 A 
ATOM      3  N   UNL     1      -4.693  12.128  21.175  0.00  0.00    +0.000 NA
ATOM      4  N   UNL     1      -4.130  13.110  21.959  0.00  0.00    +0.000 N 
ATOM      5  C   UNL     1      -2.895  13.070  22.718  0.00  0.00    +0.000 A 
ATOM      6  C   UNL     1      -2.796  14.083  23.652  0.00  0.00    +0.000 A 
ATOM      7  C   UNL     1      -3.848  15.260  23.705  0.00  0.00    +0.000 A 
ATOM      8  N   UNL     1      -4.833  15.257  22.863  0.00  0.00    +0.000 NA
ATOM      9  C   UNL     1      -5.006  14.212  22.021  0.00  0.00    +0.000 A 
ATOM     10  N   UNL     1      -3.887  16.392  24.607  0.00  0.00    +0.000 N 
ATOM     11  C   UNL     1      -5.170  17.106  24.893  0.00  0.00    +0.000 C 
ATOM     12  C   UNL     1      -4.812  18.580  25.020  0.00  0.00    +0.000 C 
ATOM     13  C   UNL     1      -3.443  18.547  25.656  0.00  0.00    +0.000 C 
ATOM     14  C   UNL     1      -2.789  17.200  25.205  0.00  0.00    +0.000 C 
ATOM     15  C   UNL     1      -1.724  17.615  24.211  0.00  0.00    +0.000 C 
ATOM     16  C   UNL     1      -0.689  16.569  23.991  0.00  0.00    +0.000 C 
ATOM     17  O   UNL     1      -0.363  15.729  24.819  0.00  0.00    +0.000 OA
ATOM     18  N   UNL     1      -0.206  16.643  22.689  0.00  0.00    +0.000 N 
ATOM     19  C   UNL     1      -0.469  15.457  21.934  0.00  0.00    +0.000 C 
ATOM     20  C   UNL     1       0.183  15.388  20.547  0.00  0.00    +0.000 C 
ATOM     21  O   UNL     1      -0.411  14.402  19.657  0.00  0.00    +0.000 OA
ATOM     22  C   UNL     1      -0.310  13.127  20.120  0.00  0.00    +0.000 A 
ATOM     23  C   UNL     1      -0.038  12.878  21.449  0.00  0.00    +0.000 A 
ATOM     24  C   UNL     1      -0.659  11.776  21.938  0.00  0.00    +0.000 A 
ATOM     25  C   UNL     1      -0.157  10.656  21.230  0.00  0.00    +0.000 A 
ATOM     26  C   UNL     1       0.201  10.855  19.879  0.00  0.00    +0.000 A 
ATOM     27  C   UNL     1      -0.349  11.997  19.330  0.00  0.00    +0.000 A 
ATOM     28  N   UNL     1      -1.158  11.769  18.199  0.00  0.00    +0.000 N 
ATOM     29  C   UNL     1      -1.328  10.482  17.696  0.00  0.00    +0.000 C 
ATOM     30  O   UNL     1      -2.357  10.152  17.107  0.00  0.00    +0.000 OA
ATOM     31  C   UNL     1      -0.180   9.486  17.881  0.00  0.00    +0.000 C 
ATOM     32  C   UNL     1       0.875  10.014  18.832  0.00  0.00    +0.000 C 
ATOM     33  N   UNL     1      -1.995  11.912  22.509  0.00  0.00    +0.000 N 
ATOM     34  H   UNL     1      -0.445  17.489  22.192  0.00  0.00    +0.000 HD
ATOM     35  H   UNL     1      -1.966  12.374  18.101  0.00  0.00    +0.000 HD
ATOM     36  H   UNL     1      -2.425  11.025  22.751  0.00  0.00    +0.000 HD
ENDROOT
BRANCH   1  38
ATOM     37  N   UNL     1      -7.907  15.605  20.375  0.00  0.00    +0.000 NA
ATOM     38  C   UNL     1      -7.057  14.886  20.733  0.00  0.00    +0.000 C 
ENDBRANCH   1  38
TORSDOF 1
ENDMDL
MODEL 5
REMARK VINA RESULT:      -6.8      2.980      6.774
REMARK  Name = 
REMARK  1 active torsions:
REMARK  status: ('A' for Active; 'I' for Inactive)
REMARK    1  A    between atoms: C_2  and  C_3
REMARK                            x       y       z     vdW  Elec       q    Type
REMARK                         _______ _______ _______ _____ _____    ______ ____
ROOT
ATOM      1  C   UNL     1      -1.581  10.914  17.912  0.00  0.00    +0.000 A 
ATOM      2  C   UNL     1      -0.267  10.702  18.338  0.00  0.00    +0.000 A 
ATOM      3  N   UNL     1       0.072  11.452  19.394  0.00  0.00    +0.000 NA
ATOM      4  N   UNL     1      -1.088  12.096  19.762  0.00  0.00    +0.000 N 
ATOM      5  C   UNL     1      -1.307  13.013  20.865  0.00  0.00    +0.000 A 
ATOM      6  C   UNL     1      -2.644  13.208  21.152  0.00  0.00    +0.000 A 
ATOM      7  C   UNL     1      -3.781  12.638  20.216  0.00  0.00    +0.000 A 
ATOM      8  N   UNL     1      -3.443  11.955  19.167  0.00  0.00    +0.000 NA
ATOM      9  C   UNL     1      -2.144  11.658  18.938  0.00  0.00    +0.000 A 
ATOM     10  N   UNL     1      -5.216  12.757  20.367  0.00  0.00    +0.000 N 
ATOM     11  C   UNL     1      -6.142  11.762  19.743  0.00  0.00    +0.000 C 
ATOM     12  C   UNL     1      -7.357  12.551  19.280  0.00  0.00    +0.000 C 
ATOM     13  C   UNL     1      -7.494  13.622  20.336  0.00  0.00    +0.000 C 
ATOM     14  C   UNL     1      -6.052  13.875  20.884  0.00  0.00    +0.000 C 
ATOM     15  C   UNL     1      -5.672  15.231  20.327  0.00  0.00    +0.000 C 
ATOM     16  C   UNL     1      -4.549  15.872  21.063  0.00  0.00    +0.000 C 
ATOM     17  O   UNL     1      -4.290  15.677  22.243  0.00  0.00    +0.000 OA
ATOM     18  N   UNL     1      -3.802  16.663  20.198  0.00  0.00    +0.000 N 
ATOM     19  C   UNL     1      -2.449  16.215  20.068  0.00  0.00    +0.000 C 
ATOM     20  C   UNL     1      -1.513  17.133  19.271  0.00  0.00    +0.000 C 
ATOM     21  O   UNL     1      -0.295  16.485  18.809  0.00  0.00    +0.000 OA
ATOM     22  C   UNL     1       0.492  16.030  19.821  0.00  0.00    +0.000 A 
ATOM     23  C   UNL     1      -0.021  15.859  21.090  0.00  0.00    +0.000 A 
ATOM     24  C   UNL     1       0.506  14.800  21.755  0.00  0.00    +0.000 A 
ATOM     25  C   UNL     1       1.889  15.057  21.933  0.00  0.00    +0.000 A 
ATOM     26  C   UNL     1       2.545  15.789  20.920  0.00  0.00    +0.000 A 
ATOM     27  C   UNL     1       1.850  15.813  19.726  0.00  0.00    +0.000 A 
ATOM     28  N   UNL     1       2.560  15.287  18.627  0.00  0.00    +0.000 N 
ATOM     29  C   UNL     1       3.864  14.826  18.780  0.00  0.00    +0.000 C 
ATOM     30  O   UNL     1       4.317  13.929  18.070  0.00  0.00    +0.000 OA
ATOM     31  C   UNL     1       4.733  15.484  19.856  0.00  0.00    +0.000 C 
ATOM     32  C   UNL     1       3.918  16.380  20.767  0.00  0.00    +0.000 C 
ATOM     33  N   UNL     1      -0.120  13.491  21.610  0.00  0.00    +0.000 N 
ATOM     34  H   UNL     1      -4.241  16.858  19.309  0.00  0.00    +0.000 HD
ATOM     35  H   UNL     1       2.008  14.783  17.942  0.00  0.00    +0.000 HD
ATOM     36  H   UNL     1       0.401  12.741  22.053  0.00  0.00    +0.000 HD
ENDROOT
BRANCH   1  38
ATOM     37  N   UNL     1      -2.768   9.923  15.834  0.00  0.00    +0.000 NA
ATOM     38  C   UNL     1      -2.255  10.348  16.795  0.00  0.00    +0.000 C 
ENDBRANCH   1  38
TORSDOF 1
ENDMDL
MODEL 6
REMARK VINA RESULT:      -6.7      7.346     10.141
REMARK  Name = 
REMARK  1 active torsions:
REMARK  status: ('A' for Active; 'I' for Inactive)
REMARK    1  A    between atoms: C_2  and  C_3
REMARK                            x       y       z     vdW  Elec       q    Type
REMARK                         _______ _______ _______ _____ _____    ______ ____
ROOT
ATOM      1  C   UNL     1       7.215  12.949  23.727  0.00  0.00    +0.000 A 
ATOM      2  C   UNL     1       8.575  12.738  23.482  0.00  0.00    +0.000 A 
ATOM      3  N   UNL     1       9.106  13.639  22.645  0.00  0.00    +0.000 NA
ATOM      4  N   UNL     1       8.101  14.553  22.419  0.00  0.00    +0.000 N 
ATOM      5  C   UNL     1       8.134  15.757  21.611  0.00  0.00    +0.000 A 
ATOM      6  C   UNL     1       7.081  16.613  21.868  0.00  0.00    +0.000 A 
ATOM      7  C   UNL     1       5.879  16.186  22.799  0.00  0.00    +0.000 A 
ATOM      8  N   UNL     1       5.899  15.011  23.346  0.00  0.00    +0.000 NA
ATOM      9  C   UNL     1       6.978  14.209  23.197  0.00  0.00    +0.000 A 
ATOM     10  N   UNL     1       4.705  16.952  23.163  0.00  0.00    +0.000 N 
ATOM     11  C   UNL     1       3.950  16.655  24.419  0.00  0.00    +0.000 C 
ATOM     12  C   UNL     1       2.481  16.871  24.087  0.00  0.00    +0.000 C 
ATOM     13  C   UNL     1       2.515  18.019  23.107  0.00  0.00    +0.000 C 
ATOM     14  C   UNL     1       3.896  17.926  22.379  0.00  0.00    +0.000 C 
ATOM     15  C   UNL     1       3.552  17.451  20.983  0.00  0.00    +0.000 C 
ATOM     16  C   UNL     1       4.631  17.715  19.993  0.00  0.00    +0.000 C 
ATOM     17  O   UNL     1       5.438  18.631  20.073  0.00  0.00    +0.000 OA
ATOM     18  N   UNL     1       4.628  16.730  19.011  0.00  0.00    +0.000 N 
ATOM     19  C   UNL     1       5.842  15.973  18.985  0.00  0.00    +0.000 C 
ATOM     20  C   UNL     1       5.991  14.986  17.821  0.00  0.00    +0.000 C 
ATOM     21  O   UNL     1       7.003  13.962  18.032  0.00  0.00    +0.000 OA
ATOM     22  C   UNL     1       8.257  14.467  18.183  0.00  0.00    +0.000 A 
ATOM     23  C   UNL     1       8.450  15.796  18.496  0.00  0.00    +0.000 A 
ATOM     24  C   UNL     1       9.513  16.019  19.308  0.00  0.00    +0.000 A 
ATOM     25  C   UNL     1      10.676  15.621  18.602  0.00  0.00    +0.000 A 
ATOM     26  C   UNL     1      10.549  14.535  17.709  0.00  0.00    +0.000 A 
ATOM     27  C   UNL     1       9.421  13.770  17.936  0.00  0.00    +0.000 A 
ATOM     28  N   UNL     1       9.684  12.413  18.213  0.00  0.00    +0.000 N 
ATOM     29  C   UNL     1      10.988  11.927  18.211  0.00  0.00    +0.000 C 
ATOM     30  O   UNL     1      11.322  10.976  18.916  0.00  0.00    +0.000 OA
ATOM     31  C   UNL     1      12.000  12.606  17.284  0.00  0.00    +0.000 C 
ATOM     32  C   UNL     1      11.453  13.891  16.696  0.00  0.00    +0.000 C 
ATOM     33  N   UNL     1       9.320  15.979  20.753  0.00  0.00    +0.000 N 
ATOM     34  H   UNL     1       3.801  16.151  18.989  0.00  0.00    +0.000 HD
ATOM     35  H   UNL     1       9.065  11.968  18.882  0.00  0.00    +0.000 HD
ATOM     36  H   UNL     1      10.185  16.049  21.280  0.00  0.00    +0.000 HD
ENDROOT
BRANCH   1  38
ATOM     37  N   UNL     1       5.561  11.485  25.079  0.00  0.00    +0.000 NA
ATOM     38  C   UNL     1       6.319  12.163  24.502  0.00  0.00    +0.000 C 
ENDBRANCH   1  38
TORSDOF 1
ENDMDL
MODEL 7
REMARK VINA RESULT:      -6.5      2.773      6.455
REMARK  Name = 
REMARK  1 active torsions:
REMARK  status: ('A' for Active; 'I' for Inactive)
REMARK    1  A    between atoms: C_2  and  C_3
REMARK                            x       y       z     vdW  Elec       q    Type
REMARK                         _______ _______ _______ _____ _____    ______ ____
ROOT
ATOM      1  C   UNL     1      -2.471  11.672  18.085  0.00  0.00    +0.000 A 
ATOM      2  C   UNL     1      -1.093  11.455  18.163  0.00  0.00    +0.000 A 
ATOM      3  N   UNL     1      -0.532  12.009  19.245  0.00  0.00    +0.000 NA
ATOM      4  N   UNL     1      -1.587  12.509  19.977  0.00  0.00    +0.000 N 
ATOM      5  C   UNL     1      -1.561  13.188  21.258  0.00  0.00    +0.000 A 
ATOM      6  C   UNL     1      -2.801  13.254  21.864  0.00  0.00    +0.000 A 
ATOM      7  C   UNL     1      -4.113  12.810  21.107  0.00  0.00    +0.000 A 
ATOM      8  N   UNL     1      -4.013  12.356  19.896  0.00  0.00    +0.000 NA
ATOM      9  C   UNL     1      -2.796  12.177  19.334  0.00  0.00    +0.000 A 
ATOM     10  N   UNL     1      -5.479  12.821  21.588  0.00  0.00    +0.000 N 
ATOM     11  C   UNL     1      -6.511  11.912  20.999  0.00  0.00    +0.000 C 
ATOM     12  C   UNL     1      -7.808  12.708  20.977  0.00  0.00    +0.000 C 
ATOM     13  C   UNL     1      -7.714  13.552  22.226  0.00  0.00    +0.000 C 
ATOM     14  C   UNL     1      -6.188  13.775  22.484  0.00  0.00    +0.000 C 
ATOM     15  C   UNL     1      -5.957  15.230  22.134  0.00  0.00    +0.000 C 
ATOM     16  C   UNL     1      -4.704  15.780  22.718  0.00  0.00    +0.000 C 
ATOM     17  O   UNL     1      -4.184  15.380  23.750  0.00  0.00    +0.000 OA
ATOM     18  N   UNL     1      -4.179  16.759  21.881  0.00  0.00    +0.000 N 
ATOM     19  C   UNL     1      -2.886  16.417  21.374  0.00  0.00    +0.000 C 
ATOM     20  C   UNL     1      -2.163  17.517  20.586  0.00  0.00    +0.000 C 
ATOM     21  O   UNL     1      -1.073  17.035  19.751  0.00  0.00    +0.000 OA
ATOM     22  C   UNL     1      -0.075  16.441  20.457  0.00  0.00    +0.000 A 
ATOM     23  C   UNL     1      -0.286  16.006  21.749  0.00  0.00    +0.000 A 
ATOM     24  C   UNL     1       0.388  14.871  22.062  0.00  0.00    +0.000 A 
ATOM     25  C   UNL     1       1.772  15.164  21.980  0.00  0.00    +0.000 A 
ATOM     26  C   UNL     1       2.176  16.108  21.011  0.00  0.00    +0.000 A 
ATOM     27  C   UNL     1       1.230  16.319  20.027  0.00  0.00    +0.000 A 
ATOM     28  N   UNL     1       1.679  16.048  18.718  0.00  0.00    +0.000 N 
ATOM     29  C   UNL     1       2.989  15.637  18.489  0.00  0.00    +0.000 C 
ATOM     30  O   UNL     1       3.280  14.916  17.535  0.00  0.00    +0.000 OA
ATOM     31  C   UNL     1       4.071  16.127  19.456  0.00  0.00    +0.000 C 
ATOM     32  C   UNL     1       3.473  16.791  20.680  0.00  0.00    +0.000 C 
ATOM     33  N   UNL     1      -0.242  13.581  21.805  0.00  0.00    +0.000 N 
ATOM     34  H   UNL     1      -4.809  17.094  21.166  0.00  0.00    +0.000 HD
ATOM     35  H   UNL     1       0.993  15.654  18.086  0.00  0.00    +0.000 HD
ATOM     36  H   UNL     1       0.373  12.790  21.968  0.00  0.00    +0.000 HD
ENDROOT
BRANCH   1  38
ATOM     37  N   UNL     1      -4.169  10.990  16.251  0.00  0.00    +0.000 NA
ATOM     38  C   UNL     1      -3.374  11.291  17.054  0.00  0.00    +0.000 C 
ENDBRANCH   1  38
TORSDOF 1
ENDMDL
MODEL 8
REMARK VINA RESULT:      -6.5      2.256      8.016
REMARK  Name = 
REMARK  1 active torsions:
REMARK  status: ('A' for Active; 'I' for Inactive)
REMARK    1  A    between atoms: C_2  and  C_3
REMARK                            x       y       z     vdW  Elec       q    Type
REMARK                         _______ _______ _______ _____ _____    ______ ____
ROOT
ATOM      1  C   UNL     1       1.093  13.810  20.078  0.00  0.00    +0.000 A 
ATOM      2  C   UNL     1       1.440  14.178  21.381  0.00  0.00    +0.000 A 
ATOM      3  N   UNL     1       0.421  14.084  22.245  0.00  0.00    +0.000 NA
ATOM      4  N   UNL     1      -0.607  13.520  21.523  0.00  0.00    +0.000 N 
ATOM      5  C   UNL     1      -1.941  13.163  21.971  0.00  0.00    +0.000 A 
ATOM      6  C   UNL     1      -2.599  12.318  21.099  0.00  0.00    +0.000 A 
ATOM      7  C   UNL     1      -2.004  11.973  19.677  0.00  0.00    +0.000 A 
ATOM      8  N   UNL     1      -0.861  12.483  19.337  0.00  0.00    +0.000 NA
ATOM      9  C   UNL     1      -0.152  13.218  20.225  0.00  0.00    +0.000 A 
ATOM     10  N   UNL     1      -2.562  11.119  18.650  0.00  0.00    +0.000 N 
ATOM     11  C   UNL     1      -1.687  10.476  17.622  0.00  0.00    +0.000 C 
ATOM     12  C   UNL     1      -2.483  10.485  16.326  0.00  0.00    +0.000 C 
ATOM     13  C   UNL     1      -3.905  10.285  16.795  0.00  0.00    +0.000 C 
ATOM     14  C   UNL     1      -3.974  10.888  18.235  0.00  0.00    +0.000 C 
ATOM     15  C   UNL     1      -4.778  12.161  18.071  0.00  0.00    +0.000 C 
ATOM     16  C   UNL     1      -5.348  12.662  19.350  0.00  0.00    +0.000 C 
ATOM     17  O   UNL     1      -5.638  11.956  20.307  0.00  0.00    +0.000 OA
ATOM     18  N   UNL     1      -5.433  14.050  19.323  0.00  0.00    +0.000 N 
ATOM     19  C   UNL     1      -4.626  14.673  20.326  0.00  0.00    +0.000 C 
ATOM     20  C   UNL     1      -4.798  16.190  20.477  0.00  0.00    +0.000 C 
ATOM     21  O   UNL     1      -3.709  16.846  21.185  0.00  0.00    +0.000 OA
ATOM     22  C   UNL     1      -3.559  16.414  22.465  0.00  0.00    +0.000 A 
ATOM     23  C   UNL     1      -4.119  15.223  22.878  0.00  0.00    +0.000 A 
ATOM     24  C   UNL     1      -3.370  14.552  23.789  0.00  0.00    +0.000 A 
ATOM     25  C   UNL     1      -3.293  15.360  24.951  0.00  0.00    +0.000 A 
ATOM     26  C   UNL     1      -3.286  16.760  24.765  0.00  0.00    +0.000 A 
ATOM     27  C   UNL     1      -2.963  17.138  23.476  0.00  0.00    +0.000 A 
ATOM     28  N   UNL     1      -1.831  17.973  23.381  0.00  0.00    +0.000 N 
ATOM     29  C   UNL     1      -1.152  18.381  24.525  0.00  0.00    +0.000 C 
ATOM     30  O   UNL     1       0.053  18.631  24.503  0.00  0.00    +0.000 OA
ATOM     31  C   UNL     1      -1.957  18.530  25.818  0.00  0.00    +0.000 C 
ATOM     32  C   UNL     1      -3.349  17.945  25.685  0.00  0.00    +0.000 C 
ATOM     33  N   UNL     1      -2.359  13.612  23.319  0.00  0.00    +0.000 N 
ATOM     34  H   UNL     1      -5.321  14.468  18.410  0.00  0.00    +0.000 HD
ATOM     35  H   UNL     1      -1.245  17.836  22.564  0.00  0.00    +0.000 HD
ATOM     36  H   UNL     1      -1.775  13.238  24.061  0.00  0.00    +0.000 HD
ENDROOT
BRANCH   1  38
ATOM     37  N   UNL     1       2.591  13.833  17.965  0.00  0.00    +0.000 NA
ATOM     38  C   UNL     1       1.890  13.847  18.901  0.00  0.00    +0.000 C 
ENDBRANCH   1  38
TORSDOF 1
ENDMDL
MODEL 9
REMARK VINA RESULT:      -6.3      8.113     10.058
REMARK  Name = 
REMARK  1 active torsions:
REMARK  status: ('A' for Active; 'I' for Inactive)
REMARK    1  A    between atoms: C_2  and  C_3
REMARK                            x       y       z     vdW  Elec       q    Type
REMARK                         _______ _______ _______ _____ _____    ______ ____
ROOT
ATOM      1  C   UNL     1       6.921  11.867  24.280  0.00  0.00    +0.000 A 
ATOM      2  C   UNL     1       8.124  11.329  23.816  0.00  0.00    +0.000 A 
ATOM      3  N   UNL     1       8.897  12.226  23.191  0.00  0.00    +0.000 NA
ATOM      4  N   UNL     1       8.245  13.429  23.348  0.00  0.00    +0.000 N 
ATOM      5  C   UNL     1       8.650  14.746  22.895  0.00  0.00    +0.000 A 
ATOM      6  C   UNL     1       7.950  15.770  23.504  0.00  0.00    +0.000 A 
ATOM      7  C   UNL     1       6.706  15.480  24.432  0.00  0.00    +0.000 A 
ATOM      8  N   UNL     1       6.352  14.250  24.637  0.00  0.00    +0.000 NA
ATOM      9  C   UNL     1       7.098  13.235  24.142  0.00  0.00    +0.000 A 
ATOM     10  N   UNL     1       5.866  16.427  25.134  0.00  0.00    +0.000 N 
ATOM     11  C   UNL     1       5.096  16.021  26.351  0.00  0.00    +0.000 C 
ATOM     12  C   UNL     1       3.772  16.767  26.279  0.00  0.00    +0.000 C 
ATOM     13  C   UNL     1       4.154  18.085  25.646  0.00  0.00    +0.000 C 
ATOM     14  C   UNL     1       5.400  17.789  24.750  0.00  0.00    +0.000 C 
ATOM     15  C   UNL     1       4.872  17.877  23.334  0.00  0.00    +0.000 C 
ATOM     16  C   UNL     1       5.945  18.075  22.321  0.00  0.00    +0.000 C 
ATOM     17  O   UNL     1       7.013  18.631  22.540  0.00  0.00    +0.000 OA
ATOM     18  N   UNL     1       5.584  17.474  21.120  0.00  0.00    +0.000 N 
ATOM     19  C   UNL     1       6.476  16.423  20.738  0.00  0.00    +0.000 C 
ATOM     20  C   UNL     1       6.250  15.828  19.342  0.00  0.00    +0.000 C 
ATOM     21  O   UNL     1       6.871  14.528  19.141  0.00  0.00    +0.000 OA
ATOM     22  C   UNL     1       8.225  14.553  19.260  0.00  0.00    +0.000 A 
ATOM     23  C   UNL     1       8.859  15.603  19.890  0.00  0.00    +0.000 A 
ATOM     24  C   UNL     1       9.962  15.238  20.590  0.00  0.00    +0.000 A 
ATOM     25  C   UNL     1      10.903  14.727  19.661  0.00  0.00    +0.000 A 
ATOM     26  C   UNL     1      10.393  14.047  18.533  0.00  0.00    +0.000 A 
ATOM     27  C   UNL     1       9.084  13.637  18.689  0.00  0.00    +0.000 A 
ATOM     28  N   UNL     1       8.889  12.246  18.556  0.00  0.00    +0.000 N 
ATOM     29  C   UNL     1       9.957  11.406  18.258  0.00  0.00    +0.000 C 
ATOM     30  O   UNL     1       9.979  10.234  18.634  0.00  0.00    +0.000 OA
ATOM     31  C   UNL     1      11.107  11.980  17.425  0.00  0.00    +0.000 C 
ATOM     32  C   UNL     1      10.998  13.485  17.279  0.00  0.00    +0.000 C 
ATOM     33  N   UNL     1       9.814  14.835  21.983  0.00  0.00    +0.000 N 
ATOM     34  H   UNL     1       4.611  17.213  21.049  0.00  0.00    +0.000 HD
ATOM     35  H   UNL     1       8.181  11.838  19.156  0.00  0.00    +0.000 HD
ATOM     36  H   UNL     1      10.670  14.476  22.396  0.00  0.00    +0.000 HD
ENDROOT
BRANCH   1  38
ATOM     37  N   UNL     1       4.936  10.720  25.486  0.00  0.00    +0.000 NA
ATOM     38  C   UNL     1       5.840  11.204  24.924  0.00  0.00    +0.000 C 
ENDBRANCH   1  38
TORSDOF 1
ENDMDL
