MODEL 1
REMARK VINA RESULT:      -8.5      0.000      0.000
REMARK  Name = 
REMARK  4 active torsions:
REMARK  status: ('A' for Active; 'I' for Inactive)
REMARK    1  A    between atoms: C_6  and  O_7
REMARK    2  A    between atoms: O_7  and  C_8
REMARK    3  A    between atoms: C_8  and  C_9
REMARK    4  A    between atoms: C_8  and  C_15
REMARK                            x       y       z     vdW  Elec       q    Type
REMARK                         _______ _______ _______ _____ _____    ______ ____
ROOT
ATOM      1  C   UNL     1       2.972   5.464  18.649  0.00  0.00    +0.000 C 
ENDROOT
BRANCH   1   2
ATOM      2  C   UNL     1       1.982   4.391  18.096  0.00  0.00    +0.000 C 
ATOM      3  C   UNL     1       1.157   3.706  19.218  0.00  0.00    +0.000 C 
ATOM      4  C   UNL     1       1.718   2.389  19.767  0.00  0.00    +0.000 C 
ATOM      5  N   UNL     1       2.220   1.496  18.730  0.00  0.00    +0.000 NA
ATOM      6  C   UNL     1       3.264   2.166  17.962  0.00  0.00    +0.000 C 
ATOM      7  C   UNL     1       2.669   3.343  17.196  0.00  0.00    +0.000 C 
ATOM      8  H   UNL     1       1.460   1.229  18.104  0.00  0.00    +0.000 HD
ENDBRANCH   1   2
BRANCH   1   9
ATOM      9  C   UNL     1       2.383   6.871  18.819  0.00  0.00    +0.000 A 
ATOM     10  C   UNL     1       2.313   7.776  17.749  0.00  0.00    +0.000 A 
ATOM     11  C   UNL     1       1.789   9.057  17.931  0.00  0.00    +0.000 A 
ATOM     12  C   UNL     1       1.356   9.417  19.192  0.00  0.00    +0.000 A 
ATOM     13  N   UNL     1       1.425   8.593  20.257  0.00  0.00    +0.000 NA
ATOM     14  C   UNL     1       1.942   7.355  20.050  0.00  0.00    +0.000 A 
ENDBRANCH   1   9
BRANCH   1  15
ATOM     15  O   UNL     1       4.070   5.504  17.740  0.00  0.00    +0.000 OA
BRANCH  15  21
ATOM     16  F   UNL     1       8.004   7.886  16.875  0.00  0.00    +0.000 F 
ATOM     17  C   UNL     1       7.354   6.998  17.640  0.00  0.00    +0.000 A 
ATOM     18  C   UNL     1       7.992   6.452  18.745  0.00  0.00    +0.000 A 
ATOM     19  C   UNL     1       7.316   5.528  19.542  0.00  0.00    +0.000 A 
ATOM     20  C   UNL     1       5.998   5.164  19.238  0.00  0.00    +0.000 A 
ATOM     21  C   UNL     1       5.350   5.733  18.140  0.00  0.00    +0.000 A 
ATOM     22  C   UNL     1       6.048   6.640  17.335  0.00  0.00    +0.000 A 
ATOM     23  F   UNL     1       5.445   7.189  16.269  0.00  0.00    +0.000 F 
ENDBRANCH  15  21
ENDBRANCH   1  15
TORSDOF 4
ENDMDL
MODEL 2
REMARK VINA RESULT:      -8.3      0.580      1.018
REMARK  Name = 
REMARK  4 active torsions:
REMARK  status: ('A' for Active; 'I' for Inactive)
REMARK    1  A    between atoms: C_6  and  O_7
REMARK    2  A    between atoms: O_7  and  C_8
REMARK    3  A    between atoms: C_8  and  C_9
REMARK    4  A    between atoms: C_8  and  C_15
REMARK                            x       y       z     vdW  Elec       q    Type
REMARK                         _______ _______ _______ _____ _____    ______ ____
ROOT
ATOM      1  C   UNL     1       2.990   5.458  18.691  0.00  0.00    +0.000 C 
ENDROOT
BRANCH   1   2
ATOM      2  C   UNL     1       1.982   4.409  18.125  0.00  0.00    +0.000 C 
ATOM      3  C   UNL     1       1.148   3.722  19.239  0.00  0.00    +0.000 C 
ATOM      4  C   UNL     1       1.688   2.389  19.768  0.00  0.00    +0.000 C 
ATOM      5  N   UNL     1       2.173   1.503  18.717  0.00  0.00    +0.000 NA
ATOM      6  C   UNL     1       3.226   2.166  17.956  0.00  0.00    +0.000 C 
ATOM      7  C   UNL     1       2.649   3.363  17.208  0.00  0.00    +0.000 C 
ATOM      8  H   UNL     1       1.408   1.257  18.089  0.00  0.00    +0.000 HD
ENDBRANCH   1   2
BRANCH   1   9
ATOM      9  C   UNL     1       2.419   6.868  18.900  0.00  0.00    +0.000 A 
ATOM     10  C   UNL     1       1.917   7.283  20.143  0.00  0.00    +0.000 A 
ATOM     11  C   UNL     1       1.386   8.563  20.306  0.00  0.00    +0.000 A 
ATOM     12  C   UNL     1       1.352   9.405  19.213  0.00  0.00    +0.000 A 
ATOM     13  N   UNL     1       1.799   9.045  17.992  0.00  0.00    +0.000 NA
ATOM     14  C   UNL     1       2.307   7.793  17.864  0.00  0.00    +0.000 A 
ENDBRANCH   1   9
BRANCH   1  15
ATOM     15  O   UNL     1       4.078   5.507  17.770  0.00  0.00    +0.000 OA
BRANCH  15  21
ATOM     16  F   UNL     1       8.000   7.891  16.860  0.00  0.00    +0.000 F 
ATOM     17  C   UNL     1       7.358   7.005  17.634  0.00  0.00    +0.000 A 
ATOM     18  C   UNL     1       8.008   6.465  18.735  0.00  0.00    +0.000 A 
ATOM     19  C   UNL     1       7.341   5.543  19.542  0.00  0.00    +0.000 A 
ATOM     20  C   UNL     1       6.020   5.175  19.252  0.00  0.00    +0.000 A 
ATOM     21  C   UNL     1       5.362   5.739  18.157  0.00  0.00    +0.000 A 
ATOM     22  C   UNL     1       6.051   6.644  17.343  0.00  0.00    +0.000 A 
ATOM     23  F   UNL     1       5.436   7.188  16.280  0.00  0.00    +0.000 F 
ENDBRANCH  15  21
ENDBRANCH   1  15
TORSDOF 4
ENDMDL
MODEL 3
REMARK VINA RESULT:      -8.2      1.320      1.671
REMARK  Name = 
REMARK  4 active torsions:
REMARK  status: ('A' for Active; 'I' for Inactive)
REMARK    1  A    between atoms: C_6  and  O_7
REMARK    2  A    between atoms: O_7  and  C_8
REMARK    3  A    between atoms: C_8  and  C_9
REMARK    4  A    between atoms: C_8  and  C_15
REMARK                            x       y       z     vdW  Elec       q    Type
REMARK                         _______ _______ _______ _____ _____    ______ ____
ROOT
ATOM      1  C   UNL     1       3.044   5.459  18.527  0.00  0.00    +0.000 C 
ENDROOT
BRANCH   1   2
ATOM      2  C   UNL     1       2.027   4.367  18.066  0.00  0.00    +0.000 C 
ATOM      3  C   UNL     1       1.249   3.737  19.252  0.00  0.00    +0.000 C 
ATOM      4  C   UNL     1       1.828   2.444  19.835  0.00  0.00    +0.000 C 
ATOM      5  N   UNL     1       2.282   1.503  18.818  0.00  0.00    +0.000 NA
ATOM      6  C   UNL     1       3.295   2.132  17.977  0.00  0.00    +0.000 C 
ATOM      7  C   UNL     1       2.671   3.276  17.185  0.00  0.00    +0.000 C 
ATOM      8  H   UNL     1       1.496   1.212  18.238  0.00  0.00    +0.000 HD
ENDBRANCH   1   2
BRANCH   1   9
ATOM      9  C   UNL     1       2.452   6.862  18.725  0.00  0.00    +0.000 A 
ATOM     10  C   UNL     1       2.345   7.773  17.663  0.00  0.00    +0.000 A 
ATOM     11  C   UNL     1       1.820   9.050  17.869  0.00  0.00    +0.000 A 
ATOM     12  C   UNL     1       1.423   9.400  19.145  0.00  0.00    +0.000 A 
ATOM     13  N   UNL     1       1.529   8.569  20.202  0.00  0.00    +0.000 NA
ATOM     14  C   UNL     1       2.046   7.335  19.972  0.00  0.00    +0.000 A 
ENDBRANCH   1   9
BRANCH   1  15
ATOM     15  O   UNL     1       4.068   5.499  17.536  0.00  0.00    +0.000 OA
BRANCH  15  21
ATOM     16  F   UNL     1       7.892   5.171  20.213  0.00  0.00    +0.000 F 
ATOM     17  C   UNL     1       7.260   5.775  19.197  0.00  0.00    +0.000 A 
ATOM     18  C   UNL     1       7.911   6.774  18.486  0.00  0.00    +0.000 A 
ATOM     19  C   UNL     1       7.253   7.403  17.428  0.00  0.00    +0.000 A 
ATOM     20  C   UNL     1       5.952   7.020  17.076  0.00  0.00    +0.000 A 
ATOM     21  C   UNL     1       5.310   5.999  17.779  0.00  0.00    +0.000 A 
ATOM     22  C   UNL     1       5.971   5.393  18.853  0.00  0.00    +0.000 A 
ATOM     23  F   UNL     1       5.364   4.417  19.545  0.00  0.00    +0.000 F 
ENDBRANCH  15  21
ENDBRANCH   1  15
TORSDOF 4
ENDMDL
MODEL 4
REMARK VINA RESULT:      -8.1      1.275      1.332
REMARK  Name = 
REMARK  4 active torsions:
REMARK  status: ('A' for Active; 'I' for Inactive)
REMARK    1  A    between atoms: C_6  and  O_7
REMARK    2  A    between atoms: O_7  and  C_8
REMARK    3  A    between atoms: C_8  and  C_9
REMARK    4  A    between atoms: C_8  and  C_15
REMARK                            x       y       z     vdW  Elec       q    Type
REMARK                         _______ _______ _______ _____ _____    ______ ____
ROOT
ATOM      1  C   UNL     1       2.687   5.572  18.801  0.00  0.00    +0.000 C 
ENDROOT
BRANCH   1   2
ATOM      2  C   UNL     1       1.573   4.515  18.523  0.00  0.00    +0.000 C 
ATOM      3  C   UNL     1       1.091   3.802  19.815  0.00  0.00    +0.000 C 
ATOM      4  C   UNL     1       1.772   2.472  20.152  0.00  0.00    +0.000 C 
ATOM      5  N   UNL     1       1.955   1.605  18.995  0.00  0.00    +0.000 NA
ATOM      6  C   UNL     1       2.747   2.292  17.980  0.00  0.00    +0.000 C 
ATOM      7  C   UNL     1       1.970   3.489  17.441  0.00  0.00    +0.000 C 
ATOM      8  H   UNL     1       1.048   1.354  18.601  0.00  0.00    +0.000 HD
ENDBRANCH   1   2
BRANCH   1   9
ATOM      9  C   UNL     1       2.191   7.016  18.968  0.00  0.00    +0.000 A 
ATOM     10  C   UNL     1       2.211   7.930  17.903  0.00  0.00    +0.000 A 
ATOM     11  C   UNL     1       1.772   9.242  18.083  0.00  0.00    +0.000 A 
ATOM     12  C   UNL     1       1.333   9.624  19.335  0.00  0.00    +0.000 A 
ATOM     13  N   UNL     1       1.319   8.791  20.396  0.00  0.00    +0.000 NA
ATOM     14  C   UNL     1       1.755   7.521  20.192  0.00  0.00    +0.000 A 
ENDBRANCH   1   9
BRANCH   1  15
ATOM     15  O   UNL     1       3.597   5.495  17.706  0.00  0.00    +0.000 OA
BRANCH  15  21
ATOM     16  F   UNL     1       7.601   4.271  15.616  0.00  0.00    +0.000 F 
ATOM     17  C   UNL     1       6.973   4.675  16.729  0.00  0.00    +0.000 A 
ATOM     18  C   UNL     1       7.710   4.908  17.881  0.00  0.00    +0.000 A 
ATOM     19  C   UNL     1       7.057   5.329  19.041  0.00  0.00    +0.000 A 
ATOM     20  C   UNL     1       5.670   5.528  19.038  0.00  0.00    +0.000 A 
ATOM     21  C   UNL     1       4.935   5.315  17.870  0.00  0.00    +0.000 A 
ATOM     22  C   UNL     1       5.599   4.870  16.722  0.00  0.00    +0.000 A 
ATOM     23  F   UNL     1       4.906   4.650  15.593  0.00  0.00    +0.000 F 
ENDBRANCH  15  21
ENDBRANCH   1  15
TORSDOF 4
ENDMDL
MODEL 5
REMARK VINA RESULT:      -8.0      1.449      1.958
REMARK  Name = 
REMARK  4 active torsions:
REMARK  status: ('A' for Active; 'I' for Inactive)
REMARK    1  A    between atoms: C_6  and  O_7
REMARK    2  A    between atoms: O_7  and  C_8
REMARK    3  A    between atoms: C_8  and  C_9
REMARK    4  A    between atoms: C_8  and  C_15
REMARK                            x       y       z     vdW  Elec       q    Type
REMARK                         _______ _______ _______ _____ _____    ______ ____
ROOT
ATOM      1  C   UNL     1       3.126   5.430  18.486  0.00  0.00    +0.000 C 
ENDROOT
BRANCH   1   2
ATOM      2  C   UNL     1       2.113   4.354  17.983  0.00  0.00    +0.000 C 
ATOM      3  C   UNL     1       1.265   3.748  19.134  0.00  0.00    +0.000 C 
ATOM      4  C   UNL     1       1.790   2.449  19.754  0.00  0.00    +0.000 C 
ATOM      5  N   UNL     1       2.276   1.491  18.769  0.00  0.00    +0.000 NA
ATOM      6  C   UNL     1       3.340   2.094  17.974  0.00  0.00    +0.000 C 
ATOM      7  C   UNL     1       2.778   3.243  17.144  0.00  0.00    +0.000 C 
ATOM      8  H   UNL     1       1.513   1.210  18.153  0.00  0.00    +0.000 HD
ENDBRANCH   1   2
BRANCH   1   9
ATOM      9  C   UNL     1       2.534   6.828  18.716  0.00  0.00    +0.000 A 
ATOM     10  C   UNL     1       2.099   7.245  19.983  0.00  0.00    +0.000 A 
ATOM     11  C   UNL     1       1.548   8.514  20.165  0.00  0.00    +0.000 A 
ATOM     12  C   UNL     1       1.427   9.343  19.067  0.00  0.00    +0.000 A 
ATOM     13  N   UNL     1       1.806   8.979  17.825  0.00  0.00    +0.000 NA
ATOM     14  C   UNL     1       2.336   7.738  17.678  0.00  0.00    +0.000 A 
ENDBRANCH   1   9
BRANCH   1  15
ATOM     15  O   UNL     1       4.161   5.495  17.508  0.00  0.00    +0.000 OA
BRANCH  15  21
ATOM     16  F   UNL     1       7.938   5.204  20.255  0.00  0.00    +0.000 F 
ATOM     17  C   UNL     1       7.320   5.800  19.226  0.00  0.00    +0.000 A 
ATOM     18  C   UNL     1       7.975   6.803  18.525  0.00  0.00    +0.000 A 
ATOM     19  C   UNL     1       7.333   7.424  17.454  0.00  0.00    +0.000 A 
ATOM     20  C   UNL     1       6.041   7.031  17.079  0.00  0.00    +0.000 A 
ATOM     21  C   UNL     1       5.394   6.005  17.772  0.00  0.00    +0.000 A 
ATOM     22  C   UNL     1       6.040   5.407  18.859  0.00  0.00    +0.000 A 
ATOM     23  F   UNL     1       5.429   4.428  19.543  0.00  0.00    +0.000 F 
ENDBRANCH  15  21
ENDBRANCH   1  15
TORSDOF 4
ENDMDL
MODEL 6
REMARK VINA RESULT:      -7.9      2.939      5.104
REMARK  Name = 
REMARK  4 active torsions:
REMARK  status: ('A' for Active; 'I' for Inactive)
REMARK    1  A    between atoms: C_6  and  O_7
REMARK    2  A    between atoms: O_7  and  C_8
REMARK    3  A    between atoms: C_8  and  C_9
REMARK    4  A    between atoms: C_8  and  C_15
REMARK                            x       y       z     vdW  Elec       q    Type
REMARK                         _______ _______ _______ _____ _____    ______ ____
ROOT
ATOM      1  C   UNL     1       3.270   5.101  18.934  0.00  0.00    +0.000 C 
ENDROOT
BRANCH   1   2
ATOM      2  C   UNL     1       2.796   3.933  19.855  0.00  0.00    +0.000 C 
ATOM      3  C   UNL     1       3.618   2.633  19.640  0.00  0.00    +0.000 C 
ATOM      4  C   UNL     1       3.036   1.617  18.652  0.00  0.00    +0.000 C 
ATOM      5  N   UNL     1       1.598   1.427  18.795  0.00  0.00    +0.000 NA
ATOM      6  C   UNL     1       0.910   2.701  18.615  0.00  0.00    +0.000 C 
ATOM      7  C   UNL     1       1.282   3.654  19.745  0.00  0.00    +0.000 C 
ATOM      8  H   UNL     1       1.387   1.058  19.722  0.00  0.00    +0.000 HD
ENDBRANCH   1   2
BRANCH   1   9
ATOM      9  C   UNL     1       4.702   4.969  18.395  0.00  0.00    +0.000 A 
ATOM     10  C   UNL     1       4.958   4.583  17.070  0.00  0.00    +0.000 A 
ATOM     11  C   UNL     1       6.267   4.452  16.606  0.00  0.00    +0.000 A 
ATOM     12  C   UNL     1       7.304   4.695  17.485  0.00  0.00    +0.000 A 
ATOM     13  N   UNL     1       7.110   5.044  18.774  0.00  0.00    +0.000 NA
ATOM     14  C   UNL     1       5.825   5.161  19.197  0.00  0.00    +0.000 A 
ENDBRANCH   1   9
BRANCH   1  15
ATOM     15  O   UNL     1       3.150   6.294  19.705  0.00  0.00    +0.000 OA
BRANCH  15  21
ATOM     16  F   UNL     1       0.154   9.723  20.787  0.00  0.00    +0.000 F 
ATOM     17  C   UNL     1       0.955   9.154  19.875  0.00  0.00    +0.000 A 
ATOM     18  C   UNL     1       1.091   9.742  18.625  0.00  0.00    +0.000 A 
ATOM     19  C   UNL     1       1.924   9.151  17.675  0.00  0.00    +0.000 A 
ATOM     20  C   UNL     1       2.629   7.981  17.984  0.00  0.00    +0.000 A 
ATOM     21  C   UNL     1       2.508   7.405  19.250  0.00  0.00    +0.000 A 
ATOM     22  C   UNL     1       1.651   7.994  20.185  0.00  0.00    +0.000 A 
ATOM     23  F   UNL     1       1.515   7.448  21.403  0.00  0.00    +0.000 F 
ENDBRANCH  15  21
ENDBRANCH   1  15
TORSDOF 4
ENDMDL
MODEL 7
REMARK VINA RESULT:      -7.9      1.355      1.677
REMARK  Name = 
REMARK  4 active torsions:
REMARK  status: ('A' for Active; 'I' for Inactive)
REMARK    1  A    between atoms: C_6  and  O_7
REMARK    2  A    between atoms: O_7  and  C_8
REMARK    3  A    between atoms: C_8  and  C_9
REMARK    4  A    between atoms: C_8  and  C_15
REMARK                            x       y       z     vdW  Elec       q    Type
REMARK                         _______ _______ _______ _____ _____    ______ ____
ROOT
ATOM      1  C   UNL     1       2.742   5.521  18.899  0.00  0.00    +0.000 C 
ENDROOT
BRANCH   1   2
ATOM      2  C   UNL     1       1.653   4.482  18.485  0.00  0.00    +0.000 C 
ATOM      3  C   UNL     1       1.071   3.711  19.700  0.00  0.00    +0.000 C 
ATOM      4  C   UNL     1       1.724   2.364  20.026  0.00  0.00    +0.000 C 
ATOM      5  N   UNL     1       1.997   1.551  18.847  0.00  0.00    +0.000 NA
ATOM      6  C   UNL     1       2.866   2.283  17.932  0.00  0.00    +0.000 C 
ATOM      7  C   UNL     1       2.135   3.506  17.390  0.00  0.00    +0.000 C 
ATOM      8  H   UNL     1       1.124   1.323  18.373  0.00  0.00    +0.000 HD
ENDBRANCH   1   2
BRANCH   1   9
ATOM      9  C   UNL     1       2.212   6.917  19.256  0.00  0.00    +0.000 A 
ATOM     10  C   UNL     1       1.716   7.212  20.536  0.00  0.00    +0.000 A 
ATOM     11  C   UNL     1       1.222   8.483  20.833  0.00  0.00    +0.000 A 
ATOM     12  C   UNL     1       1.218   9.437  19.835  0.00  0.00    +0.000 A 
ATOM     13  N   UNL     1       1.660   9.196  18.584  0.00  0.00    +0.000 NA
ATOM     14  C   UNL     1       2.131   7.949  18.323  0.00  0.00    +0.000 A 
ENDBRANCH   1   9
BRANCH   1  15
ATOM     15  O   UNL     1       3.649   5.612  17.802  0.00  0.00    +0.000 OA
BRANCH  15  21
ATOM     16  F   UNL     1       7.548   4.270  15.590  0.00  0.00    +0.000 F 
ATOM     17  C   UNL     1       6.965   4.684  16.724  0.00  0.00    +0.000 A 
ATOM     18  C   UNL     1       7.741   4.878  17.859  0.00  0.00    +0.000 A 
ATOM     19  C   UNL     1       7.136   5.308  19.040  0.00  0.00    +0.000 A 
ATOM     20  C   UNL     1       5.758   5.556  19.078  0.00  0.00    +0.000 A 
ATOM     21  C   UNL     1       4.984   5.383  17.928  0.00  0.00    +0.000 A 
ATOM     22  C   UNL     1       5.600   4.928  16.758  0.00  0.00    +0.000 A 
ATOM     23  F   UNL     1       4.869   4.745  15.646  0.00  0.00    +0.000 F 
ENDBRANCH  15  21
ENDBRANCH   1  15
TORSDOF 4
ENDMDL
MODEL 8
REMARK VINA RESULT:      -7.9      2.824      4.919
REMARK  Name = 
REMARK  4 active torsions:
REMARK  status: ('A' for Active; 'I' for Inactive)
REMARK    1  A    between atoms: C_6  and  O_7
REMARK    2  A    between atoms: O_7  and  C_8
REMARK    3  A    between atoms: C_8  and  C_9
REMARK    4  A    between atoms: C_8  and  C_15
REMARK                            x       y       z     vdW  Elec       q    Type
REMARK                         _______ _______ _______ _____ _____    ______ ____
ROOT
ATOM      1  C   UNL     1       3.403   6.339  17.998  0.00  0.00    +0.000 C 
ENDROOT
BRANCH   1   2
ATOM      2  C   UNL     1       4.850   6.701  17.535  0.00  0.00    +0.000 C 
ATOM      3  C   UNL     1       5.020   6.622  15.994  0.00  0.00    +0.000 C 
ATOM      4  C   UNL     1       5.555   5.299  15.436  0.00  0.00    +0.000 C 
ATOM      5  N   UNL     1       6.657   4.745  16.213  0.00  0.00    +0.000 NA
ATOM      6  C   UNL     1       6.233   4.534  17.593  0.00  0.00    +0.000 C 
ATOM      7  C   UNL     1       5.937   5.876  18.255  0.00  0.00    +0.000 C 
ATOM      8  H   UNL     1       7.449   5.387  16.199  0.00  0.00    +0.000 HD
ENDBRANCH   1   2
BRANCH   1   9
ATOM      9  C   UNL     1       2.552   7.527  18.470  0.00  0.00    +0.000 A 
ATOM     10  C   UNL     1       2.259   8.607  17.623  0.00  0.00    +0.000 A 
ATOM     11  C   UNL     1       1.498   9.685  18.078  0.00  0.00    +0.000 A 
ATOM     12  C   UNL     1       1.054   9.670  19.386  0.00  0.00    +0.000 A 
ATOM     13  N   UNL     1       1.330   8.669  20.246  0.00  0.00    +0.000 NA
ATOM     14  C   UNL     1       2.075   7.636  19.775  0.00  0.00    +0.000 A 
ENDBRANCH   1   9
BRANCH   1  15
ATOM     15  O   UNL     1       3.543   5.393  19.054  0.00  0.00    +0.000 OA
BRANCH  15  21
ATOM     16  F   UNL     1       0.933   2.595  21.749  0.00  0.00    +0.000 F 
ATOM     17  C   UNL     1       1.486   2.833  20.551  0.00  0.00    +0.000 A 
ATOM     18  C   UNL     1       1.260   1.947  19.507  0.00  0.00    +0.000 A 
ATOM     19  C   UNL     1       1.835   2.193  18.260  0.00  0.00    +0.000 A 
ATOM     20  C   UNL     1       2.625   3.333  18.059  0.00  0.00    +0.000 A 
ATOM     21  C   UNL     1       2.832   4.234  19.106  0.00  0.00    +0.000 A 
ATOM     22  C   UNL     1       2.269   3.962  20.357  0.00  0.00    +0.000 A 
ATOM     23  F   UNL     1       2.466   4.812  21.376  0.00  0.00    +0.000 F 
ENDBRANCH  15  21
ENDBRANCH   1  15
TORSDOF 4
ENDMDL
MODEL 9
REMARK VINA RESULT:      -7.8      2.771      5.002
REMARK  Name = 
REMARK  4 active torsions:
REMARK  status: ('A' for Active; 'I' for Inactive)
REMARK    1  A    between atoms: C_6  and  O_7
REMARK    2  A    between atoms: O_7  and  C_8
REMARK    3  A    between atoms: C_8  and  C_9
REMARK    4  A    between atoms: C_8  and  C_15
REMARK                            x       y       z     vdW  Elec       q    Type
REMARK                         _______ _______ _______ _____ _____    ______ ____
ROOT
ATOM      1  C   UNL     1       3.390   4.880  17.881  0.00  0.00    +0.000 C 
ENDROOT
BRANCH   1   2
ATOM      2  C   UNL     1       2.673   3.503  18.043  0.00  0.00    +0.000 C 
ATOM      3  C   UNL     1       1.199   3.649  18.510  0.00  0.00    +0.000 C 
ATOM      4  C   UNL     1       0.952   3.553  20.019  0.00  0.00    +0.000 C 
ATOM      5  N   UNL     1       1.706   2.485  20.664  0.00  0.00    +0.000 NA
ATOM      6  C   UNL     1       3.134   2.678  20.435  0.00  0.00    +0.000 C 
ATOM      7  C   UNL     1       3.446   2.523  18.950  0.00  0.00    +0.000 C 
ATOM      8  H   UNL     1       1.423   1.582  20.284  0.00  0.00    +0.000 HD
ENDBRANCH   1   2
BRANCH   1   9
ATOM      9  C   UNL     1       4.920   4.812  17.777  0.00  0.00    +0.000 A 
ATOM     10  C   UNL     1       5.564   4.492  16.571  0.00  0.00    +0.000 A 
ATOM     11  C   UNL     1       6.956   4.418  16.503  0.00  0.00    +0.000 A 
ATOM     12  C   UNL     1       7.683   4.652  17.653  0.00  0.00    +0.000 A 
ATOM     13  N   UNL     1       7.112   4.937  18.841  0.00  0.00    +0.000 NA
ATOM     14  C   UNL     1       5.756   4.999  18.877  0.00  0.00    +0.000 A 
ENDBRANCH   1   9
BRANCH   1  15
ATOM     15  O   UNL     1       3.015   5.664  19.011  0.00  0.00    +0.000 OA
BRANCH  15  21
ATOM     16  F   UNL     1       0.660   9.075  21.181  0.00  0.00    +0.000 F 
ATOM     17  C   UNL     1       1.297   8.652  20.081  0.00  0.00    +0.000 A 
ATOM     18  C   UNL     1       1.431   9.509  18.998  0.00  0.00    +0.000 A 
ATOM     19  C   UNL     1       2.095   9.069  17.852  0.00  0.00    +0.000 A 
ATOM     20  C   UNL     1       2.635   7.777  17.800  0.00  0.00    +0.000 A 
ATOM     21  C   UNL     1       2.519   6.926  18.901  0.00  0.00    +0.000 A 
ATOM     22  C   UNL     1       1.830   7.371  20.034  0.00  0.00    +0.000 A 
ATOM     23  F   UNL     1       1.699   6.562  21.097  0.00  0.00    +0.000 F 
ENDBRANCH  15  21
ENDBRANCH   1  15
TORSDOF 4
ENDMDL
