MODEL 1
REMARK VINA RESULT:      -7.6      0.000      0.000
REMARK  Name = 
REMARK  13 active torsions:
REMARK  status: ('A' for Active; 'I' for Inactive)
REMARK    1  A    between atoms: C_1  and  C_2
REMARK    2  A    between atoms: C_2  and  C_3
REMARK    3  A    between atoms: C_3  and  C_4
REMARK    4  A    between atoms: C_4  and  C_5
REMARK    5  A    between atoms: C_5  and  C_6
REMARK    6  A    between atoms: C_6  and  C_7
REMARK    7  A    between atoms: N_12  and  C_13
REMARK    8  A    between atoms: C_13  and  C_14
REMARK    9  A    between atoms: C_14  and  C_15
REMARK   10  A    between atoms: C_18  and  O_19
REMARK   11  A    between atoms: O_19  and  C_20
REMARK   12  A    between atoms: C_21  and  O_22
REMARK   13  A    between atoms: O_22  and  C_23
REMARK                            x       y       z     vdW  Elec       q    Type
REMARK                         _______ _______ _______ _____ _____    ______ ____
ROOT
ATOM      1  C   UNL     1       6.398   5.321  16.620  0.00  0.00    +0.000 C 
ATOM      2  C   UNL     1       6.170   6.802  16.380  0.00  0.00    +0.000 C 
ATOM      3  O   UNL     1       5.300   7.177  15.599  0.00  0.00    +0.000 OA
ATOM      4  N   UNL     1       6.994   7.711  16.991  0.00  0.00    +0.000 NA
ATOM      5  C   UNL     1       7.776   7.378  17.957  0.00  0.00    +0.000 C 
ATOM      6  N   UNL     1       8.576   8.292  18.580  0.00  0.00    +0.000 N 
ATOM      7  N   UNL     1       7.863   6.104  18.413  0.00  0.00    +0.000 N 
ATOM      8  C   UNL     1       7.275   5.033  17.810  0.00  0.00    +0.000 C 
ATOM      9  O   UNL     1       7.525   3.894  18.205  0.00  0.00    +0.000 OA
ATOM     10  H   UNL     1       9.033   8.053  19.450  0.00  0.00    +0.000 HD
ATOM     11  H   UNL     1       8.500   5.875  19.161  0.00  0.00    +0.000 HD
ENDROOT
BRANCH   1  12
ATOM     12  C   UNL     1       5.022   4.626  16.838  0.00  0.00    +0.000 C 
BRANCH  12  14
ATOM     13  C   UNL     1       2.731   4.689  17.922  0.00  0.00    +0.000 C 
ATOM     14  C   UNL     1       4.031   5.446  17.685  0.00  0.00    +0.000 C 
ENDBRANCH  12  14
ENDBRANCH   1  12
BRANCH   1  15
ATOM     15  C   UNL     1       7.080   4.731  15.351  0.00  0.00    +0.000 C 
BRANCH  15  16
ATOM     16  C   UNL     1       6.183   3.787  14.532  0.00  0.00    +0.000 C 
ATOM     17  C   UNL     1       6.357   3.990  13.035  0.00  0.00    +0.000 C 
ENDBRANCH  15  16
ENDBRANCH   1  15
BRANCH   6  18
ATOM     18  C   UNL     1       8.549   9.700  18.203  0.00  0.00    +0.000 C 
BRANCH  18  19
ATOM     19  C   UNL     1       9.402  10.563  19.137  0.00  0.00    +0.000 C 
BRANCH  19  20
ATOM     20  C   UNL     1       9.875  11.813  18.428  0.00  0.00    +0.000 A 
ATOM     21  C   UNL     1      11.128  11.862  17.817  0.00  0.00    +0.000 A 
ATOM     22  C   UNL     1      11.577  13.055  17.248  0.00  0.00    +0.000 A 
ATOM     23  C   UNL     1      10.797  14.222  17.279  0.00  0.00    +0.000 A 
ATOM     24  C   UNL     1       9.531  14.183  17.887  0.00  0.00    +0.000 A 
ATOM     25  C   UNL     1       9.085  12.974  18.449  0.00  0.00    +0.000 A 
BRANCH  23  26
ATOM     26  O   UNL     1      11.430  15.280  16.677  0.00  0.00    +0.000 OA
ATOM     27  C   UNL     1      12.305  16.089  17.448  0.00  0.00    +0.000 C 
ENDBRANCH  23  26
BRANCH  24  28
ATOM     28  O   UNL     1       8.791  15.334  17.923  0.00  0.00    +0.000 OA
ATOM     29  C   UNL     1       7.749  15.443  18.884  0.00  0.00    +0.000 C 
ENDBRANCH  24  28
ENDBRANCH  19  20
ENDBRANCH  18  19
ENDBRANCH   6  18
TORSDOF 9
ENDMDL
MODEL 2
REMARK VINA RESULT:      -7.4      4.474      7.555
REMARK  Name = 
REMARK  13 active torsions:
REMARK  status: ('A' for Active; 'I' for Inactive)
REMARK    1  A    between atoms: C_1  and  C_2
REMARK    2  A    between atoms: C_2  and  C_3
REMARK    3  A    between atoms: C_3  and  C_4
REMARK    4  A    between atoms: C_4  and  C_5
REMARK    5  A    between atoms: C_5  and  C_6
REMARK    6  A    between atoms: C_6  and  C_7
REMARK    7  A    between atoms: N_12  and  C_13
REMARK    8  A    between atoms: C_13  and  C_14
REMARK    9  A    between atoms: C_14  and  C_15
REMARK   10  A    between atoms: C_18  and  O_19
REMARK   11  A    between atoms: O_19  and  C_20
REMARK   12  A    between atoms: C_21  and  O_22
REMARK   13  A    between atoms: O_22  and  C_23
REMARK                            x       y       z     vdW  Elec       q    Type
REMARK                         _______ _______ _______ _____ _____    ______ ____
ROOT
ATOM      1  C   UNL     1       6.827   5.568  16.363  0.00  0.00    +0.000 C 
ATOM      2  C   UNL     1       5.373   5.999  16.310  0.00  0.00    +0.000 C 
ATOM      3  O   UNL     1       4.949   6.632  15.347  0.00  0.00    +0.000 OA
ATOM      4  N   UNL     1       4.560   5.736  17.382  0.00  0.00    +0.000 NA
ATOM      5  C   UNL     1       4.903   4.914  18.310  0.00  0.00    +0.000 C 
ATOM      6  N   UNL     1       4.080   4.635  19.362  0.00  0.00    +0.000 N 
ATOM      7  N   UNL     1       6.102   4.279  18.310  0.00  0.00    +0.000 N 
ATOM      8  C   UNL     1       7.116   4.557  17.443  0.00  0.00    +0.000 C 
ATOM      9  O   UNL     1       8.220   4.038  17.605  0.00  0.00    +0.000 OA
ATOM     10  H   UNL     1       4.283   3.852  19.970  0.00  0.00    +0.000 HD
ATOM     11  H   UNL     1       6.345   3.654  19.063  0.00  0.00    +0.000 HD
ENDROOT
BRANCH   1  12
ATOM     12  C   UNL     1       7.223   4.953  14.989  0.00  0.00    +0.000 C 
BRANCH  12  14
ATOM     13  C   UNL     1       5.796   3.867  13.197  0.00  0.00    +0.000 C 
ATOM     14  C   UNL     1       6.393   3.719  14.590  0.00  0.00    +0.000 C 
ENDBRANCH  12  14
ENDBRANCH   1  12
BRANCH   1  15
ATOM     15  C   UNL     1       7.692   6.835  16.632  0.00  0.00    +0.000 C 
BRANCH  15  16
ATOM     16  C   UNL     1       7.760   7.253  18.111  0.00  0.00    +0.000 C 
ATOM     17  C   UNL     1       8.342   8.647  18.284  0.00  0.00    +0.000 C 
ENDBRANCH  15  16
ENDBRANCH   1  15
BRANCH   6  18
ATOM     18  C   UNL     1       2.751   5.228  19.459  0.00  0.00    +0.000 C 
BRANCH  18  19
ATOM     19  C   UNL     1       2.691   6.341  20.509  0.00  0.00    +0.000 C 
BRANCH  19  20
ATOM     20  C   UNL     1       1.912   7.527  19.987  0.00  0.00    +0.000 A 
ATOM     21  C   UNL     1       2.101   7.996  18.687  0.00  0.00    +0.000 A 
ATOM     22  C   UNL     1       1.436   9.147  18.260  0.00  0.00    +0.000 A 
ATOM     23  C   UNL     1       0.577   9.857  19.113  0.00  0.00    +0.000 A 
ATOM     24  C   UNL     1       0.374   9.392  20.423  0.00  0.00    +0.000 A 
ATOM     25  C   UNL     1       1.042   8.226  20.839  0.00  0.00    +0.000 A 
BRANCH  23  26
ATOM     26  O   UNL     1       0.039  10.960  18.500  0.00  0.00    +0.000 OA
ATOM     27  C   UNL     1      -1.304  10.909  18.043  0.00  0.00    +0.000 C 
ENDBRANCH  23  26
BRANCH  24  28
ATOM     28  O   UNL     1      -0.454  10.105  21.247  0.00  0.00    +0.000 OA
ATOM     29  C   UNL     1       0.042  11.295  21.846  0.00  0.00    +0.000 C 
ENDBRANCH  24  28
ENDBRANCH  19  20
ENDBRANCH  18  19
ENDBRANCH   6  18
TORSDOF 9
ENDMDL
MODEL 3
REMARK VINA RESULT:      -7.3      6.883      9.136
REMARK  Name = 
REMARK  13 active torsions:
REMARK  status: ('A' for Active; 'I' for Inactive)
REMARK    1  A    between atoms: C_1  and  C_2
REMARK    2  A    between atoms: C_2  and  C_3
REMARK    3  A    between atoms: C_3  and  C_4
REMARK    4  A    between atoms: C_4  and  C_5
REMARK    5  A    between atoms: C_5  and  C_6
REMARK    6  A    between atoms: C_6  and  C_7
REMARK    7  A    between atoms: N_12  and  C_13
REMARK    8  A    between atoms: C_13  and  C_14
REMARK    9  A    between atoms: C_14  and  C_15
REMARK   10  A    between atoms: C_18  and  O_19
REMARK   11  A    between atoms: O_19  and  C_20
REMARK   12  A    between atoms: C_21  and  O_22
REMARK   13  A    between atoms: O_22  and  C_23
REMARK                            x       y       z     vdW  Elec       q    Type
REMARK                         _______ _______ _______ _____ _____    ______ ____
ROOT
ATOM      1  C   UNL     1       3.443   4.066  18.270  0.00  0.00    +0.000 C 
ATOM      2  C   UNL     1       2.094   4.649  17.894  0.00  0.00    +0.000 C 
ATOM      3  O   UNL     1       1.195   3.920  17.486  0.00  0.00    +0.000 OA
ATOM      4  N   UNL     1       1.918   6.008  17.948  0.00  0.00    +0.000 NA
ATOM      5  C   UNL     1       2.752   6.779  18.550  0.00  0.00    +0.000 C 
ATOM      6  N   UNL     1       2.559   8.128  18.623  0.00  0.00    +0.000 N 
ATOM      7  N   UNL     1       3.878   6.308  19.142  0.00  0.00    +0.000 N 
ATOM      8  C   UNL     1       4.325   5.025  19.027  0.00  0.00    +0.000 C 
ATOM      9  O   UNL     1       5.429   4.719  19.474  0.00  0.00    +0.000 OA
ATOM     10  H   UNL     1       3.117   8.685  19.257  0.00  0.00    +0.000 HD
ATOM     11  H   UNL     1       4.520   6.943  19.590  0.00  0.00    +0.000 HD
ENDROOT
BRANCH   1  12
ATOM     12  C   UNL     1       3.220   2.800  19.148  0.00  0.00    +0.000 C 
BRANCH  12  14
ATOM     13  C   UNL     1       1.288   2.881  20.788  0.00  0.00    +0.000 C 
ATOM     14  C   UNL     1       2.782   3.106  20.592  0.00  0.00    +0.000 C 
ENDBRANCH  12  14
ENDBRANCH   1  12
BRANCH   1  15
ATOM     15  C   UNL     1       4.173   3.661  16.955  0.00  0.00    +0.000 C 
BRANCH  15  16
ATOM     16  C   UNL     1       4.780   4.842  16.179  0.00  0.00    +0.000 C 
ATOM     17  C   UNL     1       6.205   4.558  15.731  0.00  0.00    +0.000 C 
ENDBRANCH  15  16
ENDBRANCH   1  15
BRANCH   6  18
ATOM     18  C   UNL     1       1.370   8.752  18.055  0.00  0.00    +0.000 C 
BRANCH  18  19
ATOM     19  C   UNL     1       1.038  10.085  18.733  0.00  0.00    +0.000 C 
BRANCH  19  20
ATOM     20  C   UNL     1      -0.368  10.524  18.392  0.00  0.00    +0.000 A 
ATOM     21  C   UNL     1      -1.033  11.473  19.168  0.00  0.00    +0.000 A 
ATOM     22  C   UNL     1      -2.362  11.794  18.886  0.00  0.00    +0.000 A 
ATOM     23  C   UNL     1      -3.058  11.178  17.834  0.00  0.00    +0.000 A 
ATOM     24  C   UNL     1      -2.397  10.224  17.042  0.00  0.00    +0.000 A 
ATOM     25  C   UNL     1      -1.056   9.915  17.329  0.00  0.00    +0.000 A 
BRANCH  23  26
ATOM     26  O   UNL     1      -4.350  11.628  17.739  0.00  0.00    +0.000 OA
ATOM     27  C   UNL     1      -5.398  10.836  18.279  0.00  0.00    +0.000 C 
ENDBRANCH  23  26
BRANCH  24  28
ATOM     28  O   UNL     1      -3.096   9.621  16.030  0.00  0.00    +0.000 OA
ATOM     29  C   UNL     1      -2.955  10.127  14.710  0.00  0.00    +0.000 C 
ENDBRANCH  24  28
ENDBRANCH  19  20
ENDBRANCH  18  19
ENDBRANCH   6  18
TORSDOF 9
ENDMDL
MODEL 4
REMARK VINA RESULT:      -7.2      7.007      8.768
REMARK  Name = 
REMARK  13 active torsions:
REMARK  status: ('A' for Active; 'I' for Inactive)
REMARK    1  A    between atoms: C_1  and  C_2
REMARK    2  A    between atoms: C_2  and  C_3
REMARK    3  A    between atoms: C_3  and  C_4
REMARK    4  A    between atoms: C_4  and  C_5
REMARK    5  A    between atoms: C_5  and  C_6
REMARK    6  A    between atoms: C_6  and  C_7
REMARK    7  A    between atoms: N_12  and  C_13
REMARK    8  A    between atoms: C_13  and  C_14
REMARK    9  A    between atoms: C_14  and  C_15
REMARK   10  A    between atoms: C_18  and  O_19
REMARK   11  A    between atoms: O_19  and  C_20
REMARK   12  A    between atoms: C_21  and  O_22
REMARK   13  A    between atoms: O_22  and  C_23
REMARK                            x       y       z     vdW  Elec       q    Type
REMARK                         _______ _______ _______ _____ _____    ______ ____
ROOT
ATOM      1  C   UNL     1       3.426   3.749  18.268  0.00  0.00    +0.000 C 
ATOM      2  C   UNL     1       2.109   4.435  17.957  0.00  0.00    +0.000 C 
ATOM      3  O   UNL     1       1.126   3.774  17.634  0.00  0.00    +0.000 OA
ATOM      4  N   UNL     1       2.052   5.805  17.970  0.00  0.00    +0.000 NA
ATOM      5  C   UNL     1       2.986   6.520  18.490  0.00  0.00    +0.000 C 
ATOM      6  N   UNL     1       2.913   7.882  18.524  0.00  0.00    +0.000 N 
ATOM      7  N   UNL     1       4.105   5.972  19.026  0.00  0.00    +0.000 N 
ATOM      8  C   UNL     1       4.433   4.653  18.931  0.00  0.00    +0.000 C 
ATOM      9  O   UNL     1       5.535   4.266  19.319  0.00  0.00    +0.000 OA
ATOM     10  H   UNL     1       3.557   8.409  19.100  0.00  0.00    +0.000 HD
ATOM     11  H   UNL     1       4.826   6.563  19.410  0.00  0.00    +0.000 HD
ENDROOT
BRANCH   1  12
ATOM     12  C   UNL     1       3.155   2.536  19.206  0.00  0.00    +0.000 C 
BRANCH  12  14
ATOM     13  C   UNL     1       1.378   2.683  21.007  0.00  0.00    +0.000 C 
ATOM     14  C   UNL     1       2.841   2.925  20.662  0.00  0.00    +0.000 C 
ENDBRANCH  12  14
ENDBRANCH   1  12
BRANCH   1  15
ATOM     15  C   UNL     1       4.030   3.241  16.926  0.00  0.00    +0.000 C 
BRANCH  15  16
ATOM     16  C   UNL     1       4.735   4.329  16.097  0.00  0.00    +0.000 C 
ATOM     17  C   UNL     1       6.117   3.893  15.641  0.00  0.00    +0.000 C 
ENDBRANCH  15  16
ENDBRANCH   1  15
BRANCH   6  18
ATOM     18  C   UNL     1       1.746   8.589  18.009  0.00  0.00    +0.000 C 
BRANCH  18  19
ATOM     19  C   UNL     1       1.322   9.743  18.922  0.00  0.00    +0.000 C 
BRANCH  19  20
ATOM     20  C   UNL     1      -0.073  10.214  18.575  0.00  0.00    +0.000 A 
ATOM     21  C   UNL     1      -0.772   9.663  17.501  0.00  0.00    +0.000 A 
ATOM     22  C   UNL     1      -2.020  10.177  17.147  0.00  0.00    +0.000 A 
ATOM     23  C   UNL     1      -2.597  11.250  17.845  0.00  0.00    +0.000 A 
ATOM     24  C   UNL     1      -1.905  11.810  18.933  0.00  0.00    +0.000 A 
ATOM     25  C   UNL     1      -0.653  11.278  19.286  0.00  0.00    +0.000 A 
BRANCH  23  26
ATOM     26  O   UNL     1      -3.816  11.606  17.327  0.00  0.00    +0.000 OA
ATOM     27  C   UNL     1      -4.990  11.007  17.853  0.00  0.00    +0.000 C 
ENDBRANCH  23  26
BRANCH  24  28
ATOM     28  O   UNL     1      -2.474  12.866  19.592  0.00  0.00    +0.000 OA
ATOM     29  C   UNL     1      -3.204  12.610  20.784  0.00  0.00    +0.000 C 
ENDBRANCH  24  28
ENDBRANCH  19  20
ENDBRANCH  18  19
ENDBRANCH   6  18
TORSDOF 9
ENDMDL
MODEL 5
REMARK VINA RESULT:      -7.2      0.957      1.104
REMARK  Name = 
REMARK  13 active torsions:
REMARK  status: ('A' for Active; 'I' for Inactive)
REMARK    1  A    between atoms: C_1  and  C_2
REMARK    2  A    between atoms: C_2  and  C_3
REMARK    3  A    between atoms: C_3  and  C_4
REMARK    4  A    between atoms: C_4  and  C_5
REMARK    5  A    between atoms: C_5  and  C_6
REMARK    6  A    between atoms: C_6  and  C_7
REMARK    7  A    between atoms: N_12  and  C_13
REMARK    8  A    between atoms: C_13  and  C_14
REMARK    9  A    between atoms: C_14  and  C_15
REMARK   10  A    between atoms: C_18  and  O_19
REMARK   11  A    between atoms: O_19  and  C_20
REMARK   12  A    between atoms: C_21  and  O_22
REMARK   13  A    between atoms: O_22  and  C_23
REMARK                            x       y       z     vdW  Elec       q    Type
REMARK                         _______ _______ _______ _____ _____    ______ ____
ROOT
ATOM      1  C   UNL     1       5.406   5.140  17.159  0.00  0.00    +0.000 C 
ATOM      2  C   UNL     1       5.706   6.464  16.482  0.00  0.00    +0.000 C 
ATOM      3  O   UNL     1       5.066   6.816  15.495  0.00  0.00    +0.000 OA
ATOM      4  N   UNL     1       6.747   7.228  16.943  0.00  0.00    +0.000 NA
ATOM      5  C   UNL     1       7.307   7.000  18.078  0.00  0.00    +0.000 C 
ATOM      6  N   UNL     1       8.326   7.779  18.545  0.00  0.00    +0.000 N 
ATOM      7  N   UNL     1       6.931   5.972  18.879  0.00  0.00    +0.000 N 
ATOM      8  C   UNL     1       6.056   4.994  18.510  0.00  0.00    +0.000 C 
ATOM      9  O   UNL     1       5.882   4.020  19.242  0.00  0.00    +0.000 OA
ATOM     10  H   UNL     1       8.619   7.703  19.511  0.00  0.00    +0.000 HD
ATOM     11  H   UNL     1       7.403   5.812  19.756  0.00  0.00    +0.000 HD
ENDROOT
BRANCH   1  12
ATOM     12  C   UNL     1       3.865   4.998  17.332  0.00  0.00    +0.000 C 
BRANCH  12  14
ATOM     13  C   UNL     1       2.136   3.210  17.822  0.00  0.00    +0.000 C 
ATOM     14  C   UNL     1       3.315   3.612  16.947  0.00  0.00    +0.000 C 
ENDBRANCH  12  14
ENDBRANCH   1  12
BRANCH   1  15
ATOM     15  C   UNL     1       5.931   4.001  16.235  0.00  0.00    +0.000 C 
BRANCH  15  16
ATOM     16  C   UNL     1       6.711   4.493  15.004  0.00  0.00    +0.000 C 
ATOM     17  C   UNL     1       6.134   3.950  13.707  0.00  0.00    +0.000 C 
ENDBRANCH  15  16
ENDBRANCH   1  15
BRANCH   6  18
ATOM     18  C   UNL     1       8.799   8.934  17.793  0.00  0.00    +0.000 C 
BRANCH  18  19
ATOM     19  C   UNL     1       8.179  10.242  18.293  0.00  0.00    +0.000 C 
BRANCH  19  20
ATOM     20  C   UNL     1       9.087  11.414  17.993  0.00  0.00    +0.000 A 
ATOM     21  C   UNL     1      10.454  11.230  17.786  0.00  0.00    +0.000 A 
ATOM     22  C   UNL     1      11.284  12.337  17.601  0.00  0.00    +0.000 A 
ATOM     23  C   UNL     1      10.777  13.646  17.621  0.00  0.00    +0.000 A 
ATOM     24  C   UNL     1       9.400  13.844  17.823  0.00  0.00    +0.000 A 
ATOM     25  C   UNL     1       8.573  12.721  18.000  0.00  0.00    +0.000 A 
BRANCH  23  26
ATOM     26  O   UNL     1      11.761  14.582  17.431  0.00  0.00    +0.000 OA
ATOM     27  C   UNL     1      12.330  15.223  18.563  0.00  0.00    +0.000 C 
ENDBRANCH  23  26
BRANCH  24  28
ATOM     28  O   UNL     1       8.925  15.127  17.857  0.00  0.00    +0.000 OA
ATOM     29  C   UNL     1       7.598  15.349  18.315  0.00  0.00    +0.000 C 
ENDBRANCH  24  28
ENDBRANCH  19  20
ENDBRANCH  18  19
ENDBRANCH   6  18
TORSDOF 9
ENDMDL
MODEL 6
REMARK VINA RESULT:      -7.2      1.760      2.326
REMARK  Name = 
REMARK  13 active torsions:
REMARK  status: ('A' for Active; 'I' for Inactive)
REMARK    1  A    between atoms: C_1  and  C_2
REMARK    2  A    between atoms: C_2  and  C_3
REMARK    3  A    between atoms: C_3  and  C_4
REMARK    4  A    between atoms: C_4  and  C_5
REMARK    5  A    between atoms: C_5  and  C_6
REMARK    6  A    between atoms: C_6  and  C_7
REMARK    7  A    between atoms: N_12  and  C_13
REMARK    8  A    between atoms: C_13  and  C_14
REMARK    9  A    between atoms: C_14  and  C_15
REMARK   10  A    between atoms: C_18  and  O_19
REMARK   11  A    between atoms: O_19  and  C_20
REMARK   12  A    between atoms: C_21  and  O_22
REMARK   13  A    between atoms: O_22  and  C_23
REMARK                            x       y       z     vdW  Elec       q    Type
REMARK                         _______ _______ _______ _____ _____    ______ ____
ROOT
ATOM      1  C   UNL     1       4.835   5.203  17.315  0.00  0.00    +0.000 C 
ATOM      2  C   UNL     1       5.234   6.532  16.701  0.00  0.00    +0.000 C 
ATOM      3  O   UNL     1       4.545   7.040  15.821  0.00  0.00    +0.000 OA
ATOM      4  N   UNL     1       6.410   7.120  17.091  0.00  0.00    +0.000 NA
ATOM      5  C   UNL     1       7.051   6.731  18.136  0.00  0.00    +0.000 C 
ATOM      6  N   UNL     1       8.208   7.337  18.534  0.00  0.00    +0.000 N 
ATOM      7  N   UNL     1       6.629   5.695  18.902  0.00  0.00    +0.000 N 
ATOM      8  C   UNL     1       5.599   4.867  18.570  0.00  0.00    +0.000 C 
ATOM      9  O   UNL     1       5.376   3.865  19.249  0.00  0.00    +0.000 OA
ATOM     10  H   UNL     1       8.588   7.146  19.452  0.00  0.00    +0.000 HD
ATOM     11  H   UNL     1       7.166   5.406  19.705  0.00  0.00    +0.000 HD
ENDROOT
BRANCH   1  12
ATOM     12  C   UNL     1       3.316   5.238  17.655  0.00  0.00    +0.000 C 
BRANCH  12  14
ATOM     13  C   UNL     1       2.169   7.397  18.325  0.00  0.00    +0.000 C 
ATOM     14  C   UNL     1       2.953   6.186  18.812  0.00  0.00    +0.000 C 
ENDBRANCH  12  14
ENDBRANCH   1  12
BRANCH   1  15
ATOM     15  C   UNL     1       5.104   4.088  16.262  0.00  0.00    +0.000 C 
BRANCH  15  16
ATOM     16  C   UNL     1       6.522   4.112  15.664  0.00  0.00    +0.000 C 
ATOM     17  C   UNL     1       6.500   4.135  14.145  0.00  0.00    +0.000 C 
ENDBRANCH  15  16
ENDBRANCH   1  15
BRANCH   6  18
ATOM     18  C   UNL     1       8.747   8.483  17.813  0.00  0.00    +0.000 C 
BRANCH  18  19
ATOM     19  C   UNL     1       8.227   9.812  18.370  0.00  0.00    +0.000 C 
BRANCH  19  20
ATOM     20  C   UNL     1       9.375  10.720  18.749  0.00  0.00    +0.000 A 
ATOM     21  C   UNL     1       9.625  11.044  20.083  0.00  0.00    +0.000 A 
ATOM     22  C   UNL     1      10.634  11.956  20.399  0.00  0.00    +0.000 A 
ATOM     23  C   UNL     1      11.410  12.566  19.401  0.00  0.00    +0.000 A 
ATOM     24  C   UNL     1      11.171  12.244  18.054  0.00  0.00    +0.000 A 
ATOM     25  C   UNL     1      10.159  11.318  17.748  0.00  0.00    +0.000 A 
BRANCH  23  26
ATOM     26  O   UNL     1      12.333  13.434  19.926  0.00  0.00    +0.000 OA
ATOM     27  C   UNL     1      12.019  14.817  19.994  0.00  0.00    +0.000 C 
ENDBRANCH  23  26
BRANCH  24  28
ATOM     28  O   UNL     1      11.926  12.861  17.093  0.00  0.00    +0.000 OA
ATOM     29  C   UNL     1      11.444  14.071  16.523  0.00  0.00    +0.000 C 
ENDBRANCH  24  28
ENDBRANCH  19  20
ENDBRANCH  18  19
ENDBRANCH   6  18
TORSDOF 9
ENDMDL
MODEL 7
REMARK VINA RESULT:      -7.1      6.343      9.380
REMARK  Name = 
REMARK  13 active torsions:
REMARK  status: ('A' for Active; 'I' for Inactive)
REMARK    1  A    between atoms: C_1  and  C_2
REMARK    2  A    between atoms: C_2  and  C_3
REMARK    3  A    between atoms: C_3  and  C_4
REMARK    4  A    between atoms: C_4  and  C_5
REMARK    5  A    between atoms: C_5  and  C_6
REMARK    6  A    between atoms: C_6  and  C_7
REMARK    7  A    between atoms: N_12  and  C_13
REMARK    8  A    between atoms: C_13  and  C_14
REMARK    9  A    between atoms: C_14  and  C_15
REMARK   10  A    between atoms: C_18  and  O_19
REMARK   11  A    between atoms: O_19  and  C_20
REMARK   12  A    between atoms: C_21  and  O_22
REMARK   13  A    between atoms: O_22  and  C_23
REMARK                            x       y       z     vdW  Elec       q    Type
REMARK                         _______ _______ _______ _____ _____    ______ ____
ROOT
ATOM      1  C   UNL     1       3.867   5.095  18.201  0.00  0.00    +0.000 C 
ATOM      2  C   UNL     1       3.039   5.666  19.338  0.00  0.00    +0.000 C 
ATOM      3  O   UNL     1       2.867   5.017  20.366  0.00  0.00    +0.000 OA
ATOM      4  N   UNL     1       2.427   6.881  19.172  0.00  0.00    +0.000 NA
ATOM      5  C   UNL     1       2.738   7.673  18.207  0.00  0.00    +0.000 C 
ATOM      6  N   UNL     1       2.144   8.893  18.061  0.00  0.00    +0.000 N 
ATOM      7  N   UNL     1       3.663   7.347  17.270  0.00  0.00    +0.000 N 
ATOM      8  C   UNL     1       4.232   6.114  17.153  0.00  0.00    +0.000 C 
ATOM      9  O   UNL     1       4.952   5.862  16.187  0.00  0.00    +0.000 OA
ATOM     10  H   UNL     1       2.534   9.571  17.418  0.00  0.00    +0.000 HD
ATOM     11  H   UNL     1       3.870   7.985  16.518  0.00  0.00    +0.000 HD
ENDROOT
BRANCH   1  12
ATOM     12  C   UNL     1       5.178   4.491  18.784  0.00  0.00    +0.000 C 
BRANCH  12  14
ATOM     13  C   UNL     1       7.535   5.412  18.632  0.00  0.00    +0.000 C 
ATOM     14  C   UNL     1       6.176   5.541  19.306  0.00  0.00    +0.000 C 
ENDBRANCH  12  14
ENDBRANCH   1  12
BRANCH   1  15
ATOM     15  C   UNL     1       3.035   3.968  17.522  0.00  0.00    +0.000 C 
BRANCH  15  16
ATOM     16  C   UNL     1       3.429   2.544  17.952  0.00  0.00    +0.000 C 
ATOM     17  C   UNL     1       2.359   1.889  18.810  0.00  0.00    +0.000 C 
ENDBRANCH  15  16
ENDBRANCH   1  15
BRANCH   6  18
ATOM     18  C   UNL     1       1.158   9.373  19.021  0.00  0.00    +0.000 C 
BRANCH  18  19
ATOM     19  C   UNL     1       0.694  10.799  18.708  0.00  0.00    +0.000 C 
BRANCH  19  20
ATOM     20  C   UNL     1      -0.810  10.853  18.565  0.00  0.00    +0.000 A 
ATOM     21  C   UNL     1      -1.467  10.104  17.588  0.00  0.00    +0.000 A 
ATOM     22  C   UNL     1      -2.845  10.241  17.418  0.00  0.00    +0.000 A 
ATOM     23  C   UNL     1      -3.598  11.124  18.207  0.00  0.00    +0.000 A 
ATOM     24  C   UNL     1      -2.949  11.880  19.198  0.00  0.00    +0.000 A 
ATOM     25  C   UNL     1      -1.562  11.727  19.367  0.00  0.00    +0.000 A 
BRANCH  23  26
ATOM     26  O   UNL     1      -4.927  11.113  17.867  0.00  0.00    +0.000 OA
ATOM     27  C   UNL     1      -5.436  12.147  17.038  0.00  0.00    +0.000 C 
ENDBRANCH  23  26
BRANCH  24  28
ATOM     28  O   UNL     1      -3.696  12.749  19.947  0.00  0.00    +0.000 OA
ATOM     29  C   UNL     1      -3.455  12.821  21.346  0.00  0.00    +0.000 C 
ENDBRANCH  24  28
ENDBRANCH  19  20
ENDBRANCH  18  19
ENDBRANCH   6  18
TORSDOF 9
ENDMDL
MODEL 8
REMARK VINA RESULT:      -7.1      5.983      9.157
REMARK  Name = 
REMARK  13 active torsions:
REMARK  status: ('A' for Active; 'I' for Inactive)
REMARK    1  A    between atoms: C_1  and  C_2
REMARK    2  A    between atoms: C_2  and  C_3
REMARK    3  A    between atoms: C_3  and  C_4
REMARK    4  A    between atoms: C_4  and  C_5
REMARK    5  A    between atoms: C_5  and  C_6
REMARK    6  A    between atoms: C_6  and  C_7
REMARK    7  A    between atoms: N_12  and  C_13
REMARK    8  A    between atoms: C_13  and  C_14
REMARK    9  A    between atoms: C_14  and  C_15
REMARK   10  A    between atoms: C_18  and  O_19
REMARK   11  A    between atoms: O_19  and  C_20
REMARK   12  A    between atoms: C_21  and  O_22
REMARK   13  A    between atoms: O_22  and  C_23
REMARK                            x       y       z     vdW  Elec       q    Type
REMARK                         _______ _______ _______ _____ _____    ______ ____
ROOT
ATOM      1  C   UNL     1       4.359   5.303  18.485  0.00  0.00    +0.000 C 
ATOM      2  C   UNL     1       4.145   6.439  17.503  0.00  0.00    +0.000 C 
ATOM      3  O   UNL     1       4.772   6.475  16.448  0.00  0.00    +0.000 OA
ATOM      4  N   UNL     1       3.297   7.462  17.843  0.00  0.00    +0.000 NA
ATOM      5  C   UNL     1       2.480   7.368  18.831  0.00  0.00    +0.000 C 
ATOM      6  N   UNL     1       1.619   8.378  19.150  0.00  0.00    +0.000 N 
ATOM      7  N   UNL     1       2.425   6.269  19.625  0.00  0.00    +0.000 N 
ATOM      8  C   UNL     1       3.315   5.239  19.570  0.00  0.00    +0.000 C 
ATOM      9  O   UNL     1       3.279   4.352  20.422  0.00  0.00    +0.000 OA
ATOM     10  H   UNL     1       0.862   8.211  19.800  0.00  0.00    +0.000 HD
ATOM     11  H   UNL     1       1.784   6.236  20.403  0.00  0.00    +0.000 HD
ENDROOT
BRANCH   1  12
ATOM     12  C   UNL     1       4.348   3.954  17.707  0.00  0.00    +0.000 C 
BRANCH  12  14
ATOM     13  C   UNL     1       2.536   2.180  17.697  0.00  0.00    +0.000 C 
ATOM     14  C   UNL     1       2.961   3.546  17.176  0.00  0.00    +0.000 C 
ENDBRANCH  12  14
ENDBRANCH   1  12
BRANCH   1  15
ATOM     15  C   UNL     1       5.751   5.503  19.153  0.00  0.00    +0.000 C 
BRANCH  15  16
ATOM     16  C   UNL     1       6.940   5.406  18.181  0.00  0.00    +0.000 C 
ATOM     17  C   UNL     1       7.805   6.655  18.210  0.00  0.00    +0.000 C 
ENDBRANCH  15  16
ENDBRANCH   1  15
BRANCH   6  18
ATOM     18  C   UNL     1       1.558   9.597  18.353  0.00  0.00    +0.000 C 
BRANCH  18  19
ATOM     19  C   UNL     1       0.937  10.763  19.128  0.00  0.00    +0.000 C 
BRANCH  19  20
ATOM     20  C   UNL     1      -0.499  10.982  18.707  0.00  0.00    +0.000 A 
ATOM     21  C   UNL     1      -1.328  11.859  19.407  0.00  0.00    +0.000 A 
ATOM     22  C   UNL     1      -2.673  11.975  19.053  0.00  0.00    +0.000 A 
ATOM     23  C   UNL     1      -3.224  11.221  18.005  0.00  0.00    +0.000 A 
ATOM     24  C   UNL     1      -2.398  10.338  17.289  0.00  0.00    +0.000 A 
ATOM     25  C   UNL     1      -1.042  10.236  17.648  0.00  0.00    +0.000 A 
BRANCH  23  26
ATOM     26  O   UNL     1      -4.560  11.478  17.834  0.00  0.00    +0.000 OA
ATOM     27  C   UNL     1      -5.311  11.983  18.927  0.00  0.00    +0.000 C 
ENDBRANCH  23  26
BRANCH  24  28
ATOM     28  O   UNL     1      -2.955   9.598  16.281  0.00  0.00    +0.000 OA
ATOM     29  C   UNL     1      -3.014  10.161  14.977  0.00  0.00    +0.000 C 
ENDBRANCH  24  28
ENDBRANCH  19  20
ENDBRANCH  18  19
ENDBRANCH   6  18
TORSDOF 9
ENDMDL
MODEL 9
REMARK VINA RESULT:      -7.1      1.657      3.259
REMARK  Name = 
REMARK  13 active torsions:
REMARK  status: ('A' for Active; 'I' for Inactive)
REMARK    1  A    between atoms: C_1  and  C_2
REMARK    2  A    between atoms: C_2  and  C_3
REMARK    3  A    between atoms: C_3  and  C_4
REMARK    4  A    between atoms: C_4  and  C_5
REMARK    5  A    between atoms: C_5  and  C_6
REMARK    6  A    between atoms: C_6  and  C_7
REMARK    7  A    between atoms: N_12  and  C_13
REMARK    8  A    between atoms: C_13  and  C_14
REMARK    9  A    between atoms: C_14  and  C_15
REMARK   10  A    between atoms: C_18  and  O_19
REMARK   11  A    between atoms: O_19  and  C_20
REMARK   12  A    between atoms: C_21  and  O_22
REMARK   13  A    between atoms: O_22  and  C_23
REMARK                            x       y       z     vdW  Elec       q    Type
REMARK                         _______ _______ _______ _____ _____    ______ ____
ROOT
ATOM      1  C   UNL     1       6.295   5.551  17.570  0.00  0.00    +0.000 C 
ATOM      2  C   UNL     1       7.581   5.818  18.329  0.00  0.00    +0.000 C 
ATOM      3  O   UNL     1       8.184   4.896  18.872  0.00  0.00    +0.000 OA
ATOM      4  N   UNL     1       8.021   7.110  18.463  0.00  0.00    +0.000 NA
ATOM      5  C   UNL     1       7.539   8.069  17.754  0.00  0.00    +0.000 C 
ATOM      6  N   UNL     1       7.997   9.349  17.871  0.00  0.00    +0.000 N 
ATOM      7  N   UNL     1       6.543   7.876  16.854  0.00  0.00    +0.000 N 
ATOM      8  C   UNL     1       5.847   6.712  16.720  0.00  0.00    +0.000 C 
ATOM      9  O   UNL     1       4.863   6.668  15.981  0.00  0.00    +0.000 OA
ATOM     10  H   UNL     1       7.744  10.042  17.179  0.00  0.00    +0.000 HD
ATOM     11  H   UNL     1       6.177   8.654  16.327  0.00  0.00    +0.000 HD
ENDROOT
BRANCH   1  12
ATOM     12  C   UNL     1       6.500   4.313  16.649  0.00  0.00    +0.000 C 
BRANCH  12  14
ATOM     13  C   UNL     1       6.351   4.062  14.130  0.00  0.00    +0.000 C 
ATOM     14  C   UNL     1       7.149   4.639  15.291  0.00  0.00    +0.000 C 
ENDBRANCH  12  14
ENDBRANCH   1  12
BRANCH   1  15
ATOM     15  C   UNL     1       5.179   5.243  18.611  0.00  0.00    +0.000 C 
BRANCH  15  16
ATOM     16  C   UNL     1       4.345   3.991  18.292  0.00  0.00    +0.000 C 
ATOM     17  C   UNL     1       2.953   4.344  17.793  0.00  0.00    +0.000 C 
ENDBRANCH  15  16
ENDBRANCH   1  15
BRANCH   6  18
ATOM     18  C   UNL     1       9.088   9.680  18.780  0.00  0.00    +0.000 C 
BRANCH  18  19
ATOM     19  C   UNL     1      10.023  10.743  18.197  0.00  0.00    +0.000 C 
BRANCH  19  20
ATOM     20  C   UNL     1       9.727  12.101  18.793  0.00  0.00    +0.000 A 
ATOM     21  C   UNL     1      10.266  12.479  20.024  0.00  0.00    +0.000 A 
ATOM     22  C   UNL     1       9.905  13.701  20.594  0.00  0.00    +0.000 A 
ATOM     23  C   UNL     1       9.001  14.568  19.961  0.00  0.00    +0.000 A 
ATOM     24  C   UNL     1       8.456  14.201  18.718  0.00  0.00    +0.000 A 
ATOM     25  C   UNL     1       8.834  12.973  18.149  0.00  0.00    +0.000 A 
BRANCH  23  26
ATOM     26  O   UNL     1       8.776  15.704  20.696  0.00  0.00    +0.000 OA
ATOM     27  C   UNL     1       7.678  15.738  21.595  0.00  0.00    +0.000 C 
ENDBRANCH  23  26
BRANCH  24  28
ATOM     28  O   UNL     1       7.564  15.051  18.122  0.00  0.00    +0.000 OA
ATOM     29  C   UNL     1       6.265  14.565  17.810  0.00  0.00    +0.000 C 
ENDBRANCH  24  28
ENDBRANCH  19  20
ENDBRANCH  18  19
ENDBRANCH   6  18
TORSDOF 9
ENDMDL
