MODEL 1
REMARK VINA RESULT:      -7.9      0.000      0.000
REMARK  Name = 
REMARK  6 active torsions:
REMARK  status: ('A' for Active; 'I' for Inactive)
REMARK    1  A    between atoms: C_1  and  C_2
REMARK    2  A    between atoms: C_4  and  N_5
REMARK    3  A    between atoms: N_6  and  C_7
REMARK    4  A    between atoms: C_7  and  C_8
REMARK    5  A    between atoms: N_10  and  C_11
REMARK    6  A    between atoms: C_11  and  C_12
REMARK                            x       y       z     vdW  Elec       q    Type
REMARK                         _______ _______ _______ _____ _____    ______ ____
ROOT
ATOM      1  C   UNL     1       5.735   5.917  15.916  0.00  0.00    +0.000 C 
ATOM      2  O   UNL     1       5.170   6.719  15.166  0.00  0.00    +0.000 OA
ATOM      3  N   UNL     1       5.335   5.723  17.230  0.00  0.00    +0.000 N 
ATOM      4  H   UNL     1       5.993   5.307  17.877  0.00  0.00    +0.000 HD
ENDROOT
BRANCH   1   5
ATOM      5  C   UNL     1       6.932   5.119  15.460  0.00  0.00    +0.000 C 
BRANCH   5  10
ATOM      6  C   UNL     1       5.548   2.469  11.679  0.00  0.00    +0.000 C 
ATOM      7  C   UNL     1       6.289   3.516  12.421  0.00  0.00    +0.000 A 
ATOM      8  C   UNL     1       7.311   4.358  11.937  0.00  0.00    +0.000 A 
ATOM      9  C   UNL     1       7.724   5.093  13.021  0.00  0.00    +0.000 A 
ATOM     10  N   UNL     1       6.903   4.724  14.063  0.00  0.00    +0.000 N 
ATOM     11  N   UNL     1       6.031   3.742  13.714  0.00  0.00    +0.000 NA
BRANCH   9  12
ATOM     12  N   UNL     1       8.727   5.986  13.107  0.00  0.00    +0.000 N 
ATOM     13  H   UNL     1       8.562   6.986  13.138  0.00  0.00    +0.000 HD
ATOM     14  H   UNL     1       9.714   5.728  13.220  0.00  0.00    +0.000 HD
ENDBRANCH   9  12
ENDBRANCH   5  10
ENDBRANCH   1   5
BRANCH   3  15
ATOM     15  C   UNL     1       4.346   6.604  17.794  0.00  0.00    +0.000 C 
BRANCH  15  16
ATOM     16  C   UNL     1       3.335   5.933  18.695  0.00  0.00    +0.000 A 
ATOM     17  C   UNL     1       2.768   6.679  19.710  0.00  0.00    +0.000 A 
ATOM     18  S   UNL     1       1.551   5.870  20.569  0.00  0.00    +0.000 S 
ATOM     19  C   UNL     1       1.734   4.484  19.599  0.00  0.00    +0.000 A 
ATOM     20  C   UNL     1       2.725   4.605  18.639  0.00  0.00    +0.000 A 
ATOM     21  C   UNL     1       3.025   3.477  17.699  0.00  0.00    +0.000 C 
ATOM     22  C   UNL     1       2.185   2.197  17.882  0.00  0.00    +0.000 C 
ATOM     23  C   UNL     1       1.100   2.120  18.964  0.00  0.00    +0.000 C 
ATOM     24  C   UNL     1       0.835   3.328  19.846  0.00  0.00    +0.000 C 
ENDBRANCH  15  16
ENDBRANCH   3  15
TORSDOF 5
ENDMDL
MODEL 2
REMARK VINA RESULT:      -7.3      1.307      1.309
REMARK  Name = 
REMARK  6 active torsions:
REMARK  status: ('A' for Active; 'I' for Inactive)
REMARK    1  A    between atoms: C_1  and  C_2
REMARK    2  A    between atoms: C_4  and  N_5
REMARK    3  A    between atoms: N_6  and  C_7
REMARK    4  A    between atoms: C_7  and  C_8
REMARK    5  A    between atoms: N_10  and  C_11
REMARK    6  A    between atoms: C_11  and  C_12
REMARK                            x       y       z     vdW  Elec       q    Type
REMARK                         _______ _______ _______ _____ _____    ______ ____
ROOT
ATOM      1  C   UNL     1       6.273   5.814  16.360  0.00  0.00    +0.000 C 
ATOM      2  O   UNL     1       6.784   6.939  16.383  0.00  0.00    +0.000 OA
ATOM      3  N   UNL     1       5.019   5.560  16.894  0.00  0.00    +0.000 N 
ATOM      4  H   UNL     1       4.780   4.604  17.129  0.00  0.00    +0.000 HD
ENDROOT
BRANCH   1   5
ATOM      5  C   UNL     1       7.004   4.628  15.782  0.00  0.00    +0.000 C 
BRANCH   5  10
ATOM      6  C   UNL     1       5.293   2.699  11.710  0.00  0.00    +0.000 C 
ATOM      7  C   UNL     1       6.117   3.583  12.567  0.00  0.00    +0.000 A 
ATOM      8  C   UNL     1       7.141   4.465  12.164  0.00  0.00    +0.000 A 
ATOM      9  C   UNL     1       7.647   4.994  13.326  0.00  0.00    +0.000 A 
ATOM     10  N   UNL     1       6.876   4.477  14.343  0.00  0.00    +0.000 N 
ATOM     11  N   UNL     1       5.946   3.594  13.893  0.00  0.00    +0.000 NA
BRANCH   9  12
ATOM     12  N   UNL     1       8.687   5.830  13.495  0.00  0.00    +0.000 N 
ATOM     13  H   UNL     1       9.494   5.823  12.881  0.00  0.00    +0.000 HD
ATOM     14  H   UNL     1       8.713   6.575  14.200  0.00  0.00    +0.000 HD
ENDBRANCH   9  12
ENDBRANCH   5  10
ENDBRANCH   1   5
BRANCH   3  15
ATOM     15  C   UNL     1       4.362   6.592  17.654  0.00  0.00    +0.000 C 
BRANCH  15  16
ATOM     16  C   UNL     1       3.542   6.098  18.822  0.00  0.00    +0.000 A 
ATOM     17  C   UNL     1       2.534   6.910  19.303  0.00  0.00    +0.000 A 
ATOM     18  S   UNL     1       1.593   6.202  20.522  0.00  0.00    +0.000 S 
ATOM     19  C   UNL     1       2.502   4.767  20.443  0.00  0.00    +0.000 A 
ATOM     20  C   UNL     1       3.535   4.813  19.521  0.00  0.00    +0.000 A 
ATOM     21  C   UNL     1       4.440   3.635  19.323  0.00  0.00    +0.000 C 
ATOM     22  C   UNL     1       4.160   2.404  20.208  0.00  0.00    +0.000 C 
ATOM     23  C   UNL     1       3.001   2.410  21.214  0.00  0.00    +0.000 C 
ATOM     24  C   UNL     1       2.107   3.633  21.318  0.00  0.00    +0.000 C 
ENDBRANCH  15  16
ENDBRANCH   3  15
TORSDOF 5
ENDMDL
MODEL 3
REMARK VINA RESULT:      -7.3      6.464      8.945
REMARK  Name = 
REMARK  6 active torsions:
REMARK  status: ('A' for Active; 'I' for Inactive)
REMARK    1  A    between atoms: C_1  and  C_2
REMARK    2  A    between atoms: C_4  and  N_5
REMARK    3  A    between atoms: N_6  and  C_7
REMARK    4  A    between atoms: C_7  and  C_8
REMARK    5  A    between atoms: N_10  and  C_11
REMARK    6  A    between atoms: C_11  and  C_12
REMARK                            x       y       z     vdW  Elec       q    Type
REMARK                         _______ _______ _______ _____ _____    ______ ____
ROOT
ATOM      1  C   UNL     1       7.903   7.629  18.120  0.00  0.00    +0.000 C 
ATOM      2  O   UNL     1       7.258   7.832  17.086  0.00  0.00    +0.000 OA
ATOM      3  N   UNL     1       8.640   8.626  18.742  0.00  0.00    +0.000 N 
ATOM      4  H   UNL     1       9.376   8.352  19.382  0.00  0.00    +0.000 HD
ENDROOT
BRANCH   1   5
ATOM      5  C   UNL     1       7.961   6.262  18.757  0.00  0.00    +0.000 C 
BRANCH   5  10
ATOM      6  C   UNL     1       4.112   3.453  19.484  0.00  0.00    +0.000 C 
ATOM      7  C   UNL     1       5.206   4.111  18.731  0.00  0.00    +0.000 A 
ATOM      8  C   UNL     1       5.570   3.909  17.384  0.00  0.00    +0.000 A 
ATOM      9  C   UNL     1       6.684   4.689  17.185  0.00  0.00    +0.000 A 
ATOM     10  N   UNL     1       6.889   5.363  18.368  0.00  0.00    +0.000 N 
ATOM     11  N   UNL     1       6.001   5.004  19.332  0.00  0.00    +0.000 NA
BRANCH   9  12
ATOM     12  N   UNL     1       7.460   4.795  16.092  0.00  0.00    +0.000 N 
ATOM     13  H   UNL     1       7.336   4.202  15.278  0.00  0.00    +0.000 HD
ATOM     14  H   UNL     1       8.178   5.517  15.969  0.00  0.00    +0.000 HD
ENDBRANCH   9  12
ENDBRANCH   5  10
ENDBRANCH   1   5
BRANCH   3  15
ATOM     15  C   UNL     1       8.807   9.889  18.072  0.00  0.00    +0.000 C 
BRANCH  15  16
ATOM     16  C   UNL     1       9.448  10.973  18.907  0.00  0.00    +0.000 A 
ATOM     17  C   UNL     1       9.283  10.925  20.278  0.00  0.00    +0.000 A 
ATOM     18  S   UNL     1      10.156  12.107  21.123  0.00  0.00    +0.000 S 
ATOM     19  C   UNL     1      10.800  12.724  19.675  0.00  0.00    +0.000 A 
ATOM     20  C   UNL     1      10.348  12.067  18.542  0.00  0.00    +0.000 A 
ATOM     21  C   UNL     1      10.810  12.482  17.178  0.00  0.00    +0.000 C 
ATOM     22  C   UNL     1      11.788  13.674  17.124  0.00  0.00    +0.000 C 
ATOM     23  C   UNL     1      12.254  14.363  18.413  0.00  0.00    +0.000 C 
ATOM     24  C   UNL     1      11.766  13.849  19.756  0.00  0.00    +0.000 C 
ENDBRANCH  15  16
ENDBRANCH   3  15
TORSDOF 5
ENDMDL
MODEL 4
REMARK VINA RESULT:      -7.2      2.618      4.551
REMARK  Name = 
REMARK  6 active torsions:
REMARK  status: ('A' for Active; 'I' for Inactive)
REMARK    1  A    between atoms: C_1  and  C_2
REMARK    2  A    between atoms: C_4  and  N_5
REMARK    3  A    between atoms: N_6  and  C_7
REMARK    4  A    between atoms: C_7  and  C_8
REMARK    5  A    between atoms: N_10  and  C_11
REMARK    6  A    between atoms: C_11  and  C_12
REMARK                            x       y       z     vdW  Elec       q    Type
REMARK                         _______ _______ _______ _____ _____    ______ ____
ROOT
ATOM      1  C   UNL     1       5.632   4.390  16.184  0.00  0.00    +0.000 C 
ATOM      2  O   UNL     1       4.905   4.815  15.280  0.00  0.00    +0.000 OA
ATOM      3  N   UNL     1       5.152   3.576  17.199  0.00  0.00    +0.000 N 
ATOM      4  H   UNL     1       5.687   3.510  18.057  0.00  0.00    +0.000 HD
ENDROOT
BRANCH   1   5
ATOM      5  C   UNL     1       7.092   4.763  16.263  0.00  0.00    +0.000 C 
BRANCH   5  10
ATOM      6  C   UNL     1       8.054   9.316  17.521  0.00  0.00    +0.000 C 
ATOM      7  C   UNL     1       7.842   7.860  17.700  0.00  0.00    +0.000 A 
ATOM      8  C   UNL     1       8.020   7.100  18.874  0.00  0.00    +0.000 A 
ATOM      9  C   UNL     1       7.773   5.799  18.509  0.00  0.00    +0.000 A 
ATOM     10  N   UNL     1       7.395   5.844  17.186  0.00  0.00    +0.000 N 
ATOM     11  N   UNL     1       7.452   7.100  16.671  0.00  0.00    +0.000 NA
BRANCH   9  12
ATOM     12  N   UNL     1       7.881   4.677  19.243  0.00  0.00    +0.000 N 
ATOM     13  H   UNL     1       8.551   3.948  19.026  0.00  0.00    +0.000 HD
ATOM     14  H   UNL     1       7.353   4.506  20.106  0.00  0.00    +0.000 HD
ENDBRANCH   9  12
ENDBRANCH   5  10
ENDBRANCH   1   5
BRANCH   3  15
ATOM     15  C   UNL     1       3.733   3.361  17.308  0.00  0.00    +0.000 C 
BRANCH  15  16
ATOM     16  C   UNL     1       3.074   4.045  18.483  0.00  0.00    +0.000 A 
ATOM     17  C   UNL     1       2.838   3.303  19.624  0.00  0.00    +0.000 A 
ATOM     18  S   UNL     1       2.222   4.201  20.922  0.00  0.00    +0.000 S 
ATOM     19  C   UNL     1       2.257   5.630  20.000  0.00  0.00    +0.000 A 
ATOM     20  C   UNL     1       2.707   5.444  18.703  0.00  0.00    +0.000 A 
ATOM     21  C   UNL     1       2.800   6.597  17.750  0.00  0.00    +0.000 C 
ATOM     22  C   UNL     1       2.354   7.969  18.294  0.00  0.00    +0.000 C 
ATOM     23  C   UNL     1       1.863   8.115  19.741  0.00  0.00    +0.000 C 
ATOM     24  C   UNL     1       1.842   6.899  20.651  0.00  0.00    +0.000 C 
ENDBRANCH  15  16
ENDBRANCH   3  15
TORSDOF 5
ENDMDL
MODEL 5
REMARK VINA RESULT:      -7.1      3.885      6.024
REMARK  Name = 
REMARK  6 active torsions:
REMARK  status: ('A' for Active; 'I' for Inactive)
REMARK    1  A    between atoms: C_1  and  C_2
REMARK    2  A    between atoms: C_4  and  N_5
REMARK    3  A    between atoms: N_6  and  C_7
REMARK    4  A    between atoms: C_7  and  C_8
REMARK    5  A    between atoms: N_10  and  C_11
REMARK    6  A    between atoms: C_11  and  C_12
REMARK                            x       y       z     vdW  Elec       q    Type
REMARK                         _______ _______ _______ _____ _____    ______ ____
ROOT
ATOM      1  C   UNL     1       2.970   5.646  18.089  0.00  0.00    +0.000 C 
ATOM      2  O   UNL     1       1.928   4.997  17.954  0.00  0.00    +0.000 OA
ATOM      3  N   UNL     1       3.156   6.541  19.133  0.00  0.00    +0.000 N 
ATOM      4  H   UNL     1       3.867   7.254  19.035  0.00  0.00    +0.000 HD
ENDROOT
BRANCH   1   5
ATOM      5  C   UNL     1       4.103   5.535  17.098  0.00  0.00    +0.000 C 
BRANCH   5  10
ATOM      6  C   UNL     1       8.021   8.290  17.640  0.00  0.00    +0.000 C 
ATOM      7  C   UNL     1       7.135   7.115  17.821  0.00  0.00    +0.000 A 
ATOM      8  C   UNL     1       7.425   5.912  18.498  0.00  0.00    +0.000 A 
ATOM      9  C   UNL     1       6.319   5.117  18.319  0.00  0.00    +0.000 A 
ATOM     10  N   UNL     1       5.410   5.884  17.627  0.00  0.00    +0.000 N 
ATOM     11  N   UNL     1       5.905   7.106  17.297  0.00  0.00    +0.000 NA
BRANCH   9  12
ATOM     12  N   UNL     1       6.120   3.843  18.703  0.00  0.00    +0.000 N 
ATOM     13  H   UNL     1       5.845   3.116  18.052  0.00  0.00    +0.000 HD
ATOM     14  H   UNL     1       6.299   3.498  19.653  0.00  0.00    +0.000 HD
ENDBRANCH   9  12
ENDBRANCH   5  10
ENDBRANCH   1   5
BRANCH   3  15
ATOM     15  C   UNL     1       2.039   6.858  19.985  0.00  0.00    +0.000 C 
BRANCH  15  16
ATOM     16  C   UNL     1       1.569   8.292  19.910  0.00  0.00    +0.000 A 
ATOM     17  C   UNL     1       1.730   8.972  18.719  0.00  0.00    +0.000 A 
ATOM     18  S   UNL     1       1.046  10.522  18.706  0.00  0.00    +0.000 S 
ATOM     19  C   UNL     1       0.496  10.335  20.304  0.00  0.00    +0.000 A 
ATOM     20  C   UNL     1       0.841   9.120  20.872  0.00  0.00    +0.000 A 
ATOM     21  C   UNL     1       0.441   8.788  22.278  0.00  0.00    +0.000 C 
ATOM     22  C   UNL     1      -0.349   9.874  23.036  0.00  0.00    +0.000 C 
ATOM     23  C   UNL     1      -0.703  11.203  22.356  0.00  0.00    +0.000 C 
ATOM     24  C   UNL     1      -0.292  11.438  20.912  0.00  0.00    +0.000 C 
ENDBRANCH  15  16
ENDBRANCH   3  15
TORSDOF 5
ENDMDL
MODEL 6
REMARK VINA RESULT:      -7.1      1.413      2.612
REMARK  Name = 
REMARK  6 active torsions:
REMARK  status: ('A' for Active; 'I' for Inactive)
REMARK    1  A    between atoms: C_1  and  C_2
REMARK    2  A    between atoms: C_4  and  N_5
REMARK    3  A    between atoms: N_6  and  C_7
REMARK    4  A    between atoms: C_7  and  C_8
REMARK    5  A    between atoms: N_10  and  C_11
REMARK    6  A    between atoms: C_11  and  C_12
REMARK                            x       y       z     vdW  Elec       q    Type
REMARK                         _______ _______ _______ _____ _____    ______ ____
ROOT
ATOM      1  C   UNL     1       6.065   4.649  16.464  0.00  0.00    +0.000 C 
ATOM      2  O   UNL     1       6.717   4.092  17.353  0.00  0.00    +0.000 OA
ATOM      3  N   UNL     1       4.695   4.480  16.335  0.00  0.00    +0.000 N 
ATOM      4  H   UNL     1       4.265   4.692  15.443  0.00  0.00    +0.000 HD
ENDROOT
BRANCH   1   5
ATOM      5  C   UNL     1       6.729   5.525  15.430  0.00  0.00    +0.000 C 
BRANCH   5  10
ATOM      6  C   UNL     1       5.458   2.501  11.898  0.00  0.00    +0.000 C 
ATOM      7  C   UNL     1       6.212   3.588  12.567  0.00  0.00    +0.000 A 
ATOM      8  C   UNL     1       7.326   4.296  12.073  0.00  0.00    +0.000 A 
ATOM      9  C   UNL     1       7.705   5.138  13.090  0.00  0.00    +0.000 A 
ATOM     10  N   UNL     1       6.781   4.956  14.094  0.00  0.00    +0.000 N 
ATOM     11  N   UNL     1       5.870   3.993  13.795  0.00  0.00    +0.000 NA
BRANCH   9  12
ATOM     12  N   UNL     1       8.759   5.972  13.153  0.00  0.00    +0.000 N 
ATOM     13  H   UNL     1       8.914   6.703  12.467  0.00  0.00    +0.000 HD
ATOM     14  H   UNL     1       9.436   5.980  13.923  0.00  0.00    +0.000 HD
ENDBRANCH   9  12
ENDBRANCH   5  10
ENDBRANCH   1   5
BRANCH   3  15
ATOM     15  C   UNL     1       4.034   3.491  17.147  0.00  0.00    +0.000 C 
BRANCH  15  16
ATOM     16  C   UNL     1       3.235   4.046  18.302  0.00  0.00    +0.000 A 
ATOM     17  C   UNL     1       2.876   3.186  19.322  0.00  0.00    +0.000 A 
ATOM     18  S   UNL     1       2.103   3.941  20.627  0.00  0.00    +0.000 S 
ATOM     19  C   UNL     1       2.229   5.461  19.873  0.00  0.00    +0.000 A 
ATOM     20  C   UNL     1       2.830   5.414  18.626  0.00  0.00    +0.000 A 
ATOM     21  C   UNL     1       3.019   6.662  17.817  0.00  0.00    +0.000 C 
ATOM     22  C   UNL     1       2.497   7.968  18.449  0.00  0.00    +0.000 C 
ATOM     23  C   UNL     1       1.840   7.959  19.835  0.00  0.00    +0.000 C 
ATOM     24  C   UNL     1       1.726   6.653  20.602  0.00  0.00    +0.000 C 
ENDBRANCH  15  16
ENDBRANCH   3  15
TORSDOF 5
ENDMDL
MODEL 7
REMARK VINA RESULT:      -7.1      1.514      2.168
REMARK  Name = 
REMARK  6 active torsions:
REMARK  status: ('A' for Active; 'I' for Inactive)
REMARK    1  A    between atoms: C_1  and  C_2
REMARK    2  A    between atoms: C_4  and  N_5
REMARK    3  A    between atoms: N_6  and  C_7
REMARK    4  A    between atoms: C_7  and  C_8
REMARK    5  A    between atoms: N_10  and  C_11
REMARK    6  A    between atoms: C_11  and  C_12
REMARK                            x       y       z     vdW  Elec       q    Type
REMARK                         _______ _______ _______ _____ _____    ______ ____
ROOT
ATOM      1  C   UNL     1       6.364   5.686  16.215  0.00  0.00    +0.000 C 
ATOM      2  O   UNL     1       6.519   6.737  16.845  0.00  0.00    +0.000 OA
ATOM      3  N   UNL     1       5.151   5.014  16.181  0.00  0.00    +0.000 N 
ATOM      4  H   UNL     1       5.150   4.035  15.925  0.00  0.00    +0.000 HD
ENDROOT
BRANCH   1   5
ATOM      5  C   UNL     1       7.504   5.039  15.468  0.00  0.00    +0.000 C 
BRANCH   5  10
ATOM      6  C   UNL     1       5.457   2.651  11.816  0.00  0.00    +0.000 C 
ATOM      7  C   UNL     1       6.325   3.648  12.487  0.00  0.00    +0.000 A 
ATOM      8  C   UNL     1       7.252   4.527  11.889  0.00  0.00    +0.000 A 
ATOM      9  C   UNL     1       7.855   5.187  12.932  0.00  0.00    +0.000 A 
ATOM     10  N   UNL     1       7.227   4.742  14.074  0.00  0.00    +0.000 N 
ATOM     11  N   UNL     1       6.300   3.783  13.818  0.00  0.00    +0.000 NA
BRANCH   9  12
ATOM     12  N   UNL     1       8.863   6.077  12.902  0.00  0.00    +0.000 N 
ATOM     13  H   UNL     1       9.011   6.704  12.119  0.00  0.00    +0.000 HD
ATOM     14  H   UNL     1       9.506   6.238  13.685  0.00  0.00    +0.000 HD
ENDBRANCH   9  12
ENDBRANCH   5  10
ENDBRANCH   1   5
BRANCH   3  15
ATOM     15  C   UNL     1       4.086   5.454  17.045  0.00  0.00    +0.000 C 
BRANCH  15  16
ATOM     16  C   UNL     1       3.292   4.344  17.692  0.00  0.00    +0.000 A 
ATOM     17  C   UNL     1       3.073   3.189  16.968  0.00  0.00    +0.000 A 
ATOM     18  S   UNL     1       2.291   1.962  17.837  0.00  0.00    +0.000 S 
ATOM     19  C   UNL     1       2.225   2.937  19.229  0.00  0.00    +0.000 A 
ATOM     20  C   UNL     1       2.765   4.199  19.049  0.00  0.00    +0.000 A 
ATOM     21  C   UNL     1       2.786   5.192  20.172  0.00  0.00    +0.000 C 
ATOM     22  C   UNL     1       2.165   4.727  21.504  0.00  0.00    +0.000 C 
ATOM     23  C   UNL     1       1.580   3.316  21.645  0.00  0.00    +0.000 C 
ATOM     24  C   UNL     1       1.639   2.360  20.466  0.00  0.00    +0.000 C 
ENDBRANCH  15  16
ENDBRANCH   3  15
TORSDOF 5
ENDMDL
MODEL 8
REMARK VINA RESULT:      -7.1      3.276      5.485
REMARK  Name = 
REMARK  6 active torsions:
REMARK  status: ('A' for Active; 'I' for Inactive)
REMARK    1  A    between atoms: C_1  and  C_2
REMARK    2  A    between atoms: C_4  and  N_5
REMARK    3  A    between atoms: N_6  and  C_7
REMARK    4  A    between atoms: C_7  and  C_8
REMARK    5  A    between atoms: N_10  and  C_11
REMARK    6  A    between atoms: C_11  and  C_12
REMARK                            x       y       z     vdW  Elec       q    Type
REMARK                         _______ _______ _______ _____ _____    ______ ____
ROOT
ATOM      1  C   UNL     1       3.117   4.563  18.104  0.00  0.00    +0.000 C 
ATOM      2  O   UNL     1       1.968   4.150  17.919  0.00  0.00    +0.000 OA
ATOM      3  N   UNL     1       3.433   5.440  19.132  0.00  0.00    +0.000 N 
ATOM      4  H   UNL     1       4.288   5.977  19.060  0.00  0.00    +0.000 HD
ENDROOT
BRANCH   1   5
ATOM      5  C   UNL     1       4.254   4.167  17.194  0.00  0.00    +0.000 C 
BRANCH   5  10
ATOM      6  C   UNL     1       8.173   5.697  19.546  0.00  0.00    +0.000 C 
ATOM      7  C   UNL     1       7.179   5.610  18.450  0.00  0.00    +0.000 A 
ATOM      8  C   UNL     1       7.104   6.405  17.288  0.00  0.00    +0.000 A 
ATOM      9  C   UNL     1       5.971   5.987  16.632  0.00  0.00    +0.000 A 
ATOM     10  N   UNL     1       5.472   4.938  17.371  0.00  0.00    +0.000 N 
ATOM     11  N   UNL     1       6.192   4.708  18.501  0.00  0.00    +0.000 NA
BRANCH   9  12
ATOM     12  N   UNL     1       5.412   6.477  15.511  0.00  0.00    +0.000 N 
ATOM     13  H   UNL     1       5.071   7.430  15.446  0.00  0.00    +0.000 HD
ATOM     14  H   UNL     1       5.353   5.957  14.628  0.00  0.00    +0.000 HD
ENDBRANCH   9  12
ENDBRANCH   5  10
ENDBRANCH   1   5
BRANCH   3  15
ATOM     15  C   UNL     1       2.365   6.027  19.899  0.00  0.00    +0.000 C 
BRANCH  15  16
ATOM     16  C   UNL     1       2.043   7.461  19.547  0.00  0.00    +0.000 A 
ATOM     17  C   UNL     1       2.338   7.904  18.272  0.00  0.00    +0.000 A 
ATOM     18  S   UNL     1       1.812   9.481  17.946  0.00  0.00    +0.000 S 
ATOM     19  C   UNL     1       1.156   9.627  19.509  0.00  0.00    +0.000 A 
ATOM     20  C   UNL     1       1.347   8.505  20.299  0.00  0.00    +0.000 A 
ATOM     21  C   UNL     1       0.836   8.462  21.707  0.00  0.00    +0.000 C 
ATOM     22  C   UNL     1       0.116   9.729  22.209  0.00  0.00    +0.000 C 
ATOM     23  C   UNL     1      -0.066  10.943  21.289  0.00  0.00    +0.000 C 
ATOM     24  C   UNL     1       0.447  10.884  19.861  0.00  0.00    +0.000 C 
ENDBRANCH  15  16
ENDBRANCH   3  15
TORSDOF 5
ENDMDL
MODEL 9
REMARK VINA RESULT:      -7.1      3.153      5.390
REMARK  Name = 
REMARK  6 active torsions:
REMARK  status: ('A' for Active; 'I' for Inactive)
REMARK    1  A    between atoms: C_1  and  C_2
REMARK    2  A    between atoms: C_4  and  N_5
REMARK    3  A    between atoms: N_6  and  C_7
REMARK    4  A    between atoms: C_7  and  C_8
REMARK    5  A    between atoms: N_10  and  C_11
REMARK    6  A    between atoms: C_11  and  C_12
REMARK                            x       y       z     vdW  Elec       q    Type
REMARK                         _______ _______ _______ _____ _____    ______ ____
ROOT
ATOM      1  C   UNL     1       3.963   4.221  19.181  0.00  0.00    +0.000 C 
ATOM      2  O   UNL     1       3.115   3.708  18.443  0.00  0.00    +0.000 OA
ATOM      3  N   UNL     1       3.632   5.150  20.156  0.00  0.00    +0.000 N 
ATOM      4  H   UNL     1       4.362   5.755  20.512  0.00  0.00    +0.000 HD
ENDROOT
BRANCH   1   5
ATOM      5  C   UNL     1       5.430   3.895  19.042  0.00  0.00    +0.000 C 
BRANCH   5  10
ATOM      6  C   UNL     1       7.656   7.905  17.560  0.00  0.00    +0.000 C 
ATOM      7  C   UNL     1       7.107   6.531  17.476  0.00  0.00    +0.000 A 
ATOM      8  C   UNL     1       7.040   5.697  16.341  0.00  0.00    +0.000 A 
ATOM      9  C   UNL     1       6.380   4.565  16.757  0.00  0.00    +0.000 A 
ATOM     10  N   UNL     1       6.154   4.734  18.104  0.00  0.00    +0.000 N 
ATOM     11  N   UNL     1       6.576   5.945  18.555  0.00  0.00    +0.000 NA
BRANCH   9  12
ATOM     12  N   UNL     1       5.995   3.496  16.037  0.00  0.00    +0.000 N 
ATOM     13  H   UNL     1       5.947   3.512  15.025  0.00  0.00    +0.000 HD
ATOM     14  H   UNL     1       5.794   2.576  16.444  0.00  0.00    +0.000 HD
ENDBRANCH   9  12
ENDBRANCH   5  10
ENDBRANCH   1   5
BRANCH   3  15
ATOM     15  C   UNL     1       2.290   5.669  20.197  0.00  0.00    +0.000 C 
BRANCH  15  16
ATOM     16  C   UNL     1       2.132   7.070  19.654  0.00  0.00    +0.000 A 
ATOM     17  C   UNL     1       2.531   7.316  18.355  0.00  0.00    +0.000 A 
ATOM     18  S   UNL     1       2.183   8.882  17.807  0.00  0.00    +0.000 S 
ATOM     19  C   UNL     1       1.470   9.287  19.297  0.00  0.00    +0.000 A 
ATOM     20  C   UNL     1       1.509   8.263  20.229  0.00  0.00    +0.000 A 
ATOM     21  C   UNL     1       0.929   8.448  21.598  0.00  0.00    +0.000 C 
ATOM     22  C   UNL     1       0.317   9.831  21.897  0.00  0.00    +0.000 C 
ATOM     23  C   UNL     1       0.303  10.929  20.826  0.00  0.00    +0.000 C 
ATOM     24  C   UNL     1       0.876  10.640  19.449  0.00  0.00    +0.000 C 
ENDBRANCH  15  16
ENDBRANCH   3  15
TORSDOF 5
ENDMDL
