MODEL 1
REMARK VINA RESULT:      -5.4      0.000      0.000
REMARK  Name = 
REMARK  19 active torsions:
REMARK  status: ('A' for Active; 'I' for Inactive)
REMARK    1  A    between atoms: C_1  and  C_2
REMARK    2  A    between atoms: C_2  and  C_3
REMARK    3  A    between atoms: C_3  and  C_4
REMARK    4  A    between atoms: C_4  and  C_5
REMARK    5  A    between atoms: C_5  and  C_6
REMARK    6  A    between atoms: C_6  and  C_7
REMARK    7  A    between atoms: C_7  and  C_8
REMARK    8  A    between atoms: C_8  and  C_9
REMARK    9  A    between atoms: C_9  and  C_10
REMARK   10  A    between atoms: C_10  and  C_11
REMARK   11  A    between atoms: C_11  and  C_12
REMARK   12  A    between atoms: C_12  and  C_13
REMARK   13  A    between atoms: C_13  and  C_14
REMARK   14  A    between atoms: C_14  and  C_15
REMARK   15  A    between atoms: C_15  and  C_16
REMARK   16  A    between atoms: C_16  and  O_17
REMARK   17  A    between atoms: O_17  and  C_18
REMARK   18  A    between atoms: C_18  and  C_20
REMARK   19  A    between atoms: C_20  and  C_21
REMARK                            x       y       z     vdW  Elec       q    Type
REMARK                         _______ _______ _______ _____ _____    ______ ____
ROOT
ATOM      1  C   UNL     1       6.190   5.396  19.051  0.00  0.00    +0.000 C 
ENDROOT
BRANCH   1   2
ATOM      2  C   UNL     1       6.945   4.833  17.863  0.00  0.00    +0.000 C 
BRANCH   2   3
ATOM      3  C   UNL     1       7.079   5.883  16.767  0.00  0.00    +0.000 C 
BRANCH   3   4
ATOM      4  C   UNL     1       6.146   5.577  15.601  0.00  0.00    +0.000 C 
BRANCH   4   5
ATOM      5  C   UNL     1       6.891   4.865  14.478  0.00  0.00    +0.000 C 
BRANCH   5   6
ATOM      6  C   UNL     1       6.088   3.701  13.922  0.00  0.00    +0.000 C 
BRANCH   6   7
ATOM      7  O   UNL     1       6.458   3.454  12.553  0.00  0.00    +0.000 OA
BRANCH   7   8
ATOM      8  C   UNL     1       5.516   2.722  11.872  0.00  0.00    +0.000 C 
ATOM      9  O   UNL     1       5.721   1.631  11.384  0.00  0.00    +0.000 OA
BRANCH   8  10
ATOM     10  C   UNL     1       4.189   3.448  11.816  0.00  0.00    +0.000 C 
ATOM     11  C   UNL     1       3.534   3.240  10.453  0.00  0.00    +0.000 C 
ENDBRANCH   8  10
ENDBRANCH   7   8
ENDBRANCH   6   7
ENDBRANCH   5   6
ENDBRANCH   4   5
ENDBRANCH   3   4
ENDBRANCH   2   3
ENDBRANCH   1   2
BRANCH   1  12
ATOM     12  C   UNL     1       4.884   4.647  19.239  0.00  0.00    +0.000 C 
BRANCH  12  13
ATOM     13  C   UNL     1       4.829   3.458  18.296  0.00  0.00    +0.000 C 
BRANCH  13  14
ATOM     14  C   UNL     1       3.734   3.663  17.266  0.00  0.00    +0.000 C 
BRANCH  14  15
ATOM     15  C   UNL     1       2.897   4.874  17.634  0.00  0.00    +0.000 C 
BRANCH  15  16
ATOM     16  C   UNL     1       1.423   4.547  17.487  0.00  0.00    +0.000 C 
BRANCH  16  17
ATOM     17  C   UNL     1       1.037   3.444  18.458  0.00  0.00    +0.000 C 
BRANCH  17  18
ATOM     18  C   UNL     1       0.963   3.999  19.871  0.00  0.00    +0.000 C 
BRANCH  18  19
ATOM     19  C   UNL     1       1.112   2.874  20.882  0.00  0.00    +0.000 C 
BRANCH  19  21
ATOM     20  C   UNL     1       3.410   2.005  21.316  0.00  0.00    +0.000 C 
ATOM     21  C   UNL     1       2.384   3.054  21.697  0.00  0.00    +0.000 C 
ENDBRANCH  19  21
ENDBRANCH  18  19
ENDBRANCH  17  18
ENDBRANCH  16  17
ENDBRANCH  15  16
ENDBRANCH  14  15
ENDBRANCH  13  14
ENDBRANCH  12  13
ENDBRANCH   1  12
TORSDOF 17
ENDMDL
MODEL 2
REMARK VINA RESULT:      -5.4      3.326      7.493
REMARK  Name = 
REMARK  19 active torsions:
REMARK  status: ('A' for Active; 'I' for Inactive)
REMARK    1  A    between atoms: C_1  and  C_2
REMARK    2  A    between atoms: C_2  and  C_3
REMARK    3  A    between atoms: C_3  and  C_4
REMARK    4  A    between atoms: C_4  and  C_5
REMARK    5  A    between atoms: C_5  and  C_6
REMARK    6  A    between atoms: C_6  and  C_7
REMARK    7  A    between atoms: C_7  and  C_8
REMARK    8  A    between atoms: C_8  and  C_9
REMARK    9  A    between atoms: C_9  and  C_10
REMARK   10  A    between atoms: C_10  and  C_11
REMARK   11  A    between atoms: C_11  and  C_12
REMARK   12  A    between atoms: C_12  and  C_13
REMARK   13  A    between atoms: C_13  and  C_14
REMARK   14  A    between atoms: C_14  and  C_15
REMARK   15  A    between atoms: C_15  and  C_16
REMARK   16  A    between atoms: C_16  and  O_17
REMARK   17  A    between atoms: O_17  and  C_18
REMARK   18  A    between atoms: C_18  and  C_20
REMARK   19  A    between atoms: C_20  and  C_21
REMARK                            x       y       z     vdW  Elec       q    Type
REMARK                         _______ _______ _______ _____ _____    ______ ____
ROOT
ATOM      1  C   UNL     1       3.253   5.470  17.971  0.00  0.00    +0.000 C 
ENDROOT
BRANCH   1   2
ATOM      2  C   UNL     1       4.213   4.530  18.672  0.00  0.00    +0.000 C 
BRANCH   2   3
ATOM      3  C   UNL     1       4.011   3.100  18.190  0.00  0.00    +0.000 C 
BRANCH   3   4
ATOM      4  C   UNL     1       2.680   2.951  17.462  0.00  0.00    +0.000 C 
BRANCH   4   5
ATOM      5  C   UNL     1       1.813   1.884  18.121  0.00  0.00    +0.000 C 
BRANCH   5   6
ATOM      6  C   UNL     1       0.815   2.493  19.091  0.00  0.00    +0.000 C 
BRANCH   6   7
ATOM      7  O   UNL     1       1.215   2.225  20.447  0.00  0.00    +0.000 OA
BRANCH   7   8
ATOM      8  C   UNL     1       1.555   3.363  21.135  0.00  0.00    +0.000 C 
ATOM      9  O   UNL     1       2.282   3.383  22.107  0.00  0.00    +0.000 OA
BRANCH   8  10
ATOM     10  C   UNL     1       0.914   4.590  20.523  0.00  0.00    +0.000 C 
ATOM     11  C   UNL     1       1.629   5.851  21.001  0.00  0.00    +0.000 C 
ENDBRANCH   8  10
ENDBRANCH   7   8
ENDBRANCH   6   7
ENDBRANCH   5   6
ENDBRANCH   4   5
ENDBRANCH   3   4
ENDBRANCH   2   3
ENDBRANCH   1   2
BRANCH   1  12
ATOM     12  C   UNL     1       3.934   6.797  17.693  0.00  0.00    +0.000 C 
BRANCH  12  13
ATOM     13  C   UNL     1       4.942   6.635  16.570  0.00  0.00    +0.000 C 
BRANCH  13  14
ATOM     14  C   UNL     1       6.352   6.683  17.128  0.00  0.00    +0.000 C 
BRANCH  14  15
ATOM     15  C   UNL     1       7.266   5.798  16.302  0.00  0.00    +0.000 C 
BRANCH  15  16
ATOM     16  C   UNL     1       6.876   4.342  16.482  0.00  0.00    +0.000 C 
BRANCH  16  17
ATOM     17  C   UNL     1       6.196   3.828  15.225  0.00  0.00    +0.000 C 
BRANCH  17  18
ATOM     18  C   UNL     1       6.733   4.561  14.008  0.00  0.00    +0.000 C 
BRANCH  18  19
ATOM     19  C   UNL     1       6.425   3.772  12.745  0.00  0.00    +0.000 C 
BRANCH  19  21
ATOM     20  C   UNL     1       4.613   2.805  11.330  0.00  0.00    +0.000 C 
ATOM     21  C   UNL     1       4.922   3.689  12.522  0.00  0.00    +0.000 C 
ENDBRANCH  19  21
ENDBRANCH  18  19
ENDBRANCH  17  18
ENDBRANCH  16  17
ENDBRANCH  15  16
ENDBRANCH  14  15
ENDBRANCH  13  14
ENDBRANCH  12  13
ENDBRANCH   1  12
TORSDOF 17
ENDMDL
MODEL 3
REMARK VINA RESULT:      -5.3      2.707      6.889
REMARK  Name = 
REMARK  19 active torsions:
REMARK  status: ('A' for Active; 'I' for Inactive)
REMARK    1  A    between atoms: C_1  and  C_2
REMARK    2  A    between atoms: C_2  and  C_3
REMARK    3  A    between atoms: C_3  and  C_4
REMARK    4  A    between atoms: C_4  and  C_5
REMARK    5  A    between atoms: C_5  and  C_6
REMARK    6  A    between atoms: C_6  and  C_7
REMARK    7  A    between atoms: C_7  and  C_8
REMARK    8  A    between atoms: C_8  and  C_9
REMARK    9  A    between atoms: C_9  and  C_10
REMARK   10  A    between atoms: C_10  and  C_11
REMARK   11  A    between atoms: C_11  and  C_12
REMARK   12  A    between atoms: C_12  and  C_13
REMARK   13  A    between atoms: C_13  and  C_14
REMARK   14  A    between atoms: C_14  and  C_15
REMARK   15  A    between atoms: C_15  and  C_16
REMARK   16  A    between atoms: C_16  and  O_17
REMARK   17  A    between atoms: O_17  and  C_18
REMARK   18  A    between atoms: C_18  and  C_20
REMARK   19  A    between atoms: C_20  and  C_21
REMARK                            x       y       z     vdW  Elec       q    Type
REMARK                         _______ _______ _______ _____ _____    ______ ____
ROOT
ATOM      1  C   UNL     1       7.499   5.427  18.220  0.00  0.00    +0.000 C 
ENDROOT
BRANCH   1   2
ATOM      2  C   UNL     1       6.911   5.077  19.572  0.00  0.00    +0.000 C 
BRANCH   2   3
ATOM      3  C   UNL     1       5.397   4.939  19.479  0.00  0.00    +0.000 C 
BRANCH   3   4
ATOM      4  C   UNL     1       5.007   3.859  18.477  0.00  0.00    +0.000 C 
BRANCH   4   5
ATOM      5  C   UNL     1       3.678   4.190  17.806  0.00  0.00    +0.000 C 
BRANCH   5   6
ATOM      6  C   UNL     1       2.845   2.943  17.566  0.00  0.00    +0.000 C 
BRANCH   6   7
ATOM      7  O   UNL     1       2.431   2.375  18.823  0.00  0.00    +0.000 OA
BRANCH   7   8
ATOM      8  C   UNL     1       1.100   2.584  19.087  0.00  0.00    +0.000 C 
ATOM      9  O   UNL     1       0.193   2.013  18.517  0.00  0.00    +0.000 OA
BRANCH   8  10
ATOM     10  C   UNL     1       0.909   3.610  20.183  0.00  0.00    +0.000 C 
ATOM     11  C   UNL     1       1.854   3.320  21.345  0.00  0.00    +0.000 C 
ENDBRANCH   8  10
ENDBRANCH   7   8
ENDBRANCH   6   7
ENDBRANCH   5   6
ENDBRANCH   4   5
ENDBRANCH   3   4
ENDBRANCH   2   3
ENDBRANCH   1   2
BRANCH   1  12
ATOM     12  C   UNL     1       7.645   6.932  18.089  0.00  0.00    +0.000 C 
BRANCH  12  13
ATOM     13  C   UNL     1       7.076   7.393  16.759  0.00  0.00    +0.000 C 
BRANCH  13  14
ATOM     14  C   UNL     1       5.640   6.924  16.619  0.00  0.00    +0.000 C 
BRANCH  14  15
ATOM     15  C   UNL     1       5.428   6.305  15.251  0.00  0.00    +0.000 C 
BRANCH  15  16
ATOM     16  C   UNL     1       6.560   5.343  14.938  0.00  0.00    +0.000 C 
BRANCH  16  17
ATOM     17  C   UNL     1       6.036   3.918  14.910  0.00  0.00    +0.000 C 
BRANCH  17  18
ATOM     18  C   UNL     1       5.176   3.706  13.675  0.00  0.00    +0.000 C 
BRANCH  18  19
ATOM     19  C   UNL     1       6.051   3.344  12.486  0.00  0.00    +0.000 C 
BRANCH  19  21
ATOM     20  C   UNL     1       4.014   3.290  11.046  0.00  0.00    +0.000 C 
ATOM     21  C   UNL     1       5.260   2.535  11.468  0.00  0.00    +0.000 C 
ENDBRANCH  19  21
ENDBRANCH  18  19
ENDBRANCH  17  18
ENDBRANCH  16  17
ENDBRANCH  15  16
ENDBRANCH  14  15
ENDBRANCH  13  14
ENDBRANCH  12  13
ENDBRANCH   1  12
TORSDOF 17
ENDMDL
MODEL 4
REMARK VINA RESULT:      -5.3      2.394      4.379
REMARK  Name = 
REMARK  19 active torsions:
REMARK  status: ('A' for Active; 'I' for Inactive)
REMARK    1  A    between atoms: C_1  and  C_2
REMARK    2  A    between atoms: C_2  and  C_3
REMARK    3  A    between atoms: C_3  and  C_4
REMARK    4  A    between atoms: C_4  and  C_5
REMARK    5  A    between atoms: C_5  and  C_6
REMARK    6  A    between atoms: C_6  and  C_7
REMARK    7  A    between atoms: C_7  and  C_8
REMARK    8  A    between atoms: C_8  and  C_9
REMARK    9  A    between atoms: C_9  and  C_10
REMARK   10  A    between atoms: C_10  and  C_11
REMARK   11  A    between atoms: C_11  and  C_12
REMARK   12  A    between atoms: C_12  and  C_13
REMARK   13  A    between atoms: C_13  and  C_14
REMARK   14  A    between atoms: C_14  and  C_15
REMARK   15  A    between atoms: C_15  and  C_16
REMARK   16  A    between atoms: C_16  and  O_17
REMARK   17  A    between atoms: O_17  and  C_18
REMARK   18  A    between atoms: C_18  and  C_20
REMARK   19  A    between atoms: C_20  and  C_21
REMARK                            x       y       z     vdW  Elec       q    Type
REMARK                         _______ _______ _______ _____ _____    ______ ____
ROOT
ATOM      1  C   UNL     1       2.841   6.900  19.697  0.00  0.00    +0.000 C 
ENDROOT
BRANCH   1   2
ATOM      2  C   UNL     1       2.410   7.697  18.483  0.00  0.00    +0.000 C 
BRANCH   2   3
ATOM      3  C   UNL     1       3.324   7.409  17.299  0.00  0.00    +0.000 C 
BRANCH   3   4
ATOM      4  C   UNL     1       4.650   6.818  17.764  0.00  0.00    +0.000 C 
BRANCH   4   5
ATOM      5  C   UNL     1       5.827   7.569  17.151  0.00  0.00    +0.000 C 
BRANCH   5   6
ATOM      6  C   UNL     1       7.139   6.838  17.379  0.00  0.00    +0.000 C 
BRANCH   6   7
ATOM      7  O   UNL     1       7.641   6.322  16.132  0.00  0.00    +0.000 OA
BRANCH   7   8
ATOM      8  C   UNL     1       7.306   5.007  15.928  0.00  0.00    +0.000 C 
ATOM      9  O   UNL     1       7.308   4.159  16.797  0.00  0.00    +0.000 OA
BRANCH   8  10
ATOM     10  C   UNL     1       6.926   4.751  14.486  0.00  0.00    +0.000 C 
ATOM     11  C   UNL     1       5.459   4.341  14.393  0.00  0.00    +0.000 C 
ENDBRANCH   8  10
ENDBRANCH   7   8
ENDBRANCH   6   7
ENDBRANCH   5   6
ENDBRANCH   4   5
ENDBRANCH   3   4
ENDBRANCH   2   3
ENDBRANCH   1   2
BRANCH   1  12
ATOM     12  C   UNL     1       1.636   6.238  20.340  0.00  0.00    +0.000 C 
BRANCH  12  13
ATOM     13  C   UNL     1       2.061   4.956  21.034  0.00  0.00    +0.000 C 
BRANCH  13  14
ATOM     14  C   UNL     1       1.063   3.851  20.739  0.00  0.00    +0.000 C 
BRANCH  14  15
ATOM     15  C   UNL     1       1.655   2.505  21.111  0.00  0.00    +0.000 C 
BRANCH  15  16
ATOM     16  C   UNL     1       3.167   2.555  20.988  0.00  0.00    +0.000 C 
BRANCH  16  17
ATOM     17  C   UNL     1       3.590   2.110  19.599  0.00  0.00    +0.000 C 
BRANCH  17  18
ATOM     18  C   UNL     1       4.507   3.150  18.977  0.00  0.00    +0.000 C 
BRANCH  18  19
ATOM     19  C   UNL     1       3.904   3.670  17.682  0.00  0.00    +0.000 C 
BRANCH  19  21
ATOM     20  C   UNL     1       1.469   4.116  17.377  0.00  0.00    +0.000 C 
ATOM     21  C   UNL     1       2.539   3.044  17.440  0.00  0.00    +0.000 C 
ENDBRANCH  19  21
ENDBRANCH  18  19
ENDBRANCH  17  18
ENDBRANCH  16  17
ENDBRANCH  15  16
ENDBRANCH  14  15
ENDBRANCH  13  14
ENDBRANCH  12  13
ENDBRANCH   1  12
TORSDOF 17
ENDMDL
MODEL 5
REMARK VINA RESULT:      -5.3      1.311      1.854
REMARK  Name = 
REMARK  19 active torsions:
REMARK  status: ('A' for Active; 'I' for Inactive)
REMARK    1  A    between atoms: C_1  and  C_2
REMARK    2  A    between atoms: C_2  and  C_3
REMARK    3  A    between atoms: C_3  and  C_4
REMARK    4  A    between atoms: C_4  and  C_5
REMARK    5  A    between atoms: C_5  and  C_6
REMARK    6  A    between atoms: C_6  and  C_7
REMARK    7  A    between atoms: C_7  and  C_8
REMARK    8  A    between atoms: C_8  and  C_9
REMARK    9  A    between atoms: C_9  and  C_10
REMARK   10  A    between atoms: C_10  and  C_11
REMARK   11  A    between atoms: C_11  and  C_12
REMARK   12  A    between atoms: C_12  and  C_13
REMARK   13  A    between atoms: C_13  and  C_14
REMARK   14  A    between atoms: C_14  and  C_15
REMARK   15  A    between atoms: C_15  and  C_16
REMARK   16  A    between atoms: C_16  and  O_17
REMARK   17  A    between atoms: O_17  and  C_18
REMARK   18  A    between atoms: C_18  and  C_20
REMARK   19  A    between atoms: C_20  and  C_21
REMARK                            x       y       z     vdW  Elec       q    Type
REMARK                         _______ _______ _______ _____ _____    ______ ____
ROOT
ATOM      1  C   UNL     1       6.518   5.675  18.417  0.00  0.00    +0.000 C 
ENDROOT
BRANCH   1   2
ATOM      2  C   UNL     1       6.242   6.649  17.289  0.00  0.00    +0.000 C 
BRANCH   2   3
ATOM      3  C   UNL     1       6.795   6.116  15.973  0.00  0.00    +0.000 C 
BRANCH   3   4
ATOM      4  C   UNL     1       7.117   4.630  16.078  0.00  0.00    +0.000 C 
BRANCH   4   5
ATOM      5  C   UNL     1       6.122   3.798  15.275  0.00  0.00    +0.000 C 
BRANCH   5   6
ATOM      6  C   UNL     1       6.312   3.985  13.780  0.00  0.00    +0.000 C 
BRANCH   6   7
ATOM      7  O   UNL     1       5.041   3.913  13.107  0.00  0.00    +0.000 OA
BRANCH   7   8
ATOM      8  C   UNL     1       5.106   3.222  11.922  0.00  0.00    +0.000 C 
ATOM      9  O   UNL     1       4.173   3.087  11.158  0.00  0.00    +0.000 OA
BRANCH   8  10
ATOM     10  C   UNL     1       6.491   2.656  11.689  0.00  0.00    +0.000 C 
ATOM     11  C   UNL     1       6.393   1.217  11.190  0.00  0.00    +0.000 C 
ENDBRANCH   8  10
ENDBRANCH   7   8
ENDBRANCH   6   7
ENDBRANCH   5   6
ENDBRANCH   4   5
ENDBRANCH   3   4
ENDBRANCH   2   3
ENDBRANCH   1   2
BRANCH   1  12
ATOM     12  C   UNL     1       5.248   5.423  19.209  0.00  0.00    +0.000 C 
BRANCH  12  13
ATOM     13  C   UNL     1       4.058   5.357  18.269  0.00  0.00    +0.000 C 
BRANCH  13  14
ATOM     14  C   UNL     1       3.909   3.951  17.719  0.00  0.00    +0.000 C 
BRANCH  14  15
ATOM     15  C   UNL     1       2.459   3.686  17.360  0.00  0.00    +0.000 C 
BRANCH  15  16
ATOM     16  C   UNL     1       2.030   2.337  17.907  0.00  0.00    +0.000 C 
BRANCH  16  17
ATOM     17  C   UNL     1       2.395   2.234  19.378  0.00  0.00    +0.000 C 
BRANCH  17  18
ATOM     18  C   UNL     1       1.165   2.477  20.236  0.00  0.00    +0.000 C 
BRANCH  18  19
ATOM     19  C   UNL     1       1.578   2.975  21.611  0.00  0.00    +0.000 C 
BRANCH  19  21
ATOM     20  C   UNL     1       1.594   5.338  20.812  0.00  0.00    +0.000 C 
ATOM     21  C   UNL     1       2.401   4.250  21.492  0.00  0.00    +0.000 C 
ENDBRANCH  19  21
ENDBRANCH  18  19
ENDBRANCH  17  18
ENDBRANCH  16  17
ENDBRANCH  15  16
ENDBRANCH  14  15
ENDBRANCH  13  14
ENDBRANCH  12  13
ENDBRANCH   1  12
TORSDOF 17
ENDMDL
MODEL 6
REMARK VINA RESULT:      -5.2      3.462      7.620
REMARK  Name = 
REMARK  19 active torsions:
REMARK  status: ('A' for Active; 'I' for Inactive)
REMARK    1  A    between atoms: C_1  and  C_2
REMARK    2  A    between atoms: C_2  and  C_3
REMARK    3  A    between atoms: C_3  and  C_4
REMARK    4  A    between atoms: C_4  and  C_5
REMARK    5  A    between atoms: C_5  and  C_6
REMARK    6  A    between atoms: C_6  and  C_7
REMARK    7  A    between atoms: C_7  and  C_8
REMARK    8  A    between atoms: C_8  and  C_9
REMARK    9  A    between atoms: C_9  and  C_10
REMARK   10  A    between atoms: C_10  and  C_11
REMARK   11  A    between atoms: C_11  and  C_12
REMARK   12  A    between atoms: C_12  and  C_13
REMARK   13  A    between atoms: C_13  and  C_14
REMARK   14  A    between atoms: C_14  and  C_15
REMARK   15  A    between atoms: C_15  and  C_16
REMARK   16  A    between atoms: C_16  and  O_17
REMARK   17  A    between atoms: O_17  and  C_18
REMARK   18  A    between atoms: C_18  and  C_20
REMARK   19  A    between atoms: C_20  and  C_21
REMARK                            x       y       z     vdW  Elec       q    Type
REMARK                         _______ _______ _______ _____ _____    ______ ____
ROOT
ATOM      1  C   UNL     1       5.846   5.052  19.098  0.00  0.00    +0.000 C 
ENDROOT
BRANCH   1   2
ATOM      2  C   UNL     1       4.630   5.894  18.766  0.00  0.00    +0.000 C 
BRANCH   2   3
ATOM      3  C   UNL     1       3.491   5.016  18.264  0.00  0.00    +0.000 C 
BRANCH   3   4
ATOM      4  C   UNL     1       2.140   5.671  18.529  0.00  0.00    +0.000 C 
BRANCH   4   5
ATOM      5  C   UNL     1       2.061   6.203  19.956  0.00  0.00    +0.000 C 
BRANCH   5   6
ATOM      6  C   UNL     1       2.112   5.080  20.977  0.00  0.00    +0.000 C 
BRANCH   6   7
ATOM      7  O   UNL     1       1.044   4.145  20.738  0.00  0.00    +0.000 OA
BRANCH   7   8
ATOM      8  C   UNL     1       1.387   2.855  21.059  0.00  0.00    +0.000 C 
ATOM      9  O   UNL     1       1.392   2.411  22.189  0.00  0.00    +0.000 OA
BRANCH   8  10
ATOM     10  C   UNL     1       1.750   2.056  19.826  0.00  0.00    +0.000 C 
ATOM     11  C   UNL     1       0.768   2.357  18.697  0.00  0.00    +0.000 C 
ENDBRANCH   8  10
ENDBRANCH   7   8
ENDBRANCH   6   7
ENDBRANCH   5   6
ENDBRANCH   4   5
ENDBRANCH   3   4
ENDBRANCH   2   3
ENDBRANCH   1   2
BRANCH   1  12
ATOM     12  C   UNL     1       7.079   5.635  18.432  0.00  0.00    +0.000 C 
BRANCH  12  13
ATOM     13  C   UNL     1       6.805   5.879  16.960  0.00  0.00    +0.000 C 
BRANCH  13  14
ATOM     14  C   UNL     1       7.121   4.629  16.159  0.00  0.00    +0.000 C 
BRANCH  14  15
ATOM     15  C   UNL     1       5.834   3.950  15.730  0.00  0.00    +0.000 C 
BRANCH  15  16
ATOM     16  C   UNL     1       5.534   4.280  14.279  0.00  0.00    +0.000 C 
BRANCH  16  17
ATOM     17  C   UNL     1       6.810   4.695  13.568  0.00  0.00    +0.000 C 
BRANCH  17  18
ATOM     18  C   UNL     1       7.085   3.755  12.406  0.00  0.00    +0.000 C 
BRANCH  18  19
ATOM     19  C   UNL     1       5.777   3.338  11.752  0.00  0.00    +0.000 C 
BRANCH  19  21
ATOM     20  C   UNL     1       6.800   1.286  10.769  0.00  0.00    +0.000 C 
ATOM     21  C   UNL     1       5.691   1.822  11.653  0.00  0.00    +0.000 C 
ENDBRANCH  19  21
ENDBRANCH  18  19
ENDBRANCH  17  18
ENDBRANCH  16  17
ENDBRANCH  15  16
ENDBRANCH  14  15
ENDBRANCH  13  14
ENDBRANCH  12  13
ENDBRANCH   1  12
TORSDOF 17
ENDMDL
MODEL 7
REMARK VINA RESULT:      -5.2      5.174      7.238
REMARK  Name = 
REMARK  19 active torsions:
REMARK  status: ('A' for Active; 'I' for Inactive)
REMARK    1  A    between atoms: C_1  and  C_2
REMARK    2  A    between atoms: C_2  and  C_3
REMARK    3  A    between atoms: C_3  and  C_4
REMARK    4  A    between atoms: C_4  and  C_5
REMARK    5  A    between atoms: C_5  and  C_6
REMARK    6  A    between atoms: C_6  and  C_7
REMARK    7  A    between atoms: C_7  and  C_8
REMARK    8  A    between atoms: C_8  and  C_9
REMARK    9  A    between atoms: C_9  and  C_10
REMARK   10  A    between atoms: C_10  and  C_11
REMARK   11  A    between atoms: C_11  and  C_12
REMARK   12  A    between atoms: C_12  and  C_13
REMARK   13  A    between atoms: C_13  and  C_14
REMARK   14  A    between atoms: C_14  and  C_15
REMARK   15  A    between atoms: C_15  and  C_16
REMARK   16  A    between atoms: C_16  and  O_17
REMARK   17  A    between atoms: O_17  and  C_18
REMARK   18  A    between atoms: C_18  and  C_20
REMARK   19  A    between atoms: C_20  and  C_21
REMARK                            x       y       z     vdW  Elec       q    Type
REMARK                         _______ _______ _______ _____ _____    ______ ____
ROOT
ATOM      1  C   UNL     1       5.947   6.182  17.993  0.00  0.00    +0.000 C 
ENDROOT
BRANCH   1   2
ATOM      2  C   UNL     1       7.158   6.702  17.245  0.00  0.00    +0.000 C 
BRANCH   2   3
ATOM      3  C   UNL     1       8.044   7.528  18.169  0.00  0.00    +0.000 C 
BRANCH   3   4
ATOM      4  C   UNL     1       7.983   9.007  17.804  0.00  0.00    +0.000 C 
BRANCH   4   5
ATOM      5  C   UNL     1       8.854   9.836  18.742  0.00  0.00    +0.000 C 
BRANCH   5   6
ATOM      6  C   UNL     1       9.108  11.228  18.188  0.00  0.00    +0.000 C 
BRANCH   6   7
ATOM      7  O   UNL     1      10.379  11.267  17.512  0.00  0.00    +0.000 OA
BRANCH   7   8
ATOM      8  C   UNL     1      11.361  11.862  18.264  0.00  0.00    +0.000 C 
ATOM      9  O   UNL     1      12.080  11.269  19.041  0.00  0.00    +0.000 OA
BRANCH   8  10
ATOM     10  C   UNL     1      11.437  13.350  17.995  0.00  0.00    +0.000 C 
ATOM     11  C   UNL     1      11.543  13.608  16.495  0.00  0.00    +0.000 C 
ENDBRANCH   8  10
ENDBRANCH   7   8
ENDBRANCH   6   7
ENDBRANCH   5   6
ENDBRANCH   4   5
ENDBRANCH   3   4
ENDBRANCH   2   3
ENDBRANCH   1   2
BRANCH   1  12
ATOM     12  C   UNL     1       4.713   6.277  17.114  0.00  0.00    +0.000 C 
BRANCH  12  13
ATOM     13  C   UNL     1       3.780   7.349  17.647  0.00  0.00    +0.000 C 
BRANCH  13  14
ATOM     14  C   UNL     1       2.487   6.718  18.131  0.00  0.00    +0.000 C 
BRANCH  14  15
ATOM     15  C   UNL     1       2.454   6.704  19.648  0.00  0.00    +0.000 C 
BRANCH  15  16
ATOM     16  C   UNL     1       2.718   5.299  20.157  0.00  0.00    +0.000 C 
BRANCH  16  17
ATOM     17  C   UNL     1       1.404   4.564  20.355  0.00  0.00    +0.000 C 
BRANCH  17  18
ATOM     18  C   UNL     1       1.510   3.152  19.804  0.00  0.00    +0.000 C 
BRANCH  18  19
ATOM     19  C   UNL     1       1.301   3.163  18.298  0.00  0.00    +0.000 C 
BRANCH  19  21
ATOM     20  C   UNL     1       3.506   2.038  18.597  0.00  0.00    +0.000 C 
ATOM     21  C   UNL     1       2.501   2.555  17.588  0.00  0.00    +0.000 C 
ENDBRANCH  19  21
ENDBRANCH  18  19
ENDBRANCH  17  18
ENDBRANCH  16  17
ENDBRANCH  15  16
ENDBRANCH  14  15
ENDBRANCH  13  14
ENDBRANCH  12  13
ENDBRANCH   1  12
TORSDOF 17
ENDMDL
MODEL 8
REMARK VINA RESULT:      -5.1      3.619      7.779
REMARK  Name = 
REMARK  19 active torsions:
REMARK  status: ('A' for Active; 'I' for Inactive)
REMARK    1  A    between atoms: C_1  and  C_2
REMARK    2  A    between atoms: C_2  and  C_3
REMARK    3  A    between atoms: C_3  and  C_4
REMARK    4  A    between atoms: C_4  and  C_5
REMARK    5  A    between atoms: C_5  and  C_6
REMARK    6  A    between atoms: C_6  and  C_7
REMARK    7  A    between atoms: C_7  and  C_8
REMARK    8  A    between atoms: C_8  and  C_9
REMARK    9  A    between atoms: C_9  and  C_10
REMARK   10  A    between atoms: C_10  and  C_11
REMARK   11  A    between atoms: C_11  and  C_12
REMARK   12  A    between atoms: C_12  and  C_13
REMARK   13  A    between atoms: C_13  and  C_14
REMARK   14  A    between atoms: C_14  and  C_15
REMARK   15  A    between atoms: C_15  and  C_16
REMARK   16  A    between atoms: C_16  and  O_17
REMARK   17  A    between atoms: O_17  and  C_18
REMARK   18  A    between atoms: C_18  and  C_20
REMARK   19  A    between atoms: C_20  and  C_21
REMARK                            x       y       z     vdW  Elec       q    Type
REMARK                         _______ _______ _______ _____ _____    ______ ____
ROOT
ATOM      1  C   UNL     1       4.111   2.789  18.633  0.00  0.00    +0.000 C 
ENDROOT
BRANCH   1   2
ATOM      2  C   UNL     1       2.706   2.249  18.463  0.00  0.00    +0.000 C 
BRANCH   2   3
ATOM      3  C   UNL     1       1.687   3.381  18.504  0.00  0.00    +0.000 C 
BRANCH   3   4
ATOM      4  C   UNL     1       0.757   3.236  19.703  0.00  0.00    +0.000 C 
BRANCH   4   5
ATOM      5  C   UNL     1       1.402   3.801  20.965  0.00  0.00    +0.000 C 
BRANCH   5   6
ATOM      6  C   UNL     1       2.180   5.073  20.676  0.00  0.00    +0.000 C 
BRANCH   6   7
ATOM      7  O   UNL     1       1.364   6.226  20.954  0.00  0.00    +0.000 OA
BRANCH   7   8
ATOM      8  C   UNL     1       1.777   7.345  20.274  0.00  0.00    +0.000 C 
ATOM      9  O   UNL     1       1.466   8.479  20.572  0.00  0.00    +0.000 OA
BRANCH   8  10
ATOM     10  C   UNL     1       2.674   6.983  19.109  0.00  0.00    +0.000 C 
ATOM     11  C   UNL     1       2.389   7.900  17.922  0.00  0.00    +0.000 C 
ENDBRANCH   8  10
ENDBRANCH   7   8
ENDBRANCH   6   7
ENDBRANCH   5   6
ENDBRANCH   4   5
ENDBRANCH   3   4
ENDBRANCH   2   3
ENDBRANCH   1   2
BRANCH   1  12
ATOM     12  C   UNL     1       4.328   3.974  17.710  0.00  0.00    +0.000 C 
BRANCH  12  13
ATOM     13  C   UNL     1       5.645   4.652  18.041  0.00  0.00    +0.000 C 
BRANCH  13  14
ATOM     14  C   UNL     1       5.655   6.064  17.486  0.00  0.00    +0.000 C 
BRANCH  14  15
ATOM     15  C   UNL     1       5.215   6.053  16.034  0.00  0.00    +0.000 C 
BRANCH  15  16
ATOM     16  C   UNL     1       6.170   5.207  15.212  0.00  0.00    +0.000 C 
BRANCH  16  17
ATOM     17  C   UNL     1       5.414   4.508  14.096  0.00  0.00    +0.000 C 
BRANCH  17  18
ATOM     18  C   UNL     1       6.346   3.573  13.343  0.00  0.00    +0.000 C 
BRANCH  18  19
ATOM     19  C   UNL     1       5.903   3.449  11.895  0.00  0.00    +0.000 C 
BRANCH  19  21
ATOM     20  C   UNL     1       6.873   1.356  10.946  0.00  0.00    +0.000 C 
ATOM     21  C   UNL     1       5.633   1.993  11.542  0.00  0.00    +0.000 C 
ENDBRANCH  19  21
ENDBRANCH  18  19
ENDBRANCH  17  18
ENDBRANCH  16  17
ENDBRANCH  15  16
ENDBRANCH  14  15
ENDBRANCH  13  14
ENDBRANCH  12  13
ENDBRANCH   1  12
TORSDOF 17
ENDMDL
MODEL 9
REMARK VINA RESULT:      -5.1      4.201      8.109
REMARK  Name = 
REMARK  19 active torsions:
REMARK  status: ('A' for Active; 'I' for Inactive)
REMARK    1  A    between atoms: C_1  and  C_2
REMARK    2  A    between atoms: C_2  and  C_3
REMARK    3  A    between atoms: C_3  and  C_4
REMARK    4  A    between atoms: C_4  and  C_5
REMARK    5  A    between atoms: C_5  and  C_6
REMARK    6  A    between atoms: C_6  and  C_7
REMARK    7  A    between atoms: C_7  and  C_8
REMARK    8  A    between atoms: C_8  and  C_9
REMARK    9  A    between atoms: C_9  and  C_10
REMARK   10  A    between atoms: C_10  and  C_11
REMARK   11  A    between atoms: C_11  and  C_12
REMARK   12  A    between atoms: C_12  and  C_13
REMARK   13  A    between atoms: C_13  and  C_14
REMARK   14  A    between atoms: C_14  and  C_15
REMARK   15  A    between atoms: C_15  and  C_16
REMARK   16  A    between atoms: C_16  and  O_17
REMARK   17  A    between atoms: O_17  and  C_18
REMARK   18  A    between atoms: C_18  and  C_20
REMARK   19  A    between atoms: C_20  and  C_21
REMARK                            x       y       z     vdW  Elec       q    Type
REMARK                         _______ _______ _______ _____ _____    ______ ____
ROOT
ATOM      1  C   UNL     1       4.053   7.379  17.516  0.00  0.00    +0.000 C 
ENDROOT
BRANCH   1   2
ATOM      2  C   UNL     1       2.672   6.875  17.880  0.00  0.00    +0.000 C 
BRANCH   2   3
ATOM      3  C   UNL     1       2.764   5.548  18.624  0.00  0.00    +0.000 C 
BRANCH   3   4
ATOM      4  C   UNL     1       1.810   4.520  18.029  0.00  0.00    +0.000 C 
BRANCH   4   5
ATOM      5  C   UNL     1       2.563   3.507  17.173  0.00  0.00    +0.000 C 
BRANCH   5   6
ATOM      6  C   UNL     1       2.639   2.148  17.849  0.00  0.00    +0.000 C 
BRANCH   6   7
ATOM      7  O   UNL     1       2.205   2.252  19.217  0.00  0.00    +0.000 OA
BRANCH   7   8
ATOM      8  C   UNL     1       3.252   2.357  20.099  0.00  0.00    +0.000 C 
ATOM      9  O   UNL     1       4.404   2.085  19.828  0.00  0.00    +0.000 OA
BRANCH   8  10
ATOM     10  C   UNL     1       2.788   2.861  21.449  0.00  0.00    +0.000 C 
ATOM     11  C   UNL     1       1.277   2.696  21.581  0.00  0.00    +0.000 C 
ENDBRANCH   8  10
ENDBRANCH   7   8
ENDBRANCH   6   7
ENDBRANCH   5   6
ENDBRANCH   4   5
ENDBRANCH   3   4
ENDBRANCH   2   3
ENDBRANCH   1   2
BRANCH   1  12
ATOM     12  C   UNL     1       4.883   6.249  16.933  0.00  0.00    +0.000 C 
BRANCH  12  13
ATOM     13  C   UNL     1       6.259   6.763  16.552  0.00  0.00    +0.000 C 
BRANCH  13  14
ATOM     14  C   UNL     1       7.321   6.062  17.379  0.00  0.00    +0.000 C 
BRANCH  14  15
ATOM     15  C   UNL     1       7.898   7.022  18.402  0.00  0.00    +0.000 C 
BRANCH  15  16
ATOM     16  C   UNL     1       8.000   8.413  17.805  0.00  0.00    +0.000 C 
BRANCH  16  17
ATOM     17  C   UNL     1       8.778   9.323  18.740  0.00  0.00    +0.000 C 
BRANCH  17  18
ATOM     18  C   UNL     1       9.181  10.594  18.012  0.00  0.00    +0.000 C 
BRANCH  18  19
ATOM     19  C   UNL     1       9.435  11.710  19.012  0.00  0.00    +0.000 C 
BRANCH  19  21
ATOM     20  C   UNL     1      11.928  11.769  18.969  0.00  0.00    +0.000 C 
ATOM     21  C   UNL     1      10.706  11.439  19.803  0.00  0.00    +0.000 C 
ENDBRANCH  19  21
ENDBRANCH  18  19
ENDBRANCH  17  18
ENDBRANCH  16  17
ENDBRANCH  15  16
ENDBRANCH  14  15
ENDBRANCH  13  14
ENDBRANCH  12  13
ENDBRANCH   1  12
TORSDOF 17
ENDMDL
