MODEL 1
REMARK VINA RESULT:      -8.1      0.000      0.000
REMARK  Name = 
REMARK  8 active torsions:
REMARK  status: ('A' for Active; 'I' for Inactive)
REMARK    1  A    between atoms: C_1  and  C_2
REMARK    2  A    between atoms: C_5  and  C_6
REMARK    3  A    between atoms: C_9  and  O_10
REMARK    4  A    between atoms: C_18  and  S_19
REMARK    5  A    between atoms: S_19  and  N_22
REMARK    6  A    between atoms: N_22  and  C_23
REMARK    7  A    between atoms: C_23  and  C_24
REMARK    8  A    between atoms: C_24  and  N_25
REMARK                            x       y       z     vdW  Elec       q    Type
REMARK                         _______ _______ _______ _____ _____    ______ ____
ROOT
ATOM      1  C   UNL     1       0.136  11.362  18.665  0.00  0.00    +0.000 C 
ATOM      2  C   UNL     1       0.800  10.027  18.841  0.00  0.00    +0.000 A 
ATOM      3  C   UNL     1       1.031   9.272  17.683  0.00  0.00    +0.000 A 
ATOM      4  C   UNL     1       1.674   8.035  17.744  0.00  0.00    +0.000 A 
ATOM      5  C   UNL     1       2.202   7.533  18.941  0.00  0.00    +0.000 A 
ATOM      6  C   UNL     1       1.907   8.257  20.113  0.00  0.00    +0.000 A 
ATOM      7  C   UNL     1       1.192   9.474  20.075  0.00  0.00    +0.000 A 
ENDROOT
BRANCH   5   8
ATOM      8  C   UNL     1       3.005   6.283  18.981  0.00  0.00    +0.000 A 
ATOM      9  N   UNL     1       4.220   6.396  18.374  0.00  0.00    +0.000 NA
ATOM     10  N   UNL     1       5.099   5.358  18.382  0.00  0.00    +0.000 NA
ATOM     11  C   UNL     1       4.766   4.232  19.033  0.00  0.00    +0.000 A 
ATOM     12  C   UNL     1       3.553   4.031  19.682  0.00  0.00    +0.000 A 
ATOM     13  C   UNL     1       3.259   2.839  20.385  0.00  0.00    +0.000 A 
ATOM     14  C   UNL     1       2.030   2.663  21.022  0.00  0.00    +0.000 A 
ATOM     15  C   UNL     1       1.060   3.646  20.916  0.00  0.00    +0.000 A 
ATOM     16  C   UNL     1       1.333   4.813  20.200  0.00  0.00    +0.000 A 
ATOM     17  C   UNL     1       2.607   5.072  19.619  0.00  0.00    +0.000 A 
BRANCH  11  18
ATOM     18  O   UNL     1       5.726   3.264  19.001  0.00  0.00    +0.000 OA
ATOM     19  H   UNL     1       5.287   2.577  18.468  0.00  0.00    +0.000 HD
ENDBRANCH  11  18
ENDBRANCH   5   8
BRANCH   7  20
ATOM     20  S   UNL     1       0.871  10.279  21.649  0.00  0.00    +0.000 S 
ATOM     21  O   UNL     1       1.346   9.416  22.703  0.00  0.00    +0.000 OA
ATOM     22  O   UNL     1       1.298  11.653  21.557  0.00  0.00    +0.000 OA
BRANCH  20  23
ATOM     23  N   UNL     1      -0.824  10.304  21.691  0.00  0.00    +0.000 NA
ATOM     24  H   UNL     1      -1.189   9.600  22.335  0.00  0.00    +0.000 HD
BRANCH  23  25
ATOM     25  C   UNL     1      -1.467  11.627  21.864  0.00  0.00    +0.000 C 
BRANCH  25  26
ATOM     26  C   UNL     1      -2.220  11.711  23.209  0.00  0.00    +0.000 C 
BRANCH  26  27
ATOM     27  N   UNL     1      -3.602  12.197  23.267  0.00  0.00    +0.000 NA
ATOM     28  C   UNL     1      -4.189  12.723  22.031  0.00  0.00    +0.000 C 
ATOM     29  C   UNL     1      -4.230  14.258  21.902  0.00  0.00    +0.000 C 
ATOM     30  O   UNL     1      -4.778  14.867  23.077  0.00  0.00    +0.000 OA
ATOM     31  C   UNL     1      -3.971  14.528  24.209  0.00  0.00    +0.000 C 
ATOM     32  C   UNL     1      -3.957  13.012  24.441  0.00  0.00    +0.000 C 
ENDBRANCH  26  27
ENDBRANCH  25  26
ENDBRANCH  23  25
ENDBRANCH  20  23
ENDBRANCH   7  20
TORSDOF 7
ENDMDL
MODEL 2
REMARK VINA RESULT:      -8.1      4.659      9.047
REMARK  Name = 
REMARK  8 active torsions:
REMARK  status: ('A' for Active; 'I' for Inactive)
REMARK    1  A    between atoms: C_1  and  C_2
REMARK    2  A    between atoms: C_5  and  C_6
REMARK    3  A    between atoms: C_9  and  O_10
REMARK    4  A    between atoms: C_18  and  S_19
REMARK    5  A    between atoms: S_19  and  N_22
REMARK    6  A    between atoms: N_22  and  C_23
REMARK    7  A    between atoms: C_23  and  C_24
REMARK    8  A    between atoms: C_24  and  N_25
REMARK                            x       y       z     vdW  Elec       q    Type
REMARK                         _______ _______ _______ _____ _____    ______ ____
ROOT
ATOM      1  C   UNL     1       5.046   3.346  17.601  0.00  0.00    +0.000 C 
ATOM      2  C   UNL     1       4.386   4.691  17.704  0.00  0.00    +0.000 A 
ATOM      3  C   UNL     1       3.008   4.708  17.958  0.00  0.00    +0.000 A 
ATOM      4  C   UNL     1       2.315   5.909  18.104  0.00  0.00    +0.000 A 
ATOM      5  C   UNL     1       2.971   7.148  18.100  0.00  0.00    +0.000 A 
ATOM      6  C   UNL     1       4.342   7.134  17.773  0.00  0.00    +0.000 A 
ATOM      7  C   UNL     1       5.041   5.928  17.548  0.00  0.00    +0.000 A 
ENDROOT
BRANCH   5   8
ATOM      8  C   UNL     1       2.254   8.417  18.392  0.00  0.00    +0.000 A 
ATOM      9  N   UNL     1       2.312   9.322  17.376  0.00  0.00    +0.000 NA
ATOM     10  N   UNL     1       1.651  10.508  17.464  0.00  0.00    +0.000 NA
ATOM     11  C   UNL     1       0.906  10.755  18.554  0.00  0.00    +0.000 A 
ATOM     12  C   UNL     1       0.786   9.888  19.635  0.00  0.00    +0.000 A 
ATOM     13  C   UNL     1      -0.038  10.175  20.748  0.00  0.00    +0.000 A 
ATOM     14  C   UNL     1      -0.134   9.290  21.821  0.00  0.00    +0.000 A 
ATOM     15  C   UNL     1       0.634   8.137  21.825  0.00  0.00    +0.000 A 
ATOM     16  C   UNL     1       1.471   7.860  20.742  0.00  0.00    +0.000 A 
ATOM     17  C   UNL     1       1.524   8.689  19.586  0.00  0.00    +0.000 A 
BRANCH  11  18
ATOM     18  O   UNL     1       0.266  11.959  18.531  0.00  0.00    +0.000 OA
ATOM     19  H   UNL     1      -0.603  11.719  18.900  0.00  0.00    +0.000 HD
ENDBRANCH  11  18
ENDBRANCH   5   8
BRANCH   7  20
ATOM     20  S   UNL     1       6.780   6.063  17.122  0.00  0.00    +0.000 S 
ATOM     21  O   UNL     1       7.556   5.503  18.202  0.00  0.00    +0.000 OA
ATOM     22  O   UNL     1       6.956   5.615  15.763  0.00  0.00    +0.000 OA
BRANCH  20  23
ATOM     23  N   UNL     1       7.008   7.743  17.106  0.00  0.00    +0.000 NA
ATOM     24  H   UNL     1       6.122   8.239  17.225  0.00  0.00    +0.000 HD
BRANCH  23  25
ATOM     25  C   UNL     1       8.085   8.279  17.970  0.00  0.00    +0.000 C 
BRANCH  25  26
ATOM     26  C   UNL     1       8.200   9.813  17.833  0.00  0.00    +0.000 C 
BRANCH  26  27
ATOM     27  N   UNL     1       9.350  10.532  18.390  0.00  0.00    +0.000 NA
ATOM     28  C   UNL     1       9.623  10.371  19.821  0.00  0.00    +0.000 C 
ATOM     29  C   UNL     1       9.154  11.522  20.732  0.00  0.00    +0.000 C 
ATOM     30  O   UNL     1       9.577  12.793  20.228  0.00  0.00    +0.000 OA
ATOM     31  C   UNL     1       9.027  12.995  18.922  0.00  0.00    +0.000 C 
ATOM     32  C   UNL     1       9.525  11.925  17.944  0.00  0.00    +0.000 C 
ENDBRANCH  26  27
ENDBRANCH  25  26
ENDBRANCH  23  25
ENDBRANCH  20  23
ENDBRANCH   7  20
TORSDOF 7
ENDMDL
MODEL 3
REMARK VINA RESULT:      -7.9      3.904      9.251
REMARK  Name = 
REMARK  8 active torsions:
REMARK  status: ('A' for Active; 'I' for Inactive)
REMARK    1  A    between atoms: C_1  and  C_2
REMARK    2  A    between atoms: C_5  and  C_6
REMARK    3  A    between atoms: C_9  and  O_10
REMARK    4  A    between atoms: C_18  and  S_19
REMARK    5  A    between atoms: S_19  and  N_22
REMARK    6  A    between atoms: N_22  and  C_23
REMARK    7  A    between atoms: C_23  and  C_24
REMARK    8  A    between atoms: C_24  and  N_25
REMARK                            x       y       z     vdW  Elec       q    Type
REMARK                         _______ _______ _______ _____ _____    ______ ____
ROOT
ATOM      1  C   UNL     1       2.398   2.105  21.248  0.00  0.00    +0.000 C 
ATOM      2  C   UNL     1       2.326   3.492  20.677  0.00  0.00    +0.000 A 
ATOM      3  C   UNL     1       1.134   4.202  20.874  0.00  0.00    +0.000 A 
ATOM      4  C   UNL     1       0.987   5.509  20.410  0.00  0.00    +0.000 A 
ATOM      5  C   UNL     1       2.046   6.208  19.814  0.00  0.00    +0.000 A 
ATOM      6  C   UNL     1       3.219   5.471  19.553  0.00  0.00    +0.000 A 
ATOM      7  C   UNL     1       3.354   4.122  19.950  0.00  0.00    +0.000 A 
ENDROOT
BRANCH   5   8
ATOM      8  C   UNL     1       1.931   7.643  19.445  0.00  0.00    +0.000 A 
ATOM      9  N   UNL     1       2.386   7.922  18.192  0.00  0.00    +0.000 NA
ATOM     10  N   UNL     1       2.289   9.179  17.682  0.00  0.00    +0.000 NA
ATOM     11  C   UNL     1       1.702  10.134  18.421  0.00  0.00    +0.000 A 
ATOM     12  C   UNL     1       1.207   9.939  19.706  0.00  0.00    +0.000 A 
ATOM     13  C   UNL     1       0.564  10.967  20.435  0.00  0.00    +0.000 A 
ATOM     14  C   UNL     1       0.083  10.743  21.725  0.00  0.00    +0.000 A 
ATOM     15  C   UNL     1       0.289   9.512  22.325  0.00  0.00    +0.000 A 
ATOM     16  C   UNL     1       0.947   8.501  21.623  0.00  0.00    +0.000 A 
ATOM     17  C   UNL     1       1.366   8.658  20.271  0.00  0.00    +0.000 A 
BRANCH  11  18
ATOM     18  O   UNL     1       1.634  11.351  17.809  0.00  0.00    +0.000 OA
ATOM     19  H   UNL     1       1.620  11.092  16.870  0.00  0.00    +0.000 HD
ENDBRANCH  11  18
ENDBRANCH   5   8
BRANCH   7  20
ATOM     20  S   UNL     1       4.897   3.303  19.534  0.00  0.00    +0.000 S 
ATOM     21  O   UNL     1       5.948   4.291  19.528  0.00  0.00    +0.000 OA
ATOM     22  O   UNL     1       5.005   2.100  20.322  0.00  0.00    +0.000 OA
BRANCH  20  23
ATOM     23  N   UNL     1       4.611   2.807  17.938  0.00  0.00    +0.000 NA
ATOM     24  H   UNL     1       4.092   1.927  17.910  0.00  0.00    +0.000 HD
BRANCH  23  25
ATOM     25  C   UNL     1       4.063   3.824  17.011  0.00  0.00    +0.000 C 
BRANCH  25  26
ATOM     26  C   UNL     1       4.875   3.879  15.699  0.00  0.00    +0.000 C 
BRANCH  26  27
ATOM     27  N   UNL     1       5.771   5.004  15.417  0.00  0.00    +0.000 NA
ATOM     28  C   UNL     1       7.141   4.927  15.933  0.00  0.00    +0.000 C 
ATOM     29  C   UNL     1       7.426   5.729  17.218  0.00  0.00    +0.000 C 
ATOM     30  O   UNL     1       6.951   7.075  17.109  0.00  0.00    +0.000 OA
ATOM     31  C   UNL     1       5.538   7.066  16.884  0.00  0.00    +0.000 C 
ATOM     32  C   UNL     1       5.195   6.351  15.572  0.00  0.00    +0.000 C 
ENDBRANCH  26  27
ENDBRANCH  25  26
ENDBRANCH  23  25
ENDBRANCH  20  23
ENDBRANCH   7  20
TORSDOF 7
ENDMDL
MODEL 4
REMARK VINA RESULT:      -7.9      3.983      9.195
REMARK  Name = 
REMARK  8 active torsions:
REMARK  status: ('A' for Active; 'I' for Inactive)
REMARK    1  A    between atoms: C_1  and  C_2
REMARK    2  A    between atoms: C_5  and  C_6
REMARK    3  A    between atoms: C_9  and  O_10
REMARK    4  A    between atoms: C_18  and  S_19
REMARK    5  A    between atoms: S_19  and  N_22
REMARK    6  A    between atoms: N_22  and  C_23
REMARK    7  A    between atoms: C_23  and  C_24
REMARK    8  A    between atoms: C_24  and  N_25
REMARK                            x       y       z     vdW  Elec       q    Type
REMARK                         _______ _______ _______ _____ _____    ______ ____
ROOT
ATOM      1  C   UNL     1       2.755   2.113  20.907  0.00  0.00    +0.000 C 
ATOM      2  C   UNL     1       2.482   3.507  20.418  0.00  0.00    +0.000 A 
ATOM      3  C   UNL     1       2.118   4.460  21.379  0.00  0.00    +0.000 A 
ATOM      4  C   UNL     1       1.879   5.788  21.024  0.00  0.00    +0.000 A 
ATOM      5  C   UNL     1       2.081   6.253  19.717  0.00  0.00    +0.000 A 
ATOM      6  C   UNL     1       2.377   5.282  18.741  0.00  0.00    +0.000 A 
ATOM      7  C   UNL     1       2.548   3.920  19.074  0.00  0.00    +0.000 A 
ENDROOT
BRANCH   5   8
ATOM      8  C   UNL     1       1.959   7.694  19.370  0.00  0.00    +0.000 A 
ATOM      9  N   UNL     1       2.441   7.998  18.133  0.00  0.00    +0.000 NA
ATOM     10  N   UNL     1       2.343   9.263  17.641  0.00  0.00    +0.000 NA
ATOM     11  C   UNL     1       1.727  10.199  18.381  0.00  0.00    +0.000 A 
ATOM     12  C   UNL     1       1.203   9.977  19.650  0.00  0.00    +0.000 A 
ATOM     13  C   UNL     1       0.531  10.986  20.380  0.00  0.00    +0.000 A 
ATOM     14  C   UNL     1       0.021  10.735  21.653  0.00  0.00    +0.000 A 
ATOM     15  C   UNL     1       0.225   9.495  22.238  0.00  0.00    +0.000 A 
ATOM     16  C   UNL     1       0.912   8.504  21.536  0.00  0.00    +0.000 A 
ATOM     17  C   UNL     1       1.362   8.689  20.197  0.00  0.00    +0.000 A 
BRANCH  11  18
ATOM     18  O   UNL     1       1.661  11.425  17.788  0.00  0.00    +0.000 OA
ATOM     19  H   UNL     1       2.604  11.620  17.647  0.00  0.00    +0.000 HD
ENDBRANCH  11  18
ENDBRANCH   5   8
BRANCH   7  20
ATOM     20  S   UNL     1       2.903   2.790  17.723  0.00  0.00    +0.000 S 
ATOM     21  O   UNL     1       2.709   1.442  18.198  0.00  0.00    +0.000 OA
ATOM     22  O   UNL     1       2.237   3.270  16.537  0.00  0.00    +0.000 OA
BRANCH  20  23
ATOM     23  N   UNL     1       4.561   3.046  17.478  0.00  0.00    +0.000 NA
ATOM     24  H   UNL     1       5.086   2.174  17.556  0.00  0.00    +0.000 HD
BRANCH  23  25
ATOM     25  C   UNL     1       4.945   3.841  16.289  0.00  0.00    +0.000 C 
BRANCH  25  26
ATOM     26  C   UNL     1       6.167   4.737  16.586  0.00  0.00    +0.000 C 
BRANCH  26  27
ATOM     27  N   UNL     1       6.100   5.783  17.610  0.00  0.00    +0.000 NA
ATOM     28  C   UNL     1       6.356   7.164  17.188  0.00  0.00    +0.000 C 
ATOM     29  C   UNL     1       7.762   7.715  17.495  0.00  0.00    +0.000 C 
ATOM     30  O   UNL     1       8.131   7.476  18.858  0.00  0.00    +0.000 OA
ATOM     31  C   UNL     1       8.130   6.067  19.112  0.00  0.00    +0.000 C 
ATOM     32  C   UNL     1       6.732   5.472  18.903  0.00  0.00    +0.000 C 
ENDBRANCH  26  27
ENDBRANCH  25  26
ENDBRANCH  23  25
ENDBRANCH  20  23
ENDBRANCH   7  20
TORSDOF 7
ENDMDL
MODEL 5
REMARK VINA RESULT:      -7.9      0.934      1.433
REMARK  Name = 
REMARK  8 active torsions:
REMARK  status: ('A' for Active; 'I' for Inactive)
REMARK    1  A    between atoms: C_1  and  C_2
REMARK    2  A    between atoms: C_5  and  C_6
REMARK    3  A    between atoms: C_9  and  O_10
REMARK    4  A    between atoms: C_18  and  S_19
REMARK    5  A    between atoms: S_19  and  N_22
REMARK    6  A    between atoms: N_22  and  C_23
REMARK    7  A    between atoms: C_23  and  C_24
REMARK    8  A    between atoms: C_24  and  N_25
REMARK                            x       y       z     vdW  Elec       q    Type
REMARK                         _______ _______ _______ _____ _____    ______ ____
ROOT
ATOM      1  C   UNL     1       0.294  11.418  19.221  0.00  0.00    +0.000 C 
ATOM      2  C   UNL     1       0.915  10.051  19.244  0.00  0.00    +0.000 A 
ATOM      3  C   UNL     1       1.357   9.531  18.020  0.00  0.00    +0.000 A 
ATOM      4  C   UNL     1       1.978   8.284  17.948  0.00  0.00    +0.000 A 
ATOM      5  C   UNL     1       2.275   7.536  19.096  0.00  0.00    +0.000 A 
ATOM      6  C   UNL     1       1.767   8.026  20.316  0.00  0.00    +0.000 A 
ATOM      7  C   UNL     1       1.070   9.252  20.393  0.00  0.00    +0.000 A 
ENDROOT
BRANCH   5   8
ATOM      8  C   UNL     1       3.058   6.274  19.030  0.00  0.00    +0.000 A 
ATOM      9  N   UNL     1       4.276   6.419  18.437  0.00  0.00    +0.000 NA
ATOM     10  N   UNL     1       5.138   5.370  18.357  0.00  0.00    +0.000 NA
ATOM     11  C   UNL     1       4.785   4.198  18.909  0.00  0.00    +0.000 A 
ATOM     12  C   UNL     1       3.567   3.962  19.537  0.00  0.00    +0.000 A 
ATOM     13  C   UNL     1       3.251   2.719  20.136  0.00  0.00    +0.000 A 
ATOM     14  C   UNL     1       2.019   2.510  20.754  0.00  0.00    +0.000 A 
ATOM     15  C   UNL     1       1.065   3.514  20.731  0.00  0.00    +0.000 A 
ATOM     16  C   UNL     1       1.358   4.734  20.117  0.00  0.00    +0.000 A 
ATOM     17  C   UNL     1       2.638   5.020  19.562  0.00  0.00    +0.000 A 
BRANCH  11  18
ATOM     18  O   UNL     1       5.729   3.221  18.796  0.00  0.00    +0.000 OA
ATOM     19  H   UNL     1       6.354   3.630  18.171  0.00  0.00    +0.000 HD
ENDBRANCH  11  18
ENDBRANCH   5   8
BRANCH   7  20
ATOM     20  S   UNL     1       0.463   9.742  22.011  0.00  0.00    +0.000 S 
ATOM     21  O   UNL     1      -0.797   9.079  22.241  0.00  0.00    +0.000 OA
ATOM     22  O   UNL     1       1.547   9.642  22.957  0.00  0.00    +0.000 OA
BRANCH  20  23
ATOM     23  N   UNL     1       0.172  11.398  21.789  0.00  0.00    +0.000 NA
ATOM     24  H   UNL     1       0.040  11.622  20.801  0.00  0.00    +0.000 HD
BRANCH  23  25
ATOM     25  C   UNL     1      -0.855  12.017  22.659  0.00  0.00    +0.000 C 
BRANCH  25  26
ATOM     26  C   UNL     1      -1.479  13.260  21.989  0.00  0.00    +0.000 C 
BRANCH  26  27
ATOM     27  N   UNL     1      -2.710  13.858  22.515  0.00  0.00    +0.000 NA
ATOM     28  C   UNL     1      -3.044  13.601  23.919  0.00  0.00    +0.000 C 
ATOM     29  C   UNL     1      -4.109  12.516  24.172  0.00  0.00    +0.000 C 
ATOM     30  O   UNL     1      -5.268  12.722  23.357  0.00  0.00    +0.000 OA
ATOM     31  C   UNL     1      -4.894  12.676  21.976  0.00  0.00    +0.000 C 
ATOM     32  C   UNL     1      -3.893  13.789  21.641  0.00  0.00    +0.000 C 
ENDBRANCH  26  27
ENDBRANCH  25  26
ENDBRANCH  23  25
ENDBRANCH  20  23
ENDBRANCH   7  20
TORSDOF 7
ENDMDL
MODEL 6
REMARK VINA RESULT:      -7.8      3.862      9.285
REMARK  Name = 
REMARK  8 active torsions:
REMARK  status: ('A' for Active; 'I' for Inactive)
REMARK    1  A    between atoms: C_1  and  C_2
REMARK    2  A    between atoms: C_5  and  C_6
REMARK    3  A    between atoms: C_9  and  O_10
REMARK    4  A    between atoms: C_18  and  S_19
REMARK    5  A    between atoms: S_19  and  N_22
REMARK    6  A    between atoms: N_22  and  C_23
REMARK    7  A    between atoms: C_23  and  C_24
REMARK    8  A    between atoms: C_24  and  N_25
REMARK                            x       y       z     vdW  Elec       q    Type
REMARK                         _______ _______ _______ _____ _____    ______ ____
ROOT
ATOM      1  C   UNL     1       3.110   2.261  20.710  0.00  0.00    +0.000 C 
ATOM      2  C   UNL     1       2.724   3.648  20.280  0.00  0.00    +0.000 A 
ATOM      3  C   UNL     1       2.394   4.560  21.292  0.00  0.00    +0.000 A 
ATOM      4  C   UNL     1       2.056   5.880  20.992  0.00  0.00    +0.000 A 
ATOM      5  C   UNL     1       2.122   6.382  19.685  0.00  0.00    +0.000 A 
ATOM      6  C   UNL     1       2.384   5.449  18.663  0.00  0.00    +0.000 A 
ATOM      7  C   UNL     1       2.654   4.092  18.946  0.00  0.00    +0.000 A 
ENDROOT
BRANCH   5   8
ATOM      8  C   UNL     1       1.896   7.821  19.385  0.00  0.00    +0.000 A 
ATOM      9  N   UNL     1       2.332   8.195  18.150  0.00  0.00    +0.000 NA
ATOM     10  N   UNL     1       2.139   9.464  17.701  0.00  0.00    +0.000 NA
ATOM     11  C   UNL     1       1.476  10.333  18.480  0.00  0.00    +0.000 A 
ATOM     12  C   UNL     1       0.993  10.038  19.751  0.00  0.00    +0.000 A 
ATOM     13  C   UNL     1       0.269  10.976  20.523  0.00  0.00    +0.000 A 
ATOM     14  C   UNL     1      -0.198  10.652  21.797  0.00  0.00    +0.000 A 
ATOM     15  C   UNL     1       0.101   9.412  22.339  0.00  0.00    +0.000 A 
ATOM     16  C   UNL     1       0.839   8.492  21.594  0.00  0.00    +0.000 A 
ATOM     17  C   UNL     1       1.250   8.747  20.254  0.00  0.00    +0.000 A 
BRANCH  11  18
ATOM     18  O   UNL     1       1.315  11.570  17.928  0.00  0.00    +0.000 OA
ATOM     19  H   UNL     1       1.348  12.138  18.718  0.00  0.00    +0.000 HD
ENDBRANCH  11  18
ENDBRANCH   5   8
BRANCH   7  20
ATOM     20  S   UNL     1       2.951   3.011  17.542  0.00  0.00    +0.000 S 
ATOM     21  O   UNL     1       2.835   1.645  17.990  0.00  0.00    +0.000 OA
ATOM     22  O   UNL     1       2.190   3.498  16.419  0.00  0.00    +0.000 OA
BRANCH  20  23
ATOM     23  N   UNL     1       4.580   3.330  17.193  0.00  0.00    +0.000 NA
ATOM     24  H   UNL     1       5.160   2.504  17.344  0.00  0.00    +0.000 HD
BRANCH  23  25
ATOM     25  C   UNL     1       4.866   4.003  15.905  0.00  0.00    +0.000 C 
BRANCH  25  26
ATOM     26  C   UNL     1       4.977   5.533  16.086  0.00  0.00    +0.000 C 
BRANCH  26  27
ATOM     27  N   UNL     1       6.061   6.117  16.882  0.00  0.00    +0.000 NA
ATOM     28  C   UNL     1       7.401   5.543  16.731  0.00  0.00    +0.000 C 
ATOM     29  C   UNL     1       7.848   4.569  17.838  0.00  0.00    +0.000 C 
ATOM     30  O   UNL     1       7.627   5.121  19.140  0.00  0.00    +0.000 OA
ATOM     31  C   UNL     1       6.232   5.395  19.312  0.00  0.00    +0.000 C 
ATOM     32  C   UNL     1       5.744   6.425  18.287  0.00  0.00    +0.000 C 
ENDBRANCH  26  27
ENDBRANCH  25  26
ENDBRANCH  23  25
ENDBRANCH  20  23
ENDBRANCH   7  20
TORSDOF 7
ENDMDL
MODEL 7
REMARK VINA RESULT:      -7.8      4.694      9.210
REMARK  Name = 
REMARK  8 active torsions:
REMARK  status: ('A' for Active; 'I' for Inactive)
REMARK    1  A    between atoms: C_1  and  C_2
REMARK    2  A    between atoms: C_5  and  C_6
REMARK    3  A    between atoms: C_9  and  O_10
REMARK    4  A    between atoms: C_18  and  S_19
REMARK    5  A    between atoms: S_19  and  N_22
REMARK    6  A    between atoms: N_22  and  C_23
REMARK    7  A    between atoms: C_23  and  C_24
REMARK    8  A    between atoms: C_24  and  N_25
REMARK                            x       y       z     vdW  Elec       q    Type
REMARK                         _______ _______ _______ _____ _____    ______ ____
ROOT
ATOM      1  C   UNL     1       5.489   3.126  16.061  0.00  0.00    +0.000 C 
ATOM      2  C   UNL     1       4.727   4.170  16.825  0.00  0.00    +0.000 A 
ATOM      3  C   UNL     1       3.365   3.930  17.049  0.00  0.00    +0.000 A 
ATOM      4  C   UNL     1       2.583   4.826  17.778  0.00  0.00    +0.000 A 
ATOM      5  C   UNL     1       3.135   5.955  18.400  0.00  0.00    +0.000 A 
ATOM      6  C   UNL     1       4.487   6.233  18.115  0.00  0.00    +0.000 A 
ATOM      7  C   UNL     1       5.271   5.373  17.316  0.00  0.00    +0.000 A 
ENDROOT
BRANCH   5   8
ATOM      8  C   UNL     1       2.331   6.833  19.289  0.00  0.00    +0.000 A 
ATOM      9  N   UNL     1       1.990   6.247  20.471  0.00  0.00    +0.000 NA
ATOM     10  N   UNL     1       1.309   6.944  21.420  0.00  0.00    +0.000 NA
ATOM     11  C   UNL     1       1.011   8.232  21.189  0.00  0.00    +0.000 A 
ATOM     12  C   UNL     1       1.322   8.911  20.016  0.00  0.00    +0.000 A 
ATOM     13  C   UNL     1       1.019  10.281  19.830  0.00  0.00    +0.000 A 
ATOM     14  C   UNL     1       1.339  10.934  18.639  0.00  0.00    +0.000 A 
ATOM     15  C   UNL     1       1.909  10.217  17.600  0.00  0.00    +0.000 A 
ATOM     16  C   UNL     1       2.186   8.859  17.766  0.00  0.00    +0.000 A 
ATOM     17  C   UNL     1       1.965   8.180  18.998  0.00  0.00    +0.000 A 
BRANCH  11  18
ATOM     18  O   UNL     1       0.350   8.845  22.212  0.00  0.00    +0.000 OA
ATOM     19  H   UNL     1       0.084   8.080  22.753  0.00  0.00    +0.000 HD
ENDBRANCH  11  18
ENDBRANCH   5   8
BRANCH   7  20
ATOM     20  S   UNL     1       6.974   5.864  17.021  0.00  0.00    +0.000 S 
ATOM     21  O   UNL     1       7.830   5.051  17.851  0.00  0.00    +0.000 OA
ATOM     22  O   UNL     1       7.184   5.961  15.598  0.00  0.00    +0.000 OA
BRANCH  20  23
ATOM     23  N   UNL     1       6.990   7.451  17.618  0.00  0.00    +0.000 NA
ATOM     24  H   UNL     1       6.232   7.603  18.286  0.00  0.00    +0.000 HD
BRANCH  23  25
ATOM     25  C   UNL     1       8.291   7.970  18.098  0.00  0.00    +0.000 C 
BRANCH  25  26
ATOM     26  C   UNL     1       8.251   9.504  18.270  0.00  0.00    +0.000 C 
BRANCH  26  27
ATOM     27  N   UNL     1       9.418  10.233  18.775  0.00  0.00    +0.000 NA
ATOM     28  C   UNL     1       9.320  10.831  20.110  0.00  0.00    +0.000 C 
ATOM     29  C   UNL     1       9.037  12.346  20.153  0.00  0.00    +0.000 C 
ATOM     30  O   UNL     1       9.920  13.067  19.288  0.00  0.00    +0.000 OA
ATOM     31  C   UNL     1       9.747  12.611  17.942  0.00  0.00    +0.000 C 
ATOM     32  C   UNL     1      10.095  11.123  17.816  0.00  0.00    +0.000 C 
ENDBRANCH  26  27
ENDBRANCH  25  26
ENDBRANCH  23  25
ENDBRANCH  20  23
ENDBRANCH   7  20
TORSDOF 7
ENDMDL
MODEL 8
REMARK VINA RESULT:      -7.8      3.635     10.227
REMARK  Name = 
REMARK  8 active torsions:
REMARK  status: ('A' for Active; 'I' for Inactive)
REMARK    1  A    between atoms: C_1  and  C_2
REMARK    2  A    between atoms: C_5  and  C_6
REMARK    3  A    between atoms: C_9  and  O_10
REMARK    4  A    between atoms: C_18  and  S_19
REMARK    5  A    between atoms: S_19  and  N_22
REMARK    6  A    between atoms: N_22  and  C_23
REMARK    7  A    between atoms: C_23  and  C_24
REMARK    8  A    between atoms: C_24  and  N_25
REMARK                            x       y       z     vdW  Elec       q    Type
REMARK                         _______ _______ _______ _____ _____    ______ ____
ROOT
ATOM      1  C   UNL     1       3.402   2.769  20.593  0.00  0.00    +0.000 C 
ATOM      2  C   UNL     1       2.970   4.158  20.222  0.00  0.00    +0.000 A 
ATOM      3  C   UNL     1       1.807   4.649  20.830  0.00  0.00    +0.000 A 
ATOM      4  C   UNL     1       1.348   5.941  20.574  0.00  0.00    +0.000 A 
ATOM      5  C   UNL     1       2.071   6.840  19.777  0.00  0.00    +0.000 A 
ATOM      6  C   UNL     1       3.200   6.324  19.111  0.00  0.00    +0.000 A 
ATOM      7  C   UNL     1       3.634   4.993  19.303  0.00  0.00    +0.000 A 
ENDROOT
BRANCH   5   8
ATOM      8  C   UNL     1       1.653   8.257  19.616  0.00  0.00    +0.000 A 
ATOM      9  N   UNL     1       1.871   8.751  18.365  0.00  0.00    +0.000 NA
ATOM     10  N   UNL     1       1.483  10.013  18.039  0.00  0.00    +0.000 NA
ATOM     11  C   UNL     1       0.845  10.752  18.961  0.00  0.00    +0.000 A 
ATOM     12  C   UNL     1       0.577  10.329  20.258  0.00  0.00    +0.000 A 
ATOM     13  C   UNL     1      -0.129  11.131  21.186  0.00  0.00    +0.000 A 
ATOM     14  C   UNL     1      -0.377  10.682  22.483  0.00  0.00    +0.000 A 
ATOM     15  C   UNL     1       0.126   9.456  22.889  0.00  0.00    +0.000 A 
ATOM     16  C   UNL     1       0.847   8.672  21.987  0.00  0.00    +0.000 A 
ATOM     17  C   UNL     1       1.038   9.051  20.628  0.00  0.00    +0.000 A 
BRANCH  11  18
ATOM     18  O   UNL     1       0.478  11.992  18.526  0.00  0.00    +0.000 OA
ATOM     19  H   UNL     1       0.633  12.528  19.324  0.00  0.00    +0.000 HD
ENDBRANCH  11  18
ENDBRANCH   5   8
BRANCH   7  20
ATOM     20  S   UNL     1       5.077   4.466  18.372  0.00  0.00    +0.000 S 
ATOM     21  O   UNL     1       6.130   4.154  19.308  0.00  0.00    +0.000 OA
ATOM     22  O   UNL     1       4.656   3.515  17.373  0.00  0.00    +0.000 OA
BRANCH  20  23
ATOM     23  N   UNL     1       5.494   5.883  17.539  0.00  0.00    +0.000 NA
ATOM     24  H   UNL     1       6.409   6.229  17.832  0.00  0.00    +0.000 HD
BRANCH  23  25
ATOM     25  C   UNL     1       5.333   5.863  16.067  0.00  0.00    +0.000 C 
BRANCH  25  26
ATOM     26  C   UNL     1       6.692   6.042  15.354  0.00  0.00    +0.000 C 
BRANCH  26  27
ATOM     27  N   UNL     1       7.301   4.935  14.612  0.00  0.00    +0.000 NA
ATOM     28  C   UNL     1       8.073   5.266  13.410  0.00  0.00    +0.000 C 
ATOM     29  C   UNL     1       7.352   5.052  12.065  0.00  0.00    +0.000 C 
ATOM     30  O   UNL     1       6.749   3.755  11.995  0.00  0.00    +0.000 OA
ATOM     31  C   UNL     1       5.792   3.617  13.050  0.00  0.00    +0.000 C 
ATOM     32  C   UNL     1       6.464   3.738  14.423  0.00  0.00    +0.000 C 
ENDBRANCH  26  27
ENDBRANCH  25  26
ENDBRANCH  23  25
ENDBRANCH  20  23
ENDBRANCH   7  20
TORSDOF 7
ENDMDL
MODEL 9
REMARK VINA RESULT:      -7.8      1.633      2.556
REMARK  Name = 
REMARK  8 active torsions:
REMARK  status: ('A' for Active; 'I' for Inactive)
REMARK    1  A    between atoms: C_1  and  C_2
REMARK    2  A    between atoms: C_5  and  C_6
REMARK    3  A    between atoms: C_9  and  O_10
REMARK    4  A    between atoms: C_18  and  S_19
REMARK    5  A    between atoms: S_19  and  N_22
REMARK    6  A    between atoms: N_22  and  C_23
REMARK    7  A    between atoms: C_23  and  C_24
REMARK    8  A    between atoms: C_24  and  N_25
REMARK                            x       y       z     vdW  Elec       q    Type
REMARK                         _______ _______ _______ _____ _____    ______ ____
ROOT
ATOM      1  C   UNL     1       0.564  11.329  19.436  0.00  0.00    +0.000 C 
ATOM      2  C   UNL     1       1.094   9.929  19.316  0.00  0.00    +0.000 A 
ATOM      3  C   UNL     1       1.599   9.542  18.067  0.00  0.00    +0.000 A 
ATOM      4  C   UNL     1       2.144   8.274  17.870  0.00  0.00    +0.000 A 
ATOM      5  C   UNL     1       2.300   7.362  18.924  0.00  0.00    +0.000 A 
ATOM      6  C   UNL     1       1.729   7.724  20.160  0.00  0.00    +0.000 A 
ATOM      7  C   UNL     1       1.106   8.977  20.353  0.00  0.00    +0.000 A 
ENDROOT
BRANCH   5   8
ATOM      8  C   UNL     1       3.005   6.066  18.742  0.00  0.00    +0.000 A 
ATOM      9  N   UNL     1       2.643   5.117  19.650  0.00  0.00    +0.000 NA
ATOM     10  N   UNL     1       3.150   3.857  19.577  0.00  0.00    +0.000 NA
ATOM     11  C   UNL     1       3.985   3.553  18.570  0.00  0.00    +0.000 A 
ATOM     12  C   UNL     1       4.405   4.455  17.599  0.00  0.00    +0.000 A 
ATOM     13  C   UNL     1       5.260   4.080  16.536  0.00  0.00    +0.000 A 
ATOM     14  C   UNL     1       5.670   5.009  15.579  0.00  0.00    +0.000 A 
ATOM     15  C   UNL     1       5.281   6.333  15.703  0.00  0.00    +0.000 A 
ATOM     16  C   UNL     1       4.460   6.716  16.765  0.00  0.00    +0.000 A 
ATOM     17  C   UNL     1       3.942   5.781  17.706  0.00  0.00    +0.000 A 
BRANCH  11  18
ATOM     18  O   UNL     1       4.417   2.259  18.575  0.00  0.00    +0.000 OA
ATOM     19  H   UNL     1       4.105   1.957  19.447  0.00  0.00    +0.000 HD
ENDBRANCH  11  18
ENDBRANCH   5   8
BRANCH   7  20
ATOM     20  S   UNL     1       0.404   9.293  21.976  0.00  0.00    +0.000 S 
ATOM     21  O   UNL     1      -0.630   8.318  22.220  0.00  0.00    +0.000 OA
ATOM     22  O   UNL     1       1.483   9.492  22.912  0.00  0.00    +0.000 OA
BRANCH  20  23
ATOM     23  N   UNL     1      -0.323  10.809  21.753  0.00  0.00    +0.000 NA
ATOM     24  H   UNL     1      -0.721  10.896  20.817  0.00  0.00    +0.000 HD
BRANCH  23  25
ATOM     25  C   UNL     1      -1.251  11.266  22.814  0.00  0.00    +0.000 C 
BRANCH  25  26
ATOM     26  C   UNL     1      -2.252  12.308  22.269  0.00  0.00    +0.000 C 
BRANCH  26  27
ATOM     27  N   UNL     1      -3.636  12.341  22.750  0.00  0.00    +0.000 NA
ATOM     28  C   UNL     1      -4.675  12.757  21.802  0.00  0.00    +0.000 C 
ATOM     29  C   UNL     1      -5.168  14.212  21.936  0.00  0.00    +0.000 C 
ATOM     30  O   UNL     1      -5.499  14.528  23.292  0.00  0.00    +0.000 OA
ATOM     31  C   UNL     1      -4.340  14.365  24.116  0.00  0.00    +0.000 C 
ATOM     32  C   UNL     1      -3.847  12.913  24.091  0.00  0.00    +0.000 C 
ENDBRANCH  26  27
ENDBRANCH  25  26
ENDBRANCH  23  25
ENDBRANCH  20  23
ENDBRANCH   7  20
TORSDOF 7
ENDMDL
