MODEL 1
REMARK VINA RESULT:      -7.2      0.000      0.000
REMARK  Name = 
REMARK  13 active torsions:
REMARK  status: ('A' for Active; 'I' for Inactive)
REMARK    1  A    between atoms: C_1  and  C_2
REMARK    2  A    between atoms: C_2  and  O_3
REMARK    3  A    between atoms: O_3  and  C_4
REMARK    4  A    between atoms: C_4  and  C_6
REMARK    5  A    between atoms: C_6  and  C_7
REMARK    6  A    between atoms: N_18  and  C_19
REMARK    7  A    between atoms: C_19  and  C_20
REMARK    8  A    between atoms: C_22  and  O_23
REMARK    9  A    between atoms: O_23  and  C_24
REMARK   10  A    between atoms: C_25  and  O_26
REMARK   11  A    between atoms: O_26  and  C_27
REMARK   12  A    between atoms: C_28  and  O_29
REMARK   13  A    between atoms: O_29  and  C_30
REMARK                            x       y       z     vdW  Elec       q    Type
REMARK                         _______ _______ _______ _____ _____    ______ ____
ROOT
ATOM      1  C   UNL     1      -0.618  10.614  19.492  0.00  0.00    +0.000 C 
ATOM      2  C   UNL     1      -1.144  11.374  20.682  0.00  0.00    +0.000 A 
ATOM      3  C   UNL     1      -1.874  12.558  20.669  0.00  0.00    +0.000 A 
ATOM      4  C   UNL     1      -2.297  13.093  21.888  0.00  0.00    +0.000 A 
ATOM      5  F   UNL     1      -2.999  14.233  21.890  0.00  0.00    +0.000 F 
ATOM      6  C   UNL     1      -2.004  12.469  23.107  0.00  0.00    +0.000 A 
ATOM      7  C   UNL     1      -1.262  11.289  23.126  0.00  0.00    +0.000 A 
ATOM      8  C   UNL     1      -0.849  10.777  21.905  0.00  0.00    +0.000 A 
ATOM      9  S   UNL     1       0.131   9.343  21.700  0.00  0.00    +0.000 S 
ATOM     10  O   UNL     1      -0.674   8.194  22.030  0.00  0.00    +0.000 OA
ATOM     11  O   UNL     1       1.426   9.629  22.273  0.00  0.00    +0.000 OA
ATOM     12  N   UNL     1       0.221   9.457  19.978  0.00  0.00    +0.000 NA
ENDROOT
BRANCH   1  13
ATOM     13  C   UNL     1      -1.700  10.123  18.529  0.00  0.00    +0.000 C 
BRANCH  13  14
ATOM     14  C   UNL     1      -2.196  11.194  17.593  0.00  0.00    +0.000 C 
ATOM     15  O   UNL     1      -1.540  12.171  17.248  0.00  0.00    +0.000 OA
BRANCH  14  16
ATOM     16  O   UNL     1      -3.444  10.891  17.139  0.00  0.00    +0.000 OA
BRANCH  16  18
ATOM     17  C   UNL     1      -2.980   9.957  14.941  0.00  0.00    +0.000 C 
ATOM     18  C   UNL     1      -3.654  11.067  15.729  0.00  0.00    +0.000 C 
ENDBRANCH  16  18
ENDBRANCH  14  16
ENDBRANCH  13  14
ENDBRANCH   1  13
BRANCH  12  19
ATOM     19  C   UNL     1       1.595   9.443  19.409  0.00  0.00    +0.000 C 
BRANCH  19  20
ATOM     20  C   UNL     1       2.178   8.073  19.131  0.00  0.00    +0.000 A 
ATOM     21  C   UNL     1       1.913   6.989  19.974  0.00  0.00    +0.000 A 
ATOM     22  C   UNL     1       2.478   5.729  19.732  0.00  0.00    +0.000 A 
ATOM     23  C   UNL     1       3.306   5.528  18.605  0.00  0.00    +0.000 A 
ATOM     24  C   UNL     1       3.557   6.608  17.736  0.00  0.00    +0.000 A 
ATOM     25  C   UNL     1       2.990   7.864  18.008  0.00  0.00    +0.000 A 
BRANCH  22  26
ATOM     26  O   UNL     1       2.295   4.652  20.570  0.00  0.00    +0.000 OA
ATOM     27  C   UNL     1       1.037   3.992  20.500  0.00  0.00    +0.000 C 
ENDBRANCH  22  26
BRANCH  23  28
ATOM     28  O   UNL     1       3.859   4.271  18.491  0.00  0.00    +0.000 OA
ATOM     29  C   UNL     1       3.324   3.406  17.496  0.00  0.00    +0.000 C 
ENDBRANCH  23  28
BRANCH  24  30
ATOM     30  O   UNL     1       4.442   6.431  16.704  0.00  0.00    +0.000 OA
ATOM     31  C   UNL     1       5.781   6.852  16.936  0.00  0.00    +0.000 C 
ENDBRANCH  24  30
ENDBRANCH  19  20
ENDBRANCH  12  19
TORSDOF 9
ENDMDL
MODEL 2
REMARK VINA RESULT:      -7.1      0.479      2.290
REMARK  Name = 
REMARK  13 active torsions:
REMARK  status: ('A' for Active; 'I' for Inactive)
REMARK    1  A    between atoms: C_1  and  C_2
REMARK    2  A    between atoms: C_2  and  O_3
REMARK    3  A    between atoms: O_3  and  C_4
REMARK    4  A    between atoms: C_4  and  C_6
REMARK    5  A    between atoms: C_6  and  C_7
REMARK    6  A    between atoms: N_18  and  C_19
REMARK    7  A    between atoms: C_19  and  C_20
REMARK    8  A    between atoms: C_22  and  O_23
REMARK    9  A    between atoms: O_23  and  C_24
REMARK   10  A    between atoms: C_25  and  O_26
REMARK   11  A    between atoms: O_26  and  C_27
REMARK   12  A    between atoms: C_28  and  O_29
REMARK   13  A    between atoms: O_29  and  C_30
REMARK                            x       y       z     vdW  Elec       q    Type
REMARK                         _______ _______ _______ _____ _____    ______ ____
ROOT
ATOM      1  C   UNL     1      -0.545  10.564  19.460  0.00  0.00    +0.000 C 
ATOM      2  C   UNL     1      -1.048  11.370  20.628  0.00  0.00    +0.000 A 
ATOM      3  C   UNL     1      -1.735  12.579  20.584  0.00  0.00    +0.000 A 
ATOM      4  C   UNL     1      -2.144  13.157  21.788  0.00  0.00    +0.000 A 
ATOM      5  F   UNL     1      -2.804  14.322  21.760  0.00  0.00    +0.000 F 
ATOM      6  C   UNL     1      -1.879  12.552  23.022  0.00  0.00    +0.000 A 
ATOM      7  C   UNL     1      -1.180  11.346  23.073  0.00  0.00    +0.000 A 
ATOM      8  C   UNL     1      -0.781  10.792  21.867  0.00  0.00    +0.000 A 
ATOM      9  S   UNL     1       0.147   9.318  21.700  0.00  0.00    +0.000 S 
ATOM     10  O   UNL     1      -0.701   8.208  22.052  0.00  0.00    +0.000 OA
ATOM     11  O   UNL     1       1.449   9.571  22.273  0.00  0.00    +0.000 OA
ATOM     12  N   UNL     1       0.248   9.388  19.976  0.00  0.00    +0.000 NA
ENDROOT
BRANCH   1  13
ATOM     13  C   UNL     1      -1.640  10.089  18.502  0.00  0.00    +0.000 C 
BRANCH  13  14
ATOM     14  C   UNL     1      -2.138  11.174  17.581  0.00  0.00    +0.000 C 
ATOM     15  O   UNL     1      -1.486  12.159  17.257  0.00  0.00    +0.000 OA
BRANCH  14  16
ATOM     16  O   UNL     1      -3.382  10.871  17.116  0.00  0.00    +0.000 OA
BRANCH  16  18
ATOM     17  C   UNL     1      -2.921  10.009  14.887  0.00  0.00    +0.000 C 
ATOM     18  C   UNL     1      -3.593  11.093  15.713  0.00  0.00    +0.000 C 
ENDBRANCH  16  18
ENDBRANCH  14  16
ENDBRANCH  13  14
ENDBRANCH   1  13
BRANCH  12  19
ATOM     19  C   UNL     1       1.623   9.311  19.415  0.00  0.00    +0.000 C 
BRANCH  19  20
ATOM     20  C   UNL     1       2.175   7.914  19.217  0.00  0.00    +0.000 A 
ATOM     21  C   UNL     1       2.965   7.598  18.108  0.00  0.00    +0.000 A 
ATOM     22  C   UNL     1       3.449   6.297  17.912  0.00  0.00    +0.000 A 
ATOM     23  C   UNL     1       3.168   5.285  18.857  0.00  0.00    +0.000 A 
ATOM     24  C   UNL     1       2.396   5.602  19.992  0.00  0.00    +0.000 A 
ATOM     25  C   UNL     1       1.910   6.909  20.159  0.00  0.00    +0.000 A 
BRANCH  22  26
ATOM     26  O   UNL     1       4.175   5.928  16.802  0.00  0.00    +0.000 OA
ATOM     27  C   UNL     1       5.292   6.743  16.466  0.00  0.00    +0.000 C 
ENDBRANCH  22  26
BRANCH  23  28
ATOM     28  O   UNL     1       3.639   4.030  18.541  0.00  0.00    +0.000 OA
ATOM     29  C   UNL     1       4.766   3.550  19.264  0.00  0.00    +0.000 C 
ENDBRANCH  23  28
BRANCH  24  30
ATOM     30  O   UNL     1       2.043   4.593  20.851  0.00  0.00    +0.000 OA
ATOM     31  C   UNL     1       0.913   3.811  20.481  0.00  0.00    +0.000 C 
ENDBRANCH  24  30
ENDBRANCH  19  20
ENDBRANCH  12  19
TORSDOF 9
ENDMDL
MODEL 3
REMARK VINA RESULT:      -6.7      0.767      2.437
REMARK  Name = 
REMARK  13 active torsions:
REMARK  status: ('A' for Active; 'I' for Inactive)
REMARK    1  A    between atoms: C_1  and  C_2
REMARK    2  A    between atoms: C_2  and  O_3
REMARK    3  A    between atoms: O_3  and  C_4
REMARK    4  A    between atoms: C_4  and  C_6
REMARK    5  A    between atoms: C_6  and  C_7
REMARK    6  A    between atoms: N_18  and  C_19
REMARK    7  A    between atoms: C_19  and  C_20
REMARK    8  A    between atoms: C_22  and  O_23
REMARK    9  A    between atoms: O_23  and  C_24
REMARK   10  A    between atoms: C_25  and  O_26
REMARK   11  A    between atoms: O_26  and  C_27
REMARK   12  A    between atoms: C_28  and  O_29
REMARK   13  A    between atoms: O_29  and  C_30
REMARK                            x       y       z     vdW  Elec       q    Type
REMARK                         _______ _______ _______ _____ _____    ______ ____
ROOT
ATOM      1  C   UNL     1      -0.888  10.616  19.350  0.00  0.00    +0.000 C 
ATOM      2  C   UNL     1      -1.315  11.498  20.494  0.00  0.00    +0.000 A 
ATOM      3  C   UNL     1      -2.138  12.619  20.432  0.00  0.00    +0.000 A 
ATOM      4  C   UNL     1      -2.441  13.289  21.620  0.00  0.00    +0.000 A 
ATOM      5  F   UNL     1      -3.230  14.370  21.574  0.00  0.00    +0.000 F 
ATOM      6  C   UNL     1      -1.939  12.861  22.855  0.00  0.00    +0.000 A 
ATOM      7  C   UNL     1      -1.105  11.746  22.921  0.00  0.00    +0.000 A 
ATOM      8  C   UNL     1      -0.814  11.098  21.730  0.00  0.00    +0.000 A 
ATOM      9  S   UNL     1       0.247   9.716  21.575  0.00  0.00    +0.000 S 
ATOM     10  O   UNL     1      -0.409   8.574  22.160  0.00  0.00    +0.000 OA
ATOM     11  O   UNL     1       1.578  10.163  21.918  0.00  0.00    +0.000 OA
ATOM     12  N   UNL     1       0.101   9.595  19.857  0.00  0.00    +0.000 NA
ENDROOT
BRANCH   1  13
ATOM     13  C   UNL     1      -2.042   9.926  18.621  0.00  0.00    +0.000 C 
BRANCH  13  14
ATOM     14  C   UNL     1      -2.336  10.524  17.269  0.00  0.00    +0.000 C 
ATOM     15  O   UNL     1      -2.064   9.989  16.201  0.00  0.00    +0.000 OA
BRANCH  14  16
ATOM     16  O   UNL     1      -2.999  11.707  17.405  0.00  0.00    +0.000 OA
BRANCH  16  18
ATOM     17  C   UNL     1      -5.359  11.985  16.882  0.00  0.00    +0.000 C 
ATOM     18  C   UNL     1      -4.330  11.617  17.937  0.00  0.00    +0.000 C 
ENDBRANCH  16  18
ENDBRANCH  14  16
ENDBRANCH  13  14
ENDBRANCH   1  13
BRANCH  12  19
ATOM     19  C   UNL     1       1.384   9.592  19.106  0.00  0.00    +0.000 C 
BRANCH  19  20
ATOM     20  C   UNL     1       2.075   8.249  18.990  0.00  0.00    +0.000 A 
ATOM     21  C   UNL     1       2.939   7.968  17.927  0.00  0.00    +0.000 A 
ATOM     22  C   UNL     1       3.553   6.714  17.805  0.00  0.00    +0.000 A 
ATOM     23  C   UNL     1       3.328   5.716  18.780  0.00  0.00    +0.000 A 
ATOM     24  C   UNL     1       2.480   6.000  19.869  0.00  0.00    +0.000 A 
ATOM     25  C   UNL     1       1.865   7.259  19.961  0.00  0.00    +0.000 A 
BRANCH  22  26
ATOM     26  O   UNL     1       4.359   6.374  16.742  0.00  0.00    +0.000 OA
ATOM     27  C   UNL     1       5.718   6.789  16.811  0.00  0.00    +0.000 C 
ENDBRANCH  22  26
BRANCH  23  28
ATOM     28  O   UNL     1       3.929   4.501  18.536  0.00  0.00    +0.000 OA
ATOM     29  C   UNL     1       3.210   3.559  17.750  0.00  0.00    +0.000 C 
ENDBRANCH  23  28
BRANCH  24  30
ATOM     30  O   UNL     1       2.187   4.995  20.755  0.00  0.00    +0.000 OA
ATOM     31  C   UNL     1       1.018   4.231  20.484  0.00  0.00    +0.000 C 
ENDBRANCH  24  30
ENDBRANCH  19  20
ENDBRANCH  12  19
TORSDOF 9
ENDMDL
MODEL 4
REMARK VINA RESULT:      -6.5      1.037      1.205
REMARK  Name = 
REMARK  13 active torsions:
REMARK  status: ('A' for Active; 'I' for Inactive)
REMARK    1  A    between atoms: C_1  and  C_2
REMARK    2  A    between atoms: C_2  and  O_3
REMARK    3  A    between atoms: O_3  and  C_4
REMARK    4  A    between atoms: C_4  and  C_6
REMARK    5  A    between atoms: C_6  and  C_7
REMARK    6  A    between atoms: N_18  and  C_19
REMARK    7  A    between atoms: C_19  and  C_20
REMARK    8  A    between atoms: C_22  and  O_23
REMARK    9  A    between atoms: O_23  and  C_24
REMARK   10  A    between atoms: C_25  and  O_26
REMARK   11  A    between atoms: O_26  and  C_27
REMARK   12  A    between atoms: C_28  and  O_29
REMARK   13  A    between atoms: O_29  and  C_30
REMARK                            x       y       z     vdW  Elec       q    Type
REMARK                         _______ _______ _______ _____ _____    ______ ____
ROOT
ATOM      1  C   UNL     1      -0.739  10.532  18.996  0.00  0.00    +0.000 C 
ATOM      2  C   UNL     1      -1.277  11.395  20.107  0.00  0.00    +0.000 A 
ATOM      3  C   UNL     1      -2.120  12.496  19.988  0.00  0.00    +0.000 A 
ATOM      4  C   UNL     1      -2.532  13.149  21.151  0.00  0.00    +0.000 A 
ATOM      5  F   UNL     1      -3.342  14.211  21.049  0.00  0.00    +0.000 F 
ATOM      6  C   UNL     1      -2.118  12.725  22.419  0.00  0.00    +0.000 A 
ATOM      7  C   UNL     1      -1.262  11.631  22.545  0.00  0.00    +0.000 A 
ATOM      8  C   UNL     1      -0.863  10.999  21.377  0.00  0.00    +0.000 A 
ATOM      9  S   UNL     1       0.241   9.645  21.299  0.00  0.00    +0.000 S 
ATOM     10  O   UNL     1      -0.429   8.483  21.825  0.00  0.00    +0.000 OA
ATOM     11  O   UNL     1       1.529  10.123  21.747  0.00  0.00    +0.000 OA
ATOM     12  N   UNL     1       0.232   9.532  19.574  0.00  0.00    +0.000 NA
ENDROOT
BRANCH   1  13
ATOM     13  C   UNL     1      -1.815   9.819  18.175  0.00  0.00    +0.000 C 
BRANCH  13  14
ATOM     14  C   UNL     1      -2.593  10.746  17.278  0.00  0.00    +0.000 C 
ATOM     15  O   UNL     1      -2.086  11.573  16.530  0.00  0.00    +0.000 OA
BRANCH  14  16
ATOM     16  O   UNL     1      -3.928  10.492  17.372  0.00  0.00    +0.000 OA
BRANCH  16  18
ATOM     17  C   UNL     1      -5.401  12.095  18.459  0.00  0.00    +0.000 C 
ATOM     18  C   UNL     1      -4.794  11.617  17.151  0.00  0.00    +0.000 C 
ENDBRANCH  16  18
ENDBRANCH  14  16
ENDBRANCH  13  14
ENDBRANCH   1  13
BRANCH  12  19
ATOM     19  C   UNL     1       1.570   9.567  18.926  0.00  0.00    +0.000 C 
BRANCH  19  20
ATOM     20  C   UNL     1       2.197   8.217  18.640  0.00  0.00    +0.000 A 
ATOM     21  C   UNL     1       1.762   7.062  19.297  0.00  0.00    +0.000 A 
ATOM     22  C   UNL     1       2.364   5.820  19.053  0.00  0.00    +0.000 A 
ATOM     23  C   UNL     1       3.409   5.712  18.109  0.00  0.00    +0.000 A 
ATOM     24  C   UNL     1       3.837   6.866  17.423  0.00  0.00    +0.000 A 
ATOM     25  C   UNL     1       3.227   8.102  17.695  0.00  0.00    +0.000 A 
BRANCH  22  26
ATOM     26  O   UNL     1       2.009   4.671  19.724  0.00  0.00    +0.000 OA
ATOM     27  C   UNL     1       2.000   4.736  21.145  0.00  0.00    +0.000 C 
ENDBRANCH  22  26
BRANCH  23  28
ATOM     28  O   UNL     1       3.972   4.461  17.988  0.00  0.00    +0.000 OA
ATOM     29  C   UNL     1       5.048   4.138  18.861  0.00  0.00    +0.000 C 
ENDBRANCH  23  28
BRANCH  24  30
ATOM     30  O   UNL     1       4.918   6.771  16.585  0.00  0.00    +0.000 OA
ATOM     31  C   UNL     1       6.184   7.105  17.142  0.00  0.00    +0.000 C 
ENDBRANCH  24  30
ENDBRANCH  19  20
ENDBRANCH  12  19
TORSDOF 9
ENDMDL
MODEL 5
REMARK VINA RESULT:      -6.5      3.732      8.638
REMARK  Name = 
REMARK  13 active torsions:
REMARK  status: ('A' for Active; 'I' for Inactive)
REMARK    1  A    between atoms: C_1  and  C_2
REMARK    2  A    between atoms: C_2  and  O_3
REMARK    3  A    between atoms: O_3  and  C_4
REMARK    4  A    between atoms: C_4  and  C_6
REMARK    5  A    between atoms: C_6  and  C_7
REMARK    6  A    between atoms: N_18  and  C_19
REMARK    7  A    between atoms: C_19  and  C_20
REMARK    8  A    between atoms: C_22  and  O_23
REMARK    9  A    between atoms: O_23  and  C_24
REMARK   10  A    between atoms: C_25  and  O_26
REMARK   11  A    between atoms: O_26  and  C_27
REMARK   12  A    between atoms: C_28  and  O_29
REMARK   13  A    between atoms: O_29  and  C_30
REMARK                            x       y       z     vdW  Elec       q    Type
REMARK                         _______ _______ _______ _____ _____    ______ ____
ROOT
ATOM      1  C   UNL     1       0.581  11.105  19.803  0.00  0.00    +0.000 C 
ATOM      2  C   UNL     1       1.245   9.809  19.418  0.00  0.00    +0.000 A 
ATOM      3  C   UNL     1       1.819   9.488  18.191  0.00  0.00    +0.000 A 
ATOM      4  C   UNL     1       2.415   8.234  18.042  0.00  0.00    +0.000 A 
ATOM      5  F   UNL     1       2.969   7.912  16.866  0.00  0.00    +0.000 F 
ATOM      6  C   UNL     1       2.445   7.305  19.089  0.00  0.00    +0.000 A 
ATOM      7  C   UNL     1       1.860   7.616  20.316  0.00  0.00    +0.000 A 
ATOM      8  C   UNL     1       1.272   8.865  20.441  0.00  0.00    +0.000 A 
ATOM      9  S   UNL     1       0.440   9.441  21.868  0.00  0.00    +0.000 S 
ATOM     10  O   UNL     1       1.420   9.682  22.896  0.00  0.00    +0.000 OA
ATOM     11  O   UNL     1      -0.738   8.621  22.032  0.00  0.00    +0.000 OA
ATOM     12  N   UNL     1      -0.006  10.966  21.187  0.00  0.00    +0.000 NA
ENDROOT
BRANCH   1  13
ATOM     13  C   UNL     1       1.497  12.328  19.732  0.00  0.00    +0.000 C 
BRANCH  13  14
ATOM     14  C   UNL     1       1.168  13.253  18.588  0.00  0.00    +0.000 C 
ATOM     15  O   UNL     1       0.036  13.619  18.297  0.00  0.00    +0.000 OA
BRANCH  14  16
ATOM     16  O   UNL     1       2.308  13.668  17.968  0.00  0.00    +0.000 OA
BRANCH  16  18
ATOM     17  C   UNL     1       4.505  14.713  18.024  0.00  0.00    +0.000 C 
ATOM     18  C   UNL     1       3.223  14.416  18.783  0.00  0.00    +0.000 C 
ENDBRANCH  16  18
ENDBRANCH  14  16
ENDBRANCH  13  14
ENDBRANCH   1  13
BRANCH  12  19
ATOM     19  C   UNL     1      -1.455  11.292  21.249  0.00  0.00    +0.000 C 
BRANCH  19  20
ATOM     20  C   UNL     1      -1.855  12.314  22.293  0.00  0.00    +0.000 A 
ATOM     21  C   UNL     1      -0.950  13.281  22.744  0.00  0.00    +0.000 A 
ATOM     22  C   UNL     1      -1.313  14.207  23.732  0.00  0.00    +0.000 A 
ATOM     23  C   UNL     1      -2.620  14.194  24.270  0.00  0.00    +0.000 A 
ATOM     24  C   UNL     1      -3.546  13.241  23.803  0.00  0.00    +0.000 A 
ATOM     25  C   UNL     1      -3.154  12.315  22.822  0.00  0.00    +0.000 A 
BRANCH  22  26
ATOM     26  O   UNL     1      -0.436  15.133  24.249  0.00  0.00    +0.000 OA
ATOM     27  C   UNL     1      -0.103  16.236  23.414  0.00  0.00    +0.000 C 
ENDBRANCH  22  26
BRANCH  23  28
ATOM     28  O   UNL     1      -2.856  15.104  25.277  0.00  0.00    +0.000 OA
ATOM     29  C   UNL     1      -3.616  16.262  24.951  0.00  0.00    +0.000 C 
ENDBRANCH  23  28
BRANCH  24  30
ATOM     30  O   UNL     1      -4.777  13.169  24.402  0.00  0.00    +0.000 OA
ATOM     31  C   UNL     1      -5.904  13.405  23.567  0.00  0.00    +0.000 C 
ENDBRANCH  24  30
ENDBRANCH  19  20
ENDBRANCH  12  19
TORSDOF 9
ENDMDL
MODEL 6
REMARK VINA RESULT:      -6.5      3.711      8.365
REMARK  Name = 
REMARK  13 active torsions:
REMARK  status: ('A' for Active; 'I' for Inactive)
REMARK    1  A    between atoms: C_1  and  C_2
REMARK    2  A    between atoms: C_2  and  O_3
REMARK    3  A    between atoms: O_3  and  C_4
REMARK    4  A    between atoms: C_4  and  C_6
REMARK    5  A    between atoms: C_6  and  C_7
REMARK    6  A    between atoms: N_18  and  C_19
REMARK    7  A    between atoms: C_19  and  C_20
REMARK    8  A    between atoms: C_22  and  O_23
REMARK    9  A    between atoms: O_23  and  C_24
REMARK   10  A    between atoms: C_25  and  O_26
REMARK   11  A    between atoms: O_26  and  C_27
REMARK   12  A    between atoms: C_28  and  O_29
REMARK   13  A    between atoms: O_29  and  C_30
REMARK                            x       y       z     vdW  Elec       q    Type
REMARK                         _______ _______ _______ _____ _____    ______ ____
ROOT
ATOM      1  C   UNL     1       0.681  11.160  19.609  0.00  0.00    +0.000 C 
ATOM      2  C   UNL     1       1.312   9.839  19.254  0.00  0.00    +0.000 A 
ATOM      3  C   UNL     1       1.873   9.473  18.035  0.00  0.00    +0.000 A 
ATOM      4  C   UNL     1       2.437   8.201  17.916  0.00  0.00    +0.000 A 
ATOM      5  F   UNL     1       2.978   7.836  16.746  0.00  0.00    +0.000 F 
ATOM      6  C   UNL     1       2.448   7.298  18.985  0.00  0.00    +0.000 A 
ATOM      7  C   UNL     1       1.875   7.654  20.205  0.00  0.00    +0.000 A 
ATOM      8  C   UNL     1       1.318   8.920  20.301  0.00  0.00    +0.000 A 
ATOM      9  S   UNL     1       0.506   9.552  21.716  0.00  0.00    +0.000 S 
ATOM     10  O   UNL     1       1.496   9.794  22.735  0.00  0.00    +0.000 OA
ATOM     11  O   UNL     1      -0.691   8.766  21.903  0.00  0.00    +0.000 OA
ATOM     12  N   UNL     1       0.096  11.070  20.998  0.00  0.00    +0.000 NA
ENDROOT
BRANCH   1  13
ATOM     13  C   UNL     1       1.627  12.358  19.505  0.00  0.00    +0.000 C 
BRANCH  13  14
ATOM     14  C   UNL     1       1.037  13.519  18.746  0.00  0.00    +0.000 C 
ATOM     15  O   UNL     1      -0.164  13.732  18.632  0.00  0.00    +0.000 OA
BRANCH  14  16
ATOM     16  O   UNL     1       2.024  14.324  18.263  0.00  0.00    +0.000 OA
BRANCH  16  18
ATOM     17  C   UNL     1       4.377  14.881  17.996  0.00  0.00    +0.000 C 
ATOM     18  C   UNL     1       3.353  14.016  18.710  0.00  0.00    +0.000 C 
ENDBRANCH  16  18
ENDBRANCH  14  16
ENDBRANCH  13  14
ENDBRANCH   1  13
BRANCH  12  19
ATOM     19  C   UNL     1      -1.345  11.434  21.056  0.00  0.00    +0.000 C 
BRANCH  19  20
ATOM     20  C   UNL     1      -1.747  12.345  22.198  0.00  0.00    +0.000 A 
ATOM     21  C   UNL     1      -2.979  12.197  22.843  0.00  0.00    +0.000 A 
ATOM     22  C   UNL     1      -3.361  13.061  23.879  0.00  0.00    +0.000 A 
ATOM     23  C   UNL     1      -2.485  14.083  24.310  0.00  0.00    +0.000 A 
ATOM     24  C   UNL     1      -1.231  14.222  23.684  0.00  0.00    +0.000 A 
ATOM     25  C   UNL     1      -0.877  13.353  22.638  0.00  0.00    +0.000 A 
BRANCH  22  26
ATOM     26  O   UNL     1      -4.589  12.991  24.497  0.00  0.00    +0.000 OA
ATOM     27  C   UNL     1      -5.734  13.104  23.661  0.00  0.00    +0.000 C 
ENDBRANCH  22  26
BRANCH  23  28
ATOM     28  O   UNL     1      -2.980  14.913  25.292  0.00  0.00    +0.000 OA
ATOM     29  C   UNL     1      -3.577  16.136  24.878  0.00  0.00    +0.000 C 
ENDBRANCH  23  28
BRANCH  24  30
ATOM     30  O   UNL     1      -0.432  15.278  24.037  0.00  0.00    +0.000 OA
ATOM     31  C   UNL     1      -0.087  16.188  23.000  0.00  0.00    +0.000 C 
ENDBRANCH  24  30
ENDBRANCH  19  20
ENDBRANCH  12  19
TORSDOF 9
ENDMDL
MODEL 7
REMARK VINA RESULT:      -6.4      1.586      2.917
REMARK  Name = 
REMARK  13 active torsions:
REMARK  status: ('A' for Active; 'I' for Inactive)
REMARK    1  A    between atoms: C_1  and  C_2
REMARK    2  A    between atoms: C_2  and  O_3
REMARK    3  A    between atoms: O_3  and  C_4
REMARK    4  A    between atoms: C_4  and  C_6
REMARK    5  A    between atoms: C_6  and  C_7
REMARK    6  A    between atoms: N_18  and  C_19
REMARK    7  A    between atoms: C_19  and  C_20
REMARK    8  A    between atoms: C_22  and  O_23
REMARK    9  A    between atoms: O_23  and  C_24
REMARK   10  A    between atoms: C_25  and  O_26
REMARK   11  A    between atoms: O_26  and  C_27
REMARK   12  A    between atoms: C_28  and  O_29
REMARK   13  A    between atoms: O_29  and  C_30
REMARK                            x       y       z     vdW  Elec       q    Type
REMARK                         _______ _______ _______ _____ _____    ______ ____
ROOT
ATOM      1  C   UNL     1       0.981   9.960  19.020  0.00  0.00    +0.000 C 
ATOM      2  C   UNL     1       0.548  11.181  19.789  0.00  0.00    +0.000 A 
ATOM      3  C   UNL     1       0.443  12.484  19.313  0.00  0.00    +0.000 A 
ATOM      4  C   UNL     1      -0.008  13.477  20.184  0.00  0.00    +0.000 A 
ATOM      5  F   UNL     1      -0.112  14.736  19.738  0.00  0.00    +0.000 F 
ATOM      6  C   UNL     1      -0.351  13.192  21.511  0.00  0.00    +0.000 A 
ATOM      7  C   UNL     1      -0.235  11.891  21.998  0.00  0.00    +0.000 A 
ATOM      8  C   UNL     1       0.218  10.920  21.117  0.00  0.00    +0.000 A 
ATOM      9  S   UNL     1       0.485   9.241  21.528  0.00  0.00    +0.000 S 
ATOM     10  O   UNL     1      -0.797   8.615  21.726  0.00  0.00    +0.000 OA
ATOM     11  O   UNL     1       1.572   9.206  22.479  0.00  0.00    +0.000 OA
ATOM     12  N   UNL     1       1.066   8.786  19.965  0.00  0.00    +0.000 NA
ENDROOT
BRANCH   1  13
ATOM     13  C   UNL     1       0.090   9.619  17.824  0.00  0.00    +0.000 C 
BRANCH  13  14
ATOM     14  C   UNL     1      -1.338  10.071  17.997  0.00  0.00    +0.000 C 
ATOM     15  O   UNL     1      -2.071   9.712  18.911  0.00  0.00    +0.000 OA
BRANCH  14  16
ATOM     16  O   UNL     1      -1.672  10.975  17.035  0.00  0.00    +0.000 OA
BRANCH  16  18
ATOM     17  C   UNL     1      -3.947  11.095  16.180  0.00  0.00    +0.000 C 
ATOM     18  C   UNL     1      -2.561  10.497  16.013  0.00  0.00    +0.000 C 
ENDBRANCH  16  18
ENDBRANCH  14  16
ENDBRANCH  13  14
ENDBRANCH   1  13
BRANCH  12  19
ATOM     19  C   UNL     1       2.391   8.111  19.950  0.00  0.00    +0.000 C 
BRANCH  19  20
ATOM     20  C   UNL     1       2.385   6.662  19.505  0.00  0.00    +0.000 A 
ATOM     21  C   UNL     1       3.069   6.254  18.356  0.00  0.00    +0.000 A 
ATOM     22  C   UNL     1       3.037   4.919  17.931  0.00  0.00    +0.000 A 
ATOM     23  C   UNL     1       2.330   3.952  18.682  0.00  0.00    +0.000 A 
ATOM     24  C   UNL     1       1.660   4.349  19.855  0.00  0.00    +0.000 A 
ATOM     25  C   UNL     1       1.695   5.696  20.253  0.00  0.00    +0.000 A 
BRANCH  22  26
ATOM     26  O   UNL     1       3.643   4.486  16.773  0.00  0.00    +0.000 OA
ATOM     27  C   UNL     1       4.952   4.979  16.513  0.00  0.00    +0.000 C 
ENDBRANCH  22  26
BRANCH  23  28
ATOM     28  O   UNL     1       2.311   2.683  18.146  0.00  0.00    +0.000 OA
ATOM     29  C   UNL     1       3.288   1.759  18.610  0.00  0.00    +0.000 C 
ENDBRANCH  23  28
BRANCH  24  30
ATOM     30  O   UNL     1       0.893   3.428  20.520  0.00  0.00    +0.000 OA
ATOM     31  C   UNL     1       1.499   2.784  21.635  0.00  0.00    +0.000 C 
ENDBRANCH  24  30
ENDBRANCH  19  20
ENDBRANCH  12  19
TORSDOF 9
ENDMDL
MODEL 8
REMARK VINA RESULT:      -6.3      1.264      2.590
REMARK  Name = 
REMARK  13 active torsions:
REMARK  status: ('A' for Active; 'I' for Inactive)
REMARK    1  A    between atoms: C_1  and  C_2
REMARK    2  A    between atoms: C_2  and  O_3
REMARK    3  A    between atoms: O_3  and  C_4
REMARK    4  A    between atoms: C_4  and  C_6
REMARK    5  A    between atoms: C_6  and  C_7
REMARK    6  A    between atoms: N_18  and  C_19
REMARK    7  A    between atoms: C_19  and  C_20
REMARK    8  A    between atoms: C_22  and  O_23
REMARK    9  A    between atoms: O_23  and  C_24
REMARK   10  A    between atoms: C_25  and  O_26
REMARK   11  A    between atoms: O_26  and  C_27
REMARK   12  A    between atoms: C_28  and  O_29
REMARK   13  A    between atoms: O_29  and  C_30
REMARK                            x       y       z     vdW  Elec       q    Type
REMARK                         _______ _______ _______ _____ _____    ______ ____
ROOT
ATOM      1  C   UNL     1      -0.212  10.288  20.119  0.00  0.00    +0.000 C 
ATOM      2  C   UNL     1      -0.784  11.384  20.980  0.00  0.00    +0.000 A 
ATOM      3  C   UNL     1      -1.257  12.624  20.562  0.00  0.00    +0.000 A 
ATOM      4  C   UNL     1      -1.779  13.495  21.520  0.00  0.00    +0.000 A 
ATOM      5  F   UNL     1      -2.236  14.693  21.131  0.00  0.00    +0.000 F 
ATOM      6  C   UNL     1      -1.833  13.151  22.876  0.00  0.00    +0.000 A 
ATOM      7  C   UNL     1      -1.348  11.916  23.302  0.00  0.00    +0.000 A 
ATOM      8  C   UNL     1      -0.832  11.067  22.335  0.00  0.00    +0.000 A 
ATOM      9  S   UNL     1      -0.128   9.497  22.653  0.00  0.00    +0.000 S 
ATOM     10  O   UNL     1      -1.186   8.596  23.032  0.00  0.00    +0.000 OA
ATOM     11  O   UNL     1       1.076   9.721  23.421  0.00  0.00    +0.000 OA
ATOM     12  N   UNL     1       0.287   9.173  21.007  0.00  0.00    +0.000 NA
ENDROOT
BRANCH   1  13
ATOM     13  C   UNL     1      -1.180   9.741  19.069  0.00  0.00    +0.000 C 
BRANCH  13  14
ATOM     14  C   UNL     1      -0.637   9.810  17.665  0.00  0.00    +0.000 C 
ATOM     15  O   UNL     1       0.515   9.529  17.353  0.00  0.00    +0.000 OA
BRANCH  14  16
ATOM     16  O   UNL     1      -1.619  10.166  16.790  0.00  0.00    +0.000 OA
BRANCH  16  18
ATOM     17  C   UNL     1      -3.921  10.832  16.370  0.00  0.00    +0.000 C 
ATOM     18  C   UNL     1      -2.958  10.124  17.307  0.00  0.00    +0.000 C 
ENDBRANCH  16  18
ENDBRANCH  14  16
ENDBRANCH  13  14
ENDBRANCH   1  13
BRANCH  12  19
ATOM     19  C   UNL     1       1.711   8.819  20.766  0.00  0.00    +0.000 C 
BRANCH  19  20
ATOM     20  C   UNL     1       1.956   7.442  20.183  0.00  0.00    +0.000 A 
ATOM     21  C   UNL     1       2.697   7.274  19.009  0.00  0.00    +0.000 A 
ATOM     22  C   UNL     1       2.897   6.002  18.456  0.00  0.00    +0.000 A 
ATOM     23  C   UNL     1       2.373   4.858  19.099  0.00  0.00    +0.000 A 
ATOM     24  C   UNL     1       1.648   5.016  20.296  0.00  0.00    +0.000 A 
ATOM     25  C   UNL     1       1.448   6.303  20.823  0.00  0.00    +0.000 A 
BRANCH  22  26
ATOM     26  O   UNL     1       3.566   5.798  17.270  0.00  0.00    +0.000 OA
ATOM     27  C   UNL     1       4.883   6.329  17.177  0.00  0.00    +0.000 C 
ENDBRANCH  22  26
BRANCH  23  28
ATOM     28  O   UNL     1       2.573   3.664  18.443  0.00  0.00    +0.000 OA
ATOM     29  C   UNL     1       3.683   2.870  18.847  0.00  0.00    +0.000 C 
ENDBRANCH  23  28
BRANCH  24  30
ATOM     30  O   UNL     1       1.056   3.914  20.858  0.00  0.00    +0.000 OA
ATOM     31  C   UNL     1       1.881   3.102  21.685  0.00  0.00    +0.000 C 
ENDBRANCH  24  30
ENDBRANCH  19  20
ENDBRANCH  12  19
TORSDOF 9
ENDMDL
MODEL 9
REMARK VINA RESULT:      -6.3      3.928      8.303
REMARK  Name = 
REMARK  13 active torsions:
REMARK  status: ('A' for Active; 'I' for Inactive)
REMARK    1  A    between atoms: C_1  and  C_2
REMARK    2  A    between atoms: C_2  and  O_3
REMARK    3  A    between atoms: O_3  and  C_4
REMARK    4  A    between atoms: C_4  and  C_6
REMARK    5  A    between atoms: C_6  and  C_7
REMARK    6  A    between atoms: N_18  and  C_19
REMARK    7  A    between atoms: C_19  and  C_20
REMARK    8  A    between atoms: C_22  and  O_23
REMARK    9  A    between atoms: O_23  and  C_24
REMARK   10  A    between atoms: C_25  and  O_26
REMARK   11  A    between atoms: O_26  and  C_27
REMARK   12  A    between atoms: C_28  and  O_29
REMARK   13  A    between atoms: O_29  and  C_30
REMARK                            x       y       z     vdW  Elec       q    Type
REMARK                         _______ _______ _______ _____ _____    ______ ____
ROOT
ATOM      1  C   UNL     1       3.594   5.577  18.200  0.00  0.00    +0.000 C 
ATOM      2  C   UNL     1       3.381   4.105  18.433  0.00  0.00    +0.000 A 
ATOM      3  C   UNL     1       3.910   3.049  17.698  0.00  0.00    +0.000 A 
ATOM      4  C   UNL     1       3.613   1.744  18.097  0.00  0.00    +0.000 A 
ATOM      5  F   UNL     1       4.115   0.719  17.396  0.00  0.00    +0.000 F 
ATOM      6  C   UNL     1       2.803   1.480  19.208  0.00  0.00    +0.000 A 
ATOM      7  C   UNL     1       2.260   2.535  19.941  0.00  0.00    +0.000 A 
ATOM      8  C   UNL     1       2.564   3.822  19.526  0.00  0.00    +0.000 A 
ATOM      9  S   UNL     1       1.952   5.284  20.265  0.00  0.00    +0.000 S 
ATOM     10  O   UNL     1       2.579   5.436  21.553  0.00  0.00    +0.000 OA
ATOM     11  O   UNL     1       0.524   5.307  20.039  0.00  0.00    +0.000 OA
ATOM     12  N   UNL     1       2.731   6.360  19.160  0.00  0.00    +0.000 NA
ENDROOT
BRANCH   1  13
ATOM     13  C   UNL     1       5.052   6.028  18.304  0.00  0.00    +0.000 C 
BRANCH  13  14
ATOM     14  C   UNL     1       5.603   6.571  17.011  0.00  0.00    +0.000 C 
ATOM     15  O   UNL     1       6.448   7.455  16.935  0.00  0.00    +0.000 OA
BRANCH  14  16
ATOM     16  O   UNL     1       5.075   5.901  15.949  0.00  0.00    +0.000 OA
BRANCH  16  18
ATOM     17  C   UNL     1       5.983   3.855  14.994  0.00  0.00    +0.000 C 
ATOM     18  C   UNL     1       6.026   5.373  15.011  0.00  0.00    +0.000 C 
ENDBRANCH  16  18
ENDBRANCH  14  16
ENDBRANCH  13  14
ENDBRANCH   1  13
BRANCH  12  19
ATOM     19  C   UNL     1       1.838   7.339  18.486  0.00  0.00    +0.000 C 
BRANCH  19  20
ATOM     20  C   UNL     1       1.578   8.623  19.248  0.00  0.00    +0.000 A 
ATOM     21  C   UNL     1       1.405   8.620  20.636  0.00  0.00    +0.000 A 
ATOM     22  C   UNL     1       1.135   9.805  21.334  0.00  0.00    +0.000 A 
ATOM     23  C   UNL     1       1.063  11.035  20.642  0.00  0.00    +0.000 A 
ATOM     24  C   UNL     1       1.262  11.051  19.248  0.00  0.00    +0.000 A 
ATOM     25  C   UNL     1       1.518   9.849  18.569  0.00  0.00    +0.000 A 
BRANCH  22  26
ATOM     26  O   UNL     1       0.895   9.838  22.689  0.00  0.00    +0.000 OA
ATOM     27  C   UNL     1      -0.394   9.416  23.122  0.00  0.00    +0.000 C 
ENDBRANCH  22  26
BRANCH  23  28
ATOM     28  O   UNL     1       0.733  12.130  21.411  0.00  0.00    +0.000 OA
ATOM     29  C   UNL     1      -0.600  12.619  21.319  0.00  0.00    +0.000 C 
ENDBRANCH  23  28
BRANCH  24  30
ATOM     30  O   UNL     1       1.090  12.231  18.571  0.00  0.00    +0.000 OA
ATOM     31  C   UNL     1       2.268  12.969  18.270  0.00  0.00    +0.000 C 
ENDBRANCH  24  30
ENDBRANCH  19  20
ENDBRANCH  12  19
TORSDOF 9
ENDMDL
