MODEL 1
REMARK VINA RESULT:      -7.3      0.000      0.000
REMARK  Name = 
REMARK  8 active torsions:
REMARK  status: ('A' for Active; 'I' for Inactive)
REMARK    1  A    between atoms: C_1  and  C_2
REMARK    2  A    between atoms: C_4  and  C_5
REMARK    3  A    between atoms: N_6  and  C_7
REMARK    4  A    between atoms: N_9  and  C_10
REMARK    5  A    between atoms: C_10  and  C_11
REMARK    6  A    between atoms: C_11  and  C_12
REMARK    7  A    between atoms: C_12  and  C_13
REMARK    8  A    between atoms: C_15  and  C_16
REMARK                            x       y       z     vdW  Elec       q    Type
REMARK                         _______ _______ _______ _____ _____    ______ ____
ROOT
ATOM      1  C   UNL     1       1.594   8.220  20.088  0.00  0.00    +0.000 C 
ENDROOT
BRANCH   1   2
ATOM      2  C   UNL     1       2.350   6.907  19.809  0.00  0.00    +0.000 C 
BRANCH   2   5
ATOM      3  C   UNL     1       4.431   5.698  18.247  0.00  0.00    +0.000 C 
ATOM      4  C   UNL     1       3.774   7.020  17.787  0.00  0.00    +0.000 C 
ATOM      5  N   UNL     1       2.482   6.574  18.378  0.00  0.00    +0.000 NA
ATOM      6  C   UNL     1       2.978   5.168  18.189  0.00  0.00    +0.000 C 
BRANCH   3  12
ATOM      7  C   UNL     1       6.149   3.888  14.058  0.00  0.00    +0.000 C 
ATOM      8  C   UNL     1       6.132   4.414  15.445  0.00  0.00    +0.000 A 
ATOM      9  C   UNL     1       7.244   4.672  16.273  0.00  0.00    +0.000 A 
ATOM     10  C   UNL     1       6.718   5.165  17.446  0.00  0.00    +0.000 A 
ATOM     11  C   UNL     1       7.408   5.632  18.673  0.00  0.00    +0.000 C 
ATOM     12  N   UNL     1       5.349   5.178  17.267  0.00  0.00    +0.000 N 
ATOM     13  N   UNL     1       4.982   4.715  16.053  0.00  0.00    +0.000 NA
ENDBRANCH   3  12
ENDBRANCH   2   5
ENDBRANCH   1   2
BRANCH   1  14
ATOM     14  C   UNL     1       0.893   8.264  21.445  0.00  0.00    +0.000 C 
BRANCH  14  15
ATOM     15  C   UNL     1       0.393   9.632  21.756  0.00  0.00    +0.000 A 
ATOM     16  N   UNL     1      -0.597  10.037  22.521  0.00  0.00    +0.000 NA
ATOM     17  C   UNL     1      -0.551  11.414  22.369  0.00  0.00    +0.000 A 
ATOM     18  N   UNL     1       0.435  11.827  21.554  0.00  0.00    +0.000 NA
ATOM     19  O   UNL     1       1.054  10.655  21.148  0.00  0.00    +0.000 OA
BRANCH  17  20
ATOM     20  C   UNL     1      -1.478  12.338  23.027  0.00  0.00    +0.000 A 
ATOM     21  C   UNL     1      -2.785  11.951  23.358  0.00  0.00    +0.000 A 
ATOM     22  C   UNL     1      -3.656  12.849  23.988  0.00  0.00    +0.000 A 
ATOM     23  C   UNL     1      -3.234  14.142  24.294  0.00  0.00    +0.000 A 
ATOM     24  C   UNL     1      -1.942  14.544  23.971  0.00  0.00    +0.000 A 
ATOM     25  C   UNL     1      -1.071  13.648  23.342  0.00  0.00    +0.000 A 
ENDBRANCH  17  20
ENDBRANCH  14  15
ENDBRANCH   1  14
TORSDOF 6
ENDMDL
MODEL 2
REMARK VINA RESULT:      -7.3      3.920      9.435
REMARK  Name = 
REMARK  8 active torsions:
REMARK  status: ('A' for Active; 'I' for Inactive)
REMARK    1  A    between atoms: C_1  and  C_2
REMARK    2  A    between atoms: C_4  and  C_5
REMARK    3  A    between atoms: N_6  and  C_7
REMARK    4  A    between atoms: N_9  and  C_10
REMARK    5  A    between atoms: C_10  and  C_11
REMARK    6  A    between atoms: C_11  and  C_12
REMARK    7  A    between atoms: C_12  and  C_13
REMARK    8  A    between atoms: C_15  and  C_16
REMARK                            x       y       z     vdW  Elec       q    Type
REMARK                         _______ _______ _______ _____ _____    ______ ____
ROOT
ATOM      1  C   UNL     1       0.127   9.174  20.640  0.00  0.00    +0.000 C 
ENDROOT
BRANCH   1   2
ATOM      2  C   UNL     1       0.702  10.562  20.299  0.00  0.00    +0.000 C 
BRANCH   2   5
ATOM      3  C   UNL     1      -1.535  10.722  18.508  0.00  0.00    +0.000 C 
ATOM      4  C   UNL     1      -0.244   9.980  18.086  0.00  0.00    +0.000 C 
ATOM      5  N   UNL     1       0.561  10.947  18.882  0.00  0.00    +0.000 NA
ATOM      6  C   UNL     1      -0.569  11.918  18.690  0.00  0.00    +0.000 C 
BRANCH   3  12
ATOM      7  C   UNL     1      -3.622  10.080  14.148  0.00  0.00    +0.000 C 
ATOM      8  C   UNL     1      -3.432  10.531  15.548  0.00  0.00    +0.000 A 
ATOM      9  C   UNL     1      -4.361  11.219  16.356  0.00  0.00    +0.000 A 
ATOM     10  C   UNL     1      -3.730  11.394  17.568  0.00  0.00    +0.000 A 
ATOM     11  C   UNL     1      -4.227  12.030  18.813  0.00  0.00    +0.000 C 
ATOM     12  N   UNL     1      -2.485  10.815  17.430  0.00  0.00    +0.000 N 
ATOM     13  N   UNL     1      -2.290  10.293  16.200  0.00  0.00    +0.000 NA
ENDBRANCH   3  12
ENDBRANCH   2   5
ENDBRANCH   1   2
BRANCH   1  14
ATOM     14  C   UNL     1       1.082   8.275  21.422  0.00  0.00    +0.000 C 
BRANCH  14  15
ATOM     15  C   UNL     1       1.768   7.301  20.528  0.00  0.00    +0.000 A 
ATOM     16  N   UNL     1       2.534   7.486  19.475  0.00  0.00    +0.000 NA
ATOM     17  C   UNL     1       2.833   6.189  19.089  0.00  0.00    +0.000 A 
ATOM     18  N   UNL     1       2.281   5.256  19.883  0.00  0.00    +0.000 NA
ATOM     19  O   UNL     1       1.578   5.987  20.828  0.00  0.00    +0.000 OA
BRANCH  17  20
ATOM     20  C   UNL     1       3.669   5.855  17.932  0.00  0.00    +0.000 A 
ATOM     21  C   UNL     1       3.759   4.540  17.451  0.00  0.00    +0.000 A 
ATOM     22  C   UNL     1       4.563   4.241  16.344  0.00  0.00    +0.000 A 
ATOM     23  C   UNL     1       5.285   5.249  15.705  0.00  0.00    +0.000 A 
ATOM     24  C   UNL     1       5.209   6.557  16.171  0.00  0.00    +0.000 A 
ATOM     25  C   UNL     1       4.406   6.857  17.276  0.00  0.00    +0.000 A 
ENDBRANCH  17  20
ENDBRANCH  14  15
ENDBRANCH   1  14
TORSDOF 6
ENDMDL
MODEL 3
REMARK VINA RESULT:      -7.3      3.437      3.809
REMARK  Name = 
REMARK  8 active torsions:
REMARK  status: ('A' for Active; 'I' for Inactive)
REMARK    1  A    between atoms: C_1  and  C_2
REMARK    2  A    between atoms: C_4  and  C_5
REMARK    3  A    between atoms: N_6  and  C_7
REMARK    4  A    between atoms: N_9  and  C_10
REMARK    5  A    between atoms: C_10  and  C_11
REMARK    6  A    between atoms: C_11  and  C_12
REMARK    7  A    between atoms: C_12  and  C_13
REMARK    8  A    between atoms: C_15  and  C_16
REMARK                            x       y       z     vdW  Elec       q    Type
REMARK                         _______ _______ _______ _____ _____    ______ ____
ROOT
ATOM      1  C   UNL     1       1.702   5.042  20.055  0.00  0.00    +0.000 C 
ENDROOT
BRANCH   1   2
ATOM      2  C   UNL     1       2.494   3.728  19.910  0.00  0.00    +0.000 C 
BRANCH   2   5
ATOM      3  C   UNL     1       4.573   4.040  17.957  0.00  0.00    +0.000 C 
ATOM      4  C   UNL     1       3.100   4.343  17.590  0.00  0.00    +0.000 C 
ATOM      5  N   UNL     1       2.657   3.267  18.519  0.00  0.00    +0.000 NA
ATOM      6  C   UNL     1       4.006   2.642  18.306  0.00  0.00    +0.000 C 
BRANCH   3  12
ATOM      7  C   UNL     1       6.139   3.831  13.344  0.00  0.00    +0.000 C 
ATOM      8  C   UNL     1       6.148   4.063  14.809  0.00  0.00    +0.000 A 
ATOM      9  C   UNL     1       7.193   4.616  15.577  0.00  0.00    +0.000 A 
ATOM     10  C   UNL     1       6.719   4.643  16.870  0.00  0.00    +0.000 A 
ATOM     11  C   UNL     1       7.367   5.142  18.108  0.00  0.00    +0.000 C 
ATOM     12  N   UNL     1       5.444   4.118  16.813  0.00  0.00    +0.000 N 
ATOM     13  N   UNL     1       5.090   3.754  15.562  0.00  0.00    +0.000 NA
ENDBRANCH   3  12
ENDBRANCH   2   5
ENDBRANCH   1   2
BRANCH   1  14
ATOM     14  C   UNL     1       2.553   6.246  20.455  0.00  0.00    +0.000 C 
BRANCH  14  15
ATOM     15  C   UNL     1       2.173   7.461  19.683  0.00  0.00    +0.000 A 
ATOM     16  N   UNL     1       1.360   8.452  19.976  0.00  0.00    +0.000 NA
ATOM     17  C   UNL     1       1.430   9.245  18.842  0.00  0.00    +0.000 A 
ATOM     18  N   UNL     1       2.261   8.761  17.904  0.00  0.00    +0.000 NA
ATOM     19  O   UNL     1       2.747   7.585  18.455  0.00  0.00    +0.000 OA
BRANCH  17  20
ATOM     20  C   UNL     1       0.678  10.492  18.671  0.00  0.00    +0.000 A 
ATOM     21  C   UNL     1      -0.694  10.484  18.383  0.00  0.00    +0.000 A 
ATOM     22  C   UNL     1      -1.395  11.686  18.224  0.00  0.00    +0.000 A 
ATOM     23  C   UNL     1      -0.736  12.909  18.351  0.00  0.00    +0.000 A 
ATOM     24  C   UNL     1       0.626  12.934  18.634  0.00  0.00    +0.000 A 
ATOM     25  C   UNL     1       1.327  11.734  18.793  0.00  0.00    +0.000 A 
ENDBRANCH  17  20
ENDBRANCH  14  15
ENDBRANCH   1  14
TORSDOF 6
ENDMDL
MODEL 4
REMARK VINA RESULT:      -7.2      6.950     10.117
REMARK  Name = 
REMARK  8 active torsions:
REMARK  status: ('A' for Active; 'I' for Inactive)
REMARK    1  A    between atoms: C_1  and  C_2
REMARK    2  A    between atoms: C_4  and  C_5
REMARK    3  A    between atoms: N_6  and  C_7
REMARK    4  A    between atoms: N_9  and  C_10
REMARK    5  A    between atoms: C_10  and  C_11
REMARK    6  A    between atoms: C_11  and  C_12
REMARK    7  A    between atoms: C_12  and  C_13
REMARK    8  A    between atoms: C_15  and  C_16
REMARK                            x       y       z     vdW  Elec       q    Type
REMARK                         _______ _______ _______ _____ _____    ______ ____
ROOT
ATOM      1  C   UNL     1       7.695   8.948  17.760  0.00  0.00    +0.000 C 
ENDROOT
BRANCH   1   2
ATOM      2  C   UNL     1       8.739   9.639  18.658  0.00  0.00    +0.000 C 
BRANCH   2   5
ATOM      3  C   UNL     1       9.378  12.361  19.303  0.00  0.00    +0.000 C 
ATOM      4  C   UNL     1       8.827  11.996  17.904  0.00  0.00    +0.000 C 
ATOM      5  N   UNL     1       9.528  10.684  17.980  0.00  0.00    +0.000 NA
ATOM      6  C   UNL     1      10.486  11.346  18.929  0.00  0.00    +0.000 C 
BRANCH   3  12
ATOM      7  C   UNL     1      10.610  16.884  17.959  0.00  0.00    +0.000 C 
ATOM      8  C   UNL     1      10.283  15.731  18.833  0.00  0.00    +0.000 A 
ATOM      9  C   UNL     1      10.159  15.734  20.239  0.00  0.00    +0.000 A 
ATOM     10  C   UNL     1       9.828  14.441  20.578  0.00  0.00    +0.000 A 
ATOM     11  C   UNL     1       9.548  13.852  21.910  0.00  0.00    +0.000 C 
ATOM     12  N   UNL     1       9.770  13.745  19.388  0.00  0.00    +0.000 N 
ATOM     13  N   UNL     1      10.053  14.520  18.319  0.00  0.00    +0.000 NA
ENDBRANCH   3  12
ENDBRANCH   2   5
ENDBRANCH   1   2
BRANCH   1  14
ATOM     14  C   UNL     1       8.005   7.485  17.449  0.00  0.00    +0.000 C 
BRANCH  14  15
ATOM     15  C   UNL     1       6.988   6.575  18.044  0.00  0.00    +0.000 A 
ATOM     16  N   UNL     1       5.762   6.284  17.667  0.00  0.00    +0.000 NA
ATOM     17  C   UNL     1       5.348   5.396  18.647  0.00  0.00    +0.000 A 
ATOM     18  N   UNL     1       6.288   5.150  19.575  0.00  0.00    +0.000 NA
ATOM     19  O   UNL     1       7.366   5.928  19.181  0.00  0.00    +0.000 OA
BRANCH  17  20
ATOM     20  C   UNL     1       4.019   4.779  18.679  0.00  0.00    +0.000 A 
ATOM     21  C   UNL     1       3.017   5.153  17.771  0.00  0.00    +0.000 A 
ATOM     22  C   UNL     1       1.753   4.551  17.817  0.00  0.00    +0.000 A 
ATOM     23  C   UNL     1       1.474   3.570  18.769  0.00  0.00    +0.000 A 
ATOM     24  C   UNL     1       2.456   3.189  19.678  0.00  0.00    +0.000 A 
ATOM     25  C   UNL     1       3.718   3.790  19.633  0.00  0.00    +0.000 A 
ENDBRANCH  17  20
ENDBRANCH  14  15
ENDBRANCH   1  14
TORSDOF 6
ENDMDL
MODEL 5
REMARK VINA RESULT:      -7.1      6.731     10.302
REMARK  Name = 
REMARK  8 active torsions:
REMARK  status: ('A' for Active; 'I' for Inactive)
REMARK    1  A    between atoms: C_1  and  C_2
REMARK    2  A    between atoms: C_4  and  C_5
REMARK    3  A    between atoms: N_6  and  C_7
REMARK    4  A    between atoms: N_9  and  C_10
REMARK    5  A    between atoms: C_10  and  C_11
REMARK    6  A    between atoms: C_11  and  C_12
REMARK    7  A    between atoms: C_12  and  C_13
REMARK    8  A    between atoms: C_15  and  C_16
REMARK                            x       y       z     vdW  Elec       q    Type
REMARK                         _______ _______ _______ _____ _____    ______ ____
ROOT
ATOM      1  C   UNL     1       8.176   8.450  17.471  0.00  0.00    +0.000 C 
ENDROOT
BRANCH   1   2
ATOM      2  C   UNL     1       8.223   9.742  18.309  0.00  0.00    +0.000 C 
BRANCH   2   5
ATOM      3  C   UNL     1       9.242  12.170  19.450  0.00  0.00    +0.000 C 
ATOM      4  C   UNL     1       9.801  11.639  18.108  0.00  0.00    +0.000 C 
ATOM      5  N   UNL     1       9.583  10.243  18.580  0.00  0.00    +0.000 NA
ATOM      6  C   UNL     1       9.696  10.786  19.976  0.00  0.00    +0.000 C 
BRANCH   3  12
ATOM      7  C   UNL     1      12.326  15.946  19.545  0.00  0.00    +0.000 C 
ATOM      8  C   UNL     1      11.288  14.984  19.989  0.00  0.00    +0.000 A 
ATOM      9  C   UNL     1      10.549  15.021  21.190  0.00  0.00    +0.000 A 
ATOM     10  C   UNL     1       9.705  13.934  21.131  0.00  0.00    +0.000 A 
ATOM     11  C   UNL     1       8.679  13.477  22.100  0.00  0.00    +0.000 C 
ATOM     12  N   UNL     1       9.973  13.316  19.927  0.00  0.00    +0.000 N 
ATOM     13  N   UNL     1      10.941  13.943  19.226  0.00  0.00    +0.000 NA
ENDBRANCH   3  12
ENDBRANCH   2   5
ENDBRANCH   1   2
BRANCH   1  14
ATOM     14  C   UNL     1       7.917   7.184  18.285  0.00  0.00    +0.000 C 
BRANCH  14  15
ATOM     15  C   UNL     1       6.676   6.494  17.838  0.00  0.00    +0.000 A 
ATOM     16  N   UNL     1       5.888   5.642  18.459  0.00  0.00    +0.000 NA
ATOM     17  C   UNL     1       4.929   5.364  17.499  0.00  0.00    +0.000 A 
ATOM     18  N   UNL     1       5.119   6.029  16.347  0.00  0.00    +0.000 NA
ATOM     19  O   UNL     1       6.270   6.769  16.568  0.00  0.00    +0.000 OA
BRANCH  17  20
ATOM     20  C   UNL     1       3.810   4.440  17.708  0.00  0.00    +0.000 A 
ATOM     21  C   UNL     1       3.990   3.050  17.650  0.00  0.00    +0.000 A 
ATOM     22  C   UNL     1       2.909   2.183  17.853  0.00  0.00    +0.000 A 
ATOM     23  C   UNL     1       1.638   2.692  18.115  0.00  0.00    +0.000 A 
ATOM     24  C   UNL     1       1.441   4.068  18.174  0.00  0.00    +0.000 A 
ATOM     25  C   UNL     1       2.520   4.935  17.972  0.00  0.00    +0.000 A 
ENDBRANCH  17  20
ENDBRANCH  14  15
ENDBRANCH   1  14
TORSDOF 6
ENDMDL
MODEL 6
REMARK VINA RESULT:      -7.1      3.976     10.352
REMARK  Name = 
REMARK  8 active torsions:
REMARK  status: ('A' for Active; 'I' for Inactive)
REMARK    1  A    between atoms: C_1  and  C_2
REMARK    2  A    between atoms: C_4  and  C_5
REMARK    3  A    between atoms: N_6  and  C_7
REMARK    4  A    between atoms: N_9  and  C_10
REMARK    5  A    between atoms: C_10  and  C_11
REMARK    6  A    between atoms: C_11  and  C_12
REMARK    7  A    between atoms: C_12  and  C_13
REMARK    8  A    between atoms: C_15  and  C_16
REMARK                            x       y       z     vdW  Elec       q    Type
REMARK                         _______ _______ _______ _____ _____    ______ ____
ROOT
ATOM      1  C   UNL     1       0.870   9.637  18.092  0.00  0.00    +0.000 C 
ENDROOT
BRANCH   1   2
ATOM      2  C   UNL     1       0.854  11.038  18.731  0.00  0.00    +0.000 C 
BRANCH   2   5
ATOM      3  C   UNL     1      -1.925  11.323  18.075  0.00  0.00    +0.000 C 
ATOM      4  C   UNL     1      -1.208  12.393  18.933  0.00  0.00    +0.000 C 
ATOM      5  N   UNL     1      -0.352  11.330  19.528  0.00  0.00    +0.000 NA
ATOM      6  C   UNL     1      -1.464  10.372  19.205  0.00  0.00    +0.000 C 
BRANCH   3  12
ATOM      7  C   UNL     1      -6.442  12.754  19.230  0.00  0.00    +0.000 C 
ATOM      8  C   UNL     1      -5.314  12.207  18.436  0.00  0.00    +0.000 A 
ATOM      9  C   UNL     1      -5.340  11.799  17.086  0.00  0.00    +0.000 A 
ATOM     10  C   UNL     1      -4.055  11.389  16.805  0.00  0.00    +0.000 A 
ATOM     11  C   UNL     1      -3.478  10.881  15.537  0.00  0.00    +0.000 C 
ATOM     12  N   UNL     1      -3.340  11.569  17.972  0.00  0.00    +0.000 N 
ATOM     13  N   UNL     1      -4.100  12.059  18.974  0.00  0.00    +0.000 NA
ENDBRANCH   3  12
ENDBRANCH   2   5
ENDBRANCH   1   2
BRANCH   1  14
ATOM     14  C   UNL     1       2.270   9.080  17.838  0.00  0.00    +0.000 C 
BRANCH  14  15
ATOM     15  C   UNL     1       2.422   7.711  18.404  0.00  0.00    +0.000 A 
ATOM     16  N   UNL     1       2.739   6.569  17.833  0.00  0.00    +0.000 NA
ATOM     17  C   UNL     1       2.692   5.679  18.893  0.00  0.00    +0.000 A 
ATOM     18  N   UNL     1       2.371   6.258  20.062  0.00  0.00    +0.000 NA
ATOM     19  O   UNL     1       2.190   7.594  19.741  0.00  0.00    +0.000 OA
BRANCH  17  20
ATOM     20  C   UNL     1       2.964   4.244  18.765  0.00  0.00    +0.000 A 
ATOM     21  C   UNL     1       2.386   3.478  17.743  0.00  0.00    +0.000 A 
ATOM     22  C   UNL     1       2.658   2.109  17.637  0.00  0.00    +0.000 A 
ATOM     23  C   UNL     1       3.511   1.487  18.550  0.00  0.00    +0.000 A 
ATOM     24  C   UNL     1       4.092   2.232  19.572  0.00  0.00    +0.000 A 
ATOM     25  C   UNL     1       3.819   3.600  19.678  0.00  0.00    +0.000 A 
ENDBRANCH  17  20
ENDBRANCH  14  15
ENDBRANCH   1  14
TORSDOF 6
ENDMDL
MODEL 7
REMARK VINA RESULT:      -7.1      2.488      4.246
REMARK  Name = 
REMARK  8 active torsions:
REMARK  status: ('A' for Active; 'I' for Inactive)
REMARK    1  A    between atoms: C_1  and  C_2
REMARK    2  A    between atoms: C_4  and  C_5
REMARK    3  A    between atoms: N_6  and  C_7
REMARK    4  A    between atoms: N_9  and  C_10
REMARK    5  A    between atoms: C_10  and  C_11
REMARK    6  A    between atoms: C_11  and  C_12
REMARK    7  A    between atoms: C_12  and  C_13
REMARK    8  A    between atoms: C_15  and  C_16
REMARK                            x       y       z     vdW  Elec       q    Type
REMARK                         _______ _______ _______ _____ _____    ______ ____
ROOT
ATOM      1  C   UNL     1       4.132   6.185  18.142  0.00  0.00    +0.000 C 
ENDROOT
BRANCH   1   2
ATOM      2  C   UNL     1       5.608   5.837  17.869  0.00  0.00    +0.000 C 
BRANCH   2   5
ATOM      3  C   UNL     1       6.146   4.996  15.179  0.00  0.00    +0.000 C 
ATOM      4  C   UNL     1       5.017   4.328  15.998  0.00  0.00    +0.000 C 
ATOM      5  N   UNL     1       5.816   4.519  17.240  0.00  0.00    +0.000 NA
ATOM      6  C   UNL     1       7.031   4.522  16.358  0.00  0.00    +0.000 C 
BRANCH   3  12
ATOM      7  C   UNL     1       5.458   2.064  11.344  0.00  0.00    +0.000 C 
ATOM      8  C   UNL     1       6.067   3.100  12.214  0.00  0.00    +0.000 A 
ATOM      9  C   UNL     1       7.163   3.934  11.908  0.00  0.00    +0.000 A 
ATOM     10  C   UNL     1       7.334   4.732  13.017  0.00  0.00    +0.000 A 
ATOM     11  C   UNL     1       8.316   5.816  13.264  0.00  0.00    +0.000 C 
ATOM     12  N   UNL     1       6.355   4.347  13.911  0.00  0.00    +0.000 N 
ATOM     13  N   UNL     1       5.582   3.348  13.434  0.00  0.00    +0.000 NA
ENDBRANCH   3  12
ENDBRANCH   2   5
ENDBRANCH   1   2
BRANCH   1  14
ATOM     14  C   UNL     1       3.587   7.323  17.281  0.00  0.00    +0.000 C 
BRANCH  14  15
ATOM     15  C   UNL     1       2.631   8.173  18.044  0.00  0.00    +0.000 A 
ATOM     16  N   UNL     1       2.258   8.136  19.304  0.00  0.00    +0.000 NA
ATOM     17  C   UNL     1       1.341   9.173  19.377  0.00  0.00    +0.000 A 
ATOM     18  N   UNL     1       1.174   9.819  18.211  0.00  0.00    +0.000 NA
ATOM     19  O   UNL     1       2.019   9.160  17.333  0.00  0.00    +0.000 OA
BRANCH  17  20
ATOM     20  C   UNL     1       0.619   9.538  20.600  0.00  0.00    +0.000 A 
ATOM     21  C   UNL     1       0.167   8.563  21.501  0.00  0.00    +0.000 A 
ATOM     22  C   UNL     1      -0.520   8.933  22.664  0.00  0.00    +0.000 A 
ATOM     23  C   UNL     1      -0.765  10.278  22.941  0.00  0.00    +0.000 A 
ATOM     24  C   UNL     1      -0.325  11.257  22.056  0.00  0.00    +0.000 A 
ATOM     25  C   UNL     1       0.361  10.889  20.895  0.00  0.00    +0.000 A 
ENDBRANCH  17  20
ENDBRANCH  14  15
ENDBRANCH   1  14
TORSDOF 6
ENDMDL
MODEL 8
REMARK VINA RESULT:      -7.0      1.240      1.723
REMARK  Name = 
REMARK  8 active torsions:
REMARK  status: ('A' for Active; 'I' for Inactive)
REMARK    1  A    between atoms: C_1  and  C_2
REMARK    2  A    between atoms: C_4  and  C_5
REMARK    3  A    between atoms: N_6  and  C_7
REMARK    4  A    between atoms: N_9  and  C_10
REMARK    5  A    between atoms: C_10  and  C_11
REMARK    6  A    between atoms: C_11  and  C_12
REMARK    7  A    between atoms: C_12  and  C_13
REMARK    8  A    between atoms: C_15  and  C_16
REMARK                            x       y       z     vdW  Elec       q    Type
REMARK                         _______ _______ _______ _____ _____    ______ ____
ROOT
ATOM      1  C   UNL     1       1.984   6.375  20.753  0.00  0.00    +0.000 C 
ENDROOT
BRANCH   1   2
ATOM      2  C   UNL     1       2.382   5.190  19.852  0.00  0.00    +0.000 C 
BRANCH   2   5
ATOM      3  C   UNL     1       4.433   4.550  17.951  0.00  0.00    +0.000 C 
ATOM      4  C   UNL     1       3.988   6.017  18.160  0.00  0.00    +0.000 C 
ATOM      5  N   UNL     1       2.603   5.548  18.439  0.00  0.00    +0.000 NA
ATOM      6  C   UNL     1       2.937   4.337  17.615  0.00  0.00    +0.000 C 
BRANCH   3  12
ATOM      7  C   UNL     1       6.186   3.856  13.454  0.00  0.00    +0.000 C 
ATOM      8  C   UNL     1       6.158   4.145  14.908  0.00  0.00    +0.000 A 
ATOM      9  C   UNL     1       7.244   4.526  15.724  0.00  0.00    +0.000 A 
ATOM     10  C   UNL     1       6.712   4.696  16.983  0.00  0.00    +0.000 A 
ATOM     11  C   UNL     1       7.372   5.118  18.242  0.00  0.00    +0.000 C 
ATOM     12  N   UNL     1       5.366   4.416  16.862  0.00  0.00    +0.000 N 
ATOM     13  N   UNL     1       5.020   4.071  15.603  0.00  0.00    +0.000 NA
ENDBRANCH   3  12
ENDBRANCH   2   5
ENDBRANCH   1   2
BRANCH   1  14
ATOM     14  C   UNL     1       1.838   7.704  20.014  0.00  0.00    +0.000 C 
BRANCH  14  15
ATOM     15  C   UNL     1       1.105   8.706  20.835  0.00  0.00    +0.000 A 
ATOM     16  N   UNL     1       0.112   9.513  20.531  0.00  0.00    +0.000 NA
ATOM     17  C   UNL     1      -0.096  10.196  21.719  0.00  0.00    +0.000 A 
ATOM     18  N   UNL     1       0.729   9.811  22.706  0.00  0.00    +0.000 NA
ATOM     19  O   UNL     1       1.522   8.833  22.125  0.00  0.00    +0.000 OA
BRANCH  17  20
ATOM     20  C   UNL     1      -1.114  11.237  21.893  0.00  0.00    +0.000 A 
ATOM     21  C   UNL     1      -1.492  12.075  20.834  0.00  0.00    +0.000 A 
ATOM     22  C   UNL     1      -2.466  13.063  21.021  0.00  0.00    +0.000 A 
ATOM     23  C   UNL     1      -3.074  13.227  22.265  0.00  0.00    +0.000 A 
ATOM     24  C   UNL     1      -2.709  12.405  23.327  0.00  0.00    +0.000 A 
ATOM     25  C   UNL     1      -1.736  11.419  23.142  0.00  0.00    +0.000 A 
ENDBRANCH  17  20
ENDBRANCH  14  15
ENDBRANCH   1  14
TORSDOF 6
ENDMDL
MODEL 9
REMARK VINA RESULT:      -6.9      3.085      3.783
REMARK  Name = 
REMARK  8 active torsions:
REMARK  status: ('A' for Active; 'I' for Inactive)
REMARK    1  A    between atoms: C_1  and  C_2
REMARK    2  A    between atoms: C_4  and  C_5
REMARK    3  A    between atoms: N_6  and  C_7
REMARK    4  A    between atoms: N_9  and  C_10
REMARK    5  A    between atoms: C_10  and  C_11
REMARK    6  A    between atoms: C_11  and  C_12
REMARK    7  A    between atoms: C_12  and  C_13
REMARK    8  A    between atoms: C_15  and  C_16
REMARK                            x       y       z     vdW  Elec       q    Type
REMARK                         _______ _______ _______ _____ _____    ______ ____
ROOT
ATOM      1  C   UNL     1       1.256   7.281  20.756  0.00  0.00    +0.000 C 
ENDROOT
BRANCH   1   2
ATOM      2  C   UNL     1       2.534   6.563  20.282  0.00  0.00    +0.000 C 
BRANCH   2   5
ATOM      3  C   UNL     1       4.532   5.549  18.488  0.00  0.00    +0.000 C 
ATOM      4  C   UNL     1       3.627   6.732  18.067  0.00  0.00    +0.000 C 
ATOM      5  N   UNL     1       2.512   6.152  18.866  0.00  0.00    +0.000 NA
ATOM      6  C   UNL     1       3.179   4.820  18.674  0.00  0.00    +0.000 C 
BRANCH   3  12
ATOM      7  C   UNL     1       5.908   3.970  14.085  0.00  0.00    +0.000 C 
ATOM      8  C   UNL     1       6.003   4.432  15.491  0.00  0.00    +0.000 A 
ATOM      9  C   UNL     1       7.179   4.679  16.231  0.00  0.00    +0.000 A 
ATOM     10  C   UNL     1       6.748   5.106  17.467  0.00  0.00    +0.000 A 
ATOM     11  C   UNL     1       7.535   5.533  18.650  0.00  0.00    +0.000 C 
ATOM     12  N   UNL     1       5.369   5.095  17.409  0.00  0.00    +0.000 N 
ATOM     13  N   UNL     1       4.905   4.679  16.211  0.00  0.00    +0.000 NA
ENDBRANCH   3  12
ENDBRANCH   2   5
ENDBRANCH   1   2
BRANCH   1  14
ATOM     14  C   UNL     1       1.435   8.777  21.007  0.00  0.00    +0.000 C 
BRANCH  14  15
ATOM     15  C   UNL     1       0.387   9.575  20.312  0.00  0.00    +0.000 A 
ATOM     16  N   UNL     1      -0.371   9.290  19.276  0.00  0.00    +0.000 NA
ATOM     17  C   UNL     1      -1.114  10.449  19.118  0.00  0.00    +0.000 A 
ATOM     18  N   UNL     1      -0.826  11.394  20.028  0.00  0.00    +0.000 NA
ATOM     19  O   UNL     1       0.163  10.822  20.812  0.00  0.00    +0.000 OA
BRANCH  17  20
ATOM     20  C   UNL     1      -2.118  10.637  18.066  0.00  0.00    +0.000 A 
ATOM     21  C   UNL     1      -3.255  11.431  18.274  0.00  0.00    +0.000 A 
ATOM     22  C   UNL     1      -4.203  11.599  17.257  0.00  0.00    +0.000 A 
ATOM     23  C   UNL     1      -4.027  10.976  16.021  0.00  0.00    +0.000 A 
ATOM     24  C   UNL     1      -2.906  10.183  15.799  0.00  0.00    +0.000 A 
ATOM     25  C   UNL     1      -1.959  10.015  16.814  0.00  0.00    +0.000 A 
ENDBRANCH  17  20
ENDBRANCH  14  15
ENDBRANCH   1  14
TORSDOF 6
ENDMDL
