MODEL 1
REMARK VINA RESULT:      -7.9      0.000      0.000
REMARK  Name = 
REMARK  8 active torsions:
REMARK  status: ('A' for Active; 'I' for Inactive)
REMARK    1  A    between atoms: C_1  and  C_2
REMARK    2  A    between atoms: N_4  and  C_5
REMARK    3  A    between atoms: C_10  and  C_11
REMARK    4  A    between atoms: N_19  and  C_20
REMARK    5  A    between atoms: C_20  and  C_21
REMARK    6  A    between atoms: C_20  and  C_22
REMARK    7  A    between atoms: N_24  and  C_25
REMARK    8  A    between atoms: C_30  and  C_31
REMARK                            x       y       z     vdW  Elec       q    Type
REMARK                         _______ _______ _______ _____ _____    ______ ____
ROOT
ATOM      1  C   UNL     1      -1.619  12.986  19.686  0.00  0.00    +0.000 A 
ATOM      2  N   UNL     1      -2.793  12.464  19.395  0.00  0.00    +0.000 NA
ATOM      3  C   UNL     1      -2.816  11.536  18.330  0.00  0.00    +0.000 A 
ATOM      4  C   UNL     1      -4.049  11.081  17.860  0.00  0.00    +0.000 A 
ATOM      5  C   UNL     1      -4.101  10.020  16.952  0.00  0.00    +0.000 A 
ATOM      6  C   UNL     1      -2.922   9.402  16.529  0.00  0.00    +0.000 A 
ATOM      7  C   UNL     1      -1.678   9.840  16.994  0.00  0.00    +0.000 A 
ATOM      8  C   UNL     1      -1.625  10.910  17.887  0.00  0.00    +0.000 A 
ATOM      9  N   UNL     1      -0.365  11.441  18.333  0.00  0.00    +0.000 N 
ATOM     10  C   UNL     1      -0.470  12.770  18.720  0.00  0.00    +0.000 A 
ATOM     11  O   UNL     1       0.231  13.685  18.324  0.00  0.00    +0.000 OA
ENDROOT
BRANCH   1  17
ATOM     12  C   UNL     1      -1.385  14.951  21.244  0.00  0.00    +0.000 A 
ATOM     13  C   UNL     1      -1.357  15.454  22.552  0.00  0.00    +0.000 A 
ATOM     14  C   UNL     1      -1.261  14.589  23.643  0.00  0.00    +0.000 A 
ATOM     15  C   UNL     1      -1.141  13.221  23.436  0.00  0.00    +0.000 A 
ATOM     16  C   UNL     1      -1.150  12.712  22.138  0.00  0.00    +0.000 A 
ATOM     17  C   UNL     1      -1.314  13.561  21.030  0.00  0.00    +0.000 A 
BRANCH  12  21
ATOM     18  C   UNL     1      -1.040  17.421  18.445  0.00  0.00    +0.000 C 
ATOM     19  C   UNL     1      -0.585  16.621  19.637  0.00  0.00    +0.000 C 
ATOM     20  O   UNL     1       0.578  16.651  20.024  0.00  0.00    +0.000 OA
ATOM     21  N   UNL     1      -1.589  15.835  20.162  0.00  0.00    +0.000 N 
ATOM     22  H   UNL     1      -2.294  15.529  19.489  0.00  0.00    +0.000 HD
ENDBRANCH  12  21
ENDBRANCH   1  17
BRANCH   9  23
ATOM     23  C   UNL     1       0.448  10.587  19.241  0.00  0.00    +0.000 C 
ATOM     24  C   UNL     1      -0.400   9.632  20.103  0.00  0.00    +0.000 C 
BRANCH  23  25
ATOM     25  C   UNL     1       1.506   9.728  18.478  0.00  0.00    +0.000 C 
ATOM     26  O   UNL     1       2.135  10.155  17.519  0.00  0.00    +0.000 OA
ATOM     27  N   UNL     1       1.670   8.475  19.044  0.00  0.00    +0.000 N 
ATOM     28  H   UNL     1       0.995   8.241  19.766  0.00  0.00    +0.000 HD
BRANCH  27  29
ATOM     29  C   UNL     1       2.595   7.469  18.707  0.00  0.00    +0.000 A 
ATOM     30  C   UNL     1       3.445   7.575  17.598  0.00  0.00    +0.000 A 
ATOM     31  C   UNL     1       4.374   6.570  17.306  0.00  0.00    +0.000 A 
ATOM     32  C   UNL     1       4.475   5.453  18.126  0.00  0.00    +0.000 A 
ATOM     33  C   UNL     1       3.638   5.334  19.232  0.00  0.00    +0.000 A 
ATOM     34  C   UNL     1       2.687   6.330  19.533  0.00  0.00    +0.000 A 
BRANCH  34  35
ATOM     35  C   UNL     1       1.765   6.080  20.701  0.00  0.00    +0.000 C 
ATOM     36  F   UNL     1       0.532   5.598  20.350  0.00  0.00    +0.000 F 
ATOM     37  F   UNL     1       2.270   5.169  21.579  0.00  0.00    +0.000 F 
ATOM     38  F   UNL     1       1.513   7.203  21.427  0.00  0.00    +0.000 F 
ENDBRANCH  34  35
ENDBRANCH  27  29
ENDBRANCH  23  25
ENDBRANCH   9  23
TORSDOF 6
ENDMDL
MODEL 2
REMARK VINA RESULT:      -7.8      2.816      5.071
REMARK  Name = 
REMARK  8 active torsions:
REMARK  status: ('A' for Active; 'I' for Inactive)
REMARK    1  A    between atoms: C_1  and  C_2
REMARK    2  A    between atoms: N_4  and  C_5
REMARK    3  A    between atoms: C_10  and  C_11
REMARK    4  A    between atoms: N_19  and  C_20
REMARK    5  A    between atoms: C_20  and  C_21
REMARK    6  A    between atoms: C_20  and  C_22
REMARK    7  A    between atoms: N_24  and  C_25
REMARK    8  A    between atoms: C_30  and  C_31
REMARK                            x       y       z     vdW  Elec       q    Type
REMARK                         _______ _______ _______ _____ _____    ______ ____
ROOT
ATOM      1  C   UNL     1      -1.472  11.947  18.659  0.00  0.00    +0.000 A 
ATOM      2  N   UNL     1      -0.972  13.133  18.378  0.00  0.00    +0.000 NA
ATOM      3  C   UNL     1       0.248  13.461  19.009  0.00  0.00    +0.000 A 
ATOM      4  C   UNL     1       0.739  14.763  18.890  0.00  0.00    +0.000 A 
ATOM      5  C   UNL     1       2.031  15.064  19.328  0.00  0.00    +0.000 A 
ATOM      6  C   UNL     1       2.840  14.060  19.866  0.00  0.00    +0.000 A 
ATOM      7  C   UNL     1       2.368  12.749  19.987  0.00  0.00    +0.000 A 
ATOM      8  C   UNL     1       1.072  12.452  19.565  0.00  0.00    +0.000 A 
ATOM      9  N   UNL     1       0.519  11.136  19.739  0.00  0.00    +0.000 N 
ATOM     10  C   UNL     1      -0.867  11.159  19.804  0.00  0.00    +0.000 A 
ATOM     11  O   UNL     1      -1.547  10.654  20.680  0.00  0.00    +0.000 OA
ENDROOT
BRANCH   1  17
ATOM     12  C   UNL     1      -3.783  11.638  17.707  0.00  0.00    +0.000 A 
ATOM     13  C   UNL     1      -4.608  11.166  16.677  0.00  0.00    +0.000 A 
ATOM     14  C   UNL     1      -4.100  10.318  15.692  0.00  0.00    +0.000 A 
ATOM     15  C   UNL     1      -2.779   9.894  15.756  0.00  0.00    +0.000 A 
ATOM     16  C   UNL     1      -1.954  10.343  16.787  0.00  0.00    +0.000 A 
ATOM     17  C   UNL     1      -2.430  11.251  17.749  0.00  0.00    +0.000 A 
BRANCH  12  21
ATOM     18  C   UNL     1      -5.634  13.438  20.426  0.00  0.00    +0.000 C 
ATOM     19  C   UNL     1      -5.328  12.295  19.494  0.00  0.00    +0.000 C 
ATOM     20  O   UNL     1      -5.923  11.226  19.574  0.00  0.00    +0.000 OA
ATOM     21  N   UNL     1      -4.291  12.577  18.632  0.00  0.00    +0.000 N 
ATOM     22  H   UNL     1      -3.599  13.238  18.991  0.00  0.00    +0.000 HD
ENDBRANCH  12  21
ENDBRANCH   1  17
BRANCH   9  23
ATOM     23  C   UNL     1       1.088  10.045  18.900  0.00  0.00    +0.000 C 
ATOM     24  C   UNL     1       2.268  10.503  18.021  0.00  0.00    +0.000 C 
BRANCH  23  25
ATOM     25  C   UNL     1       1.568   8.820  19.742  0.00  0.00    +0.000 C 
ATOM     26  O   UNL     1       1.470   8.780  20.962  0.00  0.00    +0.000 OA
ATOM     27  N   UNL     1       2.056   7.798  18.947  0.00  0.00    +0.000 N 
ATOM     28  H   UNL     1       2.168   8.035  17.967  0.00  0.00    +0.000 HD
BRANCH  27  29
ATOM     29  C   UNL     1       2.478   6.509  19.329  0.00  0.00    +0.000 A 
ATOM     30  C   UNL     1       1.911   5.826  20.412  0.00  0.00    +0.000 A 
ATOM     31  C   UNL     1       2.333   4.535  20.748  0.00  0.00    +0.000 A 
ATOM     32  C   UNL     1       3.317   3.905  19.997  0.00  0.00    +0.000 A 
ATOM     33  C   UNL     1       3.889   4.571  18.917  0.00  0.00    +0.000 A 
ATOM     34  C   UNL     1       3.486   5.876  18.573  0.00  0.00    +0.000 A 
BRANCH  34  35
ATOM     35  C   UNL     1       4.218   6.554  17.440  0.00  0.00    +0.000 C 
ATOM     36  F   UNL     1       4.454   5.746  16.361  0.00  0.00    +0.000 F 
ATOM     37  F   UNL     1       3.537   7.625  16.946  0.00  0.00    +0.000 F 
ATOM     38  F   UNL     1       5.443   7.023  17.806  0.00  0.00    +0.000 F 
ENDBRANCH  34  35
ENDBRANCH  27  29
ENDBRANCH  23  25
ENDBRANCH   9  23
TORSDOF 6
ENDMDL
MODEL 3
REMARK VINA RESULT:      -7.8      4.300      7.452
REMARK  Name = 
REMARK  8 active torsions:
REMARK  status: ('A' for Active; 'I' for Inactive)
REMARK    1  A    between atoms: C_1  and  C_2
REMARK    2  A    between atoms: N_4  and  C_5
REMARK    3  A    between atoms: C_10  and  C_11
REMARK    4  A    between atoms: N_19  and  C_20
REMARK    5  A    between atoms: C_20  and  C_21
REMARK    6  A    between atoms: C_20  and  C_22
REMARK    7  A    between atoms: N_24  and  C_25
REMARK    8  A    between atoms: C_30  and  C_31
REMARK                            x       y       z     vdW  Elec       q    Type
REMARK                         _______ _______ _______ _____ _____    ______ ____
ROOT
ATOM      1  C   UNL     1       2.221  13.679  19.031  0.00  0.00    +0.000 A 
ATOM      2  N   UNL     1       2.436  12.720  18.154  0.00  0.00    +0.000 NA
ATOM      3  C   UNL     1       2.036  11.421  18.540  0.00  0.00    +0.000 A 
ATOM      4  C   UNL     1       2.392  10.339  17.732  0.00  0.00    +0.000 A 
ATOM      5  C   UNL     1       1.846   9.077  17.976  0.00  0.00    +0.000 A 
ATOM      6  C   UNL     1       0.929   8.899  19.014  0.00  0.00    +0.000 A 
ATOM      7  C   UNL     1       0.556   9.973  19.830  0.00  0.00    +0.000 A 
ATOM      8  C   UNL     1       1.113  11.229  19.597  0.00  0.00    +0.000 A 
ATOM      9  N   UNL     1       0.816  12.343  20.456  0.00  0.00    +0.000 N 
ATOM     10  C   UNL     1       1.827  13.293  20.444  0.00  0.00    +0.000 A 
ATOM     11  O   UNL     1       2.382  13.756  21.425  0.00  0.00    +0.000 OA
ENDROOT
BRANCH   1  17
ATOM     12  C   UNL     1       3.090  15.707  17.815  0.00  0.00    +0.000 A 
ATOM     13  C   UNL     1       2.845  16.958  17.234  0.00  0.00    +0.000 A 
ATOM     14  C   UNL     1       1.638  17.621  17.456  0.00  0.00    +0.000 A 
ATOM     15  C   UNL     1       0.685  17.063  18.299  0.00  0.00    +0.000 A 
ATOM     16  C   UNL     1       0.925  15.826  18.897  0.00  0.00    +0.000 A 
ATOM     17  C   UNL     1       2.107  15.113  18.631  0.00  0.00    +0.000 A 
BRANCH  12  21
ATOM     18  C   UNL     1       6.555  14.282  17.678  0.00  0.00    +0.000 C 
ATOM     19  C   UNL     1       5.462  15.197  18.165  0.00  0.00    +0.000 C 
ATOM     20  O   UNL     1       5.641  15.967  19.102  0.00  0.00    +0.000 OA
ATOM     21  N   UNL     1       4.274  15.007  17.493  0.00  0.00    +0.000 N 
ATOM     22  H   UNL     1       4.126  14.061  17.136  0.00  0.00    +0.000 HD
ENDBRANCH  12  21
ENDBRANCH   1  17
BRANCH   9  23
ATOM     23  C   UNL     1      -0.564  12.898  20.394  0.00  0.00    +0.000 C 
ATOM     24  C   UNL     1      -1.265  12.642  19.045  0.00  0.00    +0.000 C 
BRANCH  23  25
ATOM     25  C   UNL     1      -1.490  12.346  21.524  0.00  0.00    +0.000 C 
ATOM     26  O   UNL     1      -1.118  11.501  22.328  0.00  0.00    +0.000 OA
ATOM     27  N   UNL     1      -2.733  12.956  21.528  0.00  0.00    +0.000 N 
ATOM     28  H   UNL     1      -2.917  13.555  20.730  0.00  0.00    +0.000 HD
BRANCH  27  29
ATOM     29  C   UNL     1      -3.788  12.803  22.448  0.00  0.00    +0.000 A 
ATOM     30  C   UNL     1      -3.564  12.608  23.817  0.00  0.00    +0.000 A 
ATOM     31  C   UNL     1      -4.635  12.489  24.710  0.00  0.00    +0.000 A 
ATOM     32  C   UNL     1      -5.942  12.575  24.248  0.00  0.00    +0.000 A 
ATOM     33  C   UNL     1      -6.180  12.770  22.891  0.00  0.00    +0.000 A 
ATOM     34  C   UNL     1      -5.114  12.880  21.976  0.00  0.00    +0.000 A 
BRANCH  34  35
ATOM     35  C   UNL     1      -5.464  13.005  20.513  0.00  0.00    +0.000 C 
ATOM     36  F   UNL     1      -4.895  12.048  19.716  0.00  0.00    +0.000 F 
ATOM     37  F   UNL     1      -6.804  12.913  20.287  0.00  0.00    +0.000 F 
ATOM     38  F   UNL     1      -5.072  14.193  19.975  0.00  0.00    +0.000 F 
ENDBRANCH  34  35
ENDBRANCH  27  29
ENDBRANCH  23  25
ENDBRANCH   9  23
TORSDOF 6
ENDMDL
MODEL 4
REMARK VINA RESULT:      -7.8      2.675      4.701
REMARK  Name = 
REMARK  8 active torsions:
REMARK  status: ('A' for Active; 'I' for Inactive)
REMARK    1  A    between atoms: C_1  and  C_2
REMARK    2  A    between atoms: N_4  and  C_5
REMARK    3  A    between atoms: C_10  and  C_11
REMARK    4  A    between atoms: N_19  and  C_20
REMARK    5  A    between atoms: C_20  and  C_21
REMARK    6  A    between atoms: C_20  and  C_22
REMARK    7  A    between atoms: N_24  and  C_25
REMARK    8  A    between atoms: C_30  and  C_31
REMARK                            x       y       z     vdW  Elec       q    Type
REMARK                         _______ _______ _______ _____ _____    ______ ____
ROOT
ATOM      1  C   UNL     1      -1.516  12.366  19.610  0.00  0.00    +0.000 A 
ATOM      2  N   UNL     1      -1.038  13.506  19.153  0.00  0.00    +0.000 NA
ATOM      3  C   UNL     1       0.323  13.766  19.427  0.00  0.00    +0.000 A 
ATOM      4  C   UNL     1       0.843  15.026  19.124  0.00  0.00    +0.000 A 
ATOM      5  C   UNL     1       2.220  15.248  19.195  0.00  0.00    +0.000 A 
ATOM      6  C   UNL     1       3.081  14.206  19.549  0.00  0.00    +0.000 A 
ATOM      7  C   UNL     1       2.579  12.936  19.850  0.00  0.00    +0.000 A 
ATOM      8  C   UNL     1       1.203  12.718  19.796  0.00  0.00    +0.000 A 
ATOM      9  N   UNL     1       0.637  11.449  20.169  0.00  0.00    +0.000 N 
ATOM     10  C   UNL     1      -0.678  11.572  20.593  0.00  0.00    +0.000 A 
ATOM     11  O   UNL     1      -1.133  11.141  21.638  0.00  0.00    +0.000 OA
ENDROOT
BRANCH   1  17
ATOM     12  C   UNL     1      -3.994  12.292  19.168  0.00  0.00    +0.000 A 
ATOM     13  C   UNL     1      -5.066  11.823  18.397  0.00  0.00    +0.000 A 
ATOM     14  C   UNL     1      -4.881  10.788  17.479  0.00  0.00    +0.000 A 
ATOM     15  C   UNL     1      -3.638  10.181  17.360  0.00  0.00    +0.000 A 
ATOM     16  C   UNL     1      -2.569  10.628  18.135  0.00  0.00    +0.000 A 
ATOM     17  C   UNL     1      -2.720  11.713  19.016  0.00  0.00    +0.000 A 
BRANCH  12  21
ATOM     18  C   UNL     1      -4.629  14.624  22.034  0.00  0.00    +0.000 C 
ATOM     19  C   UNL     1      -4.573  13.294  21.329  0.00  0.00    +0.000 C 
ATOM     20  O   UNL     1      -4.801  12.245  21.921  0.00  0.00    +0.000 OA
ATOM     21  N   UNL     1      -4.179  13.408  20.013  0.00  0.00    +0.000 N 
ATOM     22  H   UNL     1      -3.566  14.200  19.814  0.00  0.00    +0.000 HD
ENDBRANCH  12  21
ENDBRANCH   1  17
BRANCH   9  23
ATOM     23  C   UNL     1       0.898  10.298  19.262  0.00  0.00    +0.000 C 
ATOM     24  C   UNL     1       1.886  10.627  18.126  0.00  0.00    +0.000 C 
BRANCH  23  25
ATOM     25  C   UNL     1       1.441   9.043  20.017  0.00  0.00    +0.000 C 
ATOM     26  O   UNL     1       1.426   8.950  21.238  0.00  0.00    +0.000 OA
ATOM     27  N   UNL     1       1.881   8.059  19.149  0.00  0.00    +0.000 N 
ATOM     28  H   UNL     1       1.925   8.338  18.175  0.00  0.00    +0.000 HD
BRANCH  27  29
ATOM     29  C   UNL     1       2.335   6.759  19.446  0.00  0.00    +0.000 A 
ATOM     30  C   UNL     1       1.831   6.018  20.523  0.00  0.00    +0.000 A 
ATOM     31  C   UNL     1       2.283   4.718  20.774  0.00  0.00    +0.000 A 
ATOM     32  C   UNL     1       3.234   4.137  19.945  0.00  0.00    +0.000 A 
ATOM     33  C   UNL     1       3.744   4.861  18.871  0.00  0.00    +0.000 A 
ATOM     34  C   UNL     1       3.310   6.176  18.611  0.00  0.00    +0.000 A 
BRANCH  34  35
ATOM     35  C   UNL     1       3.976   6.917  17.477  0.00  0.00    +0.000 C 
ATOM     36  F   UNL     1       3.193   7.879  16.898  0.00  0.00    +0.000 F 
ATOM     37  F   UNL     1       5.109   7.563  17.870  0.00  0.00    +0.000 F 
ATOM     38  F   UNL     1       4.345   6.098  16.454  0.00  0.00    +0.000 F 
ENDBRANCH  34  35
ENDBRANCH  27  29
ENDBRANCH  23  25
ENDBRANCH   9  23
TORSDOF 6
ENDMDL
MODEL 5
REMARK VINA RESULT:      -7.7      3.989      7.311
REMARK  Name = 
REMARK  8 active torsions:
REMARK  status: ('A' for Active; 'I' for Inactive)
REMARK    1  A    between atoms: C_1  and  C_2
REMARK    2  A    between atoms: N_4  and  C_5
REMARK    3  A    between atoms: C_10  and  C_11
REMARK    4  A    between atoms: N_19  and  C_20
REMARK    5  A    between atoms: C_20  and  C_21
REMARK    6  A    between atoms: C_20  and  C_22
REMARK    7  A    between atoms: N_24  and  C_25
REMARK    8  A    between atoms: C_30  and  C_31
REMARK                            x       y       z     vdW  Elec       q    Type
REMARK                         _______ _______ _______ _____ _____    ______ ____
ROOT
ATOM      1  C   UNL     1       1.404  14.257  19.060  0.00  0.00    +0.000 A 
ATOM      2  N   UNL     1       2.031  13.390  18.292  0.00  0.00    +0.000 NA
ATOM      3  C   UNL     1       1.761  12.026  18.542  0.00  0.00    +0.000 A 
ATOM      4  C   UNL     1       2.521  11.057  17.883  0.00  0.00    +0.000 A 
ATOM      5  C   UNL     1       2.150   9.713  17.954  0.00  0.00    +0.000 A 
ATOM      6  C   UNL     1       1.009   9.337  18.667  0.00  0.00    +0.000 A 
ATOM      7  C   UNL     1       0.232  10.294  19.329  0.00  0.00    +0.000 A 
ATOM      8  C   UNL     1       0.612  11.635  19.272  0.00  0.00    +0.000 A 
ATOM      9  N   UNL     1      -0.113  12.642  19.998  0.00  0.00    +0.000 N 
ATOM     10  C   UNL     1       0.678  13.744  20.289  0.00  0.00    +0.000 A 
ATOM     11  O   UNL     1       0.828  14.242  21.391  0.00  0.00    +0.000 OA
ENDROOT
BRANCH   1  17
ATOM     12  C   UNL     1       2.213  16.424  18.062  0.00  0.00    +0.000 A 
ATOM     13  C   UNL     1       1.922  17.644  17.438  0.00  0.00    +0.000 A 
ATOM     14  C   UNL     1       0.611  18.119  17.383  0.00  0.00    +0.000 A 
ATOM     15  C   UNL     1      -0.411  17.406  17.994  0.00  0.00    +0.000 A 
ATOM     16  C   UNL     1      -0.131  16.199  18.634  0.00  0.00    +0.000 A 
ATOM     17  C   UNL     1       1.172  15.671  18.641  0.00  0.00    +0.000 A 
BRANCH  12  21
ATOM     18  C   UNL     1       5.860  15.702  18.547  0.00  0.00    +0.000 C 
ATOM     19  C   UNL     1       4.577  16.475  18.708  0.00  0.00    +0.000 C 
ATOM     20  O   UNL     1       4.509  17.459  19.437  0.00  0.00    +0.000 OA
ATOM     21  N   UNL     1       3.528  15.912  18.015  0.00  0.00    +0.000 N 
ATOM     22  H   UNL     1       3.587  14.899  17.892  0.00  0.00    +0.000 HD
ENDBRANCH  12  21
ENDBRANCH   1  17
BRANCH   9  23
ATOM     23  C   UNL     1      -1.485  12.967  19.520  0.00  0.00    +0.000 C 
ATOM     24  C   UNL     1      -1.808  12.368  18.137  0.00  0.00    +0.000 C 
BRANCH  23  25
ATOM     25  C   UNL     1      -2.598  12.501  20.512  0.00  0.00    +0.000 C 
ATOM     26  O   UNL     1      -2.346  12.047  21.621  0.00  0.00    +0.000 OA
ATOM     27  N   UNL     1      -3.870  12.710  20.008  0.00  0.00    +0.000 N 
ATOM     28  H   UNL     1      -3.902  12.993  19.034  0.00  0.00    +0.000 HD
BRANCH  27  29
ATOM     29  C   UNL     1      -5.113  12.518  20.642  0.00  0.00    +0.000 A 
ATOM     30  C   UNL     1      -5.364  12.961  21.947  0.00  0.00    +0.000 A 
ATOM     31  C   UNL     1      -6.619  12.781  22.539  0.00  0.00    +0.000 A 
ATOM     32  C   UNL     1      -7.643  12.167  21.829  0.00  0.00    +0.000 A 
ATOM     33  C   UNL     1      -7.409  11.723  20.530  0.00  0.00    +0.000 A 
ATOM     34  C   UNL     1      -6.148  11.885  19.924  0.00  0.00    +0.000 A 
BRANCH  34  35
ATOM     35  C   UNL     1      -5.959  11.299  18.546  0.00  0.00    +0.000 C 
ATOM     36  F   UNL     1      -4.894  10.444  18.441  0.00  0.00    +0.000 F 
ATOM     37  F   UNL     1      -7.039  10.579  18.132  0.00  0.00    +0.000 F 
ATOM     38  F   UNL     1      -5.749  12.246  17.592  0.00  0.00    +0.000 F 
ENDBRANCH  34  35
ENDBRANCH  27  29
ENDBRANCH  23  25
ENDBRANCH   9  23
TORSDOF 6
ENDMDL
MODEL 6
REMARK VINA RESULT:      -7.6      5.711      7.969
REMARK  Name = 
REMARK  8 active torsions:
REMARK  status: ('A' for Active; 'I' for Inactive)
REMARK    1  A    between atoms: C_1  and  C_2
REMARK    2  A    between atoms: N_4  and  C_5
REMARK    3  A    between atoms: C_10  and  C_11
REMARK    4  A    between atoms: N_19  and  C_20
REMARK    5  A    between atoms: C_20  and  C_21
REMARK    6  A    between atoms: C_20  and  C_22
REMARK    7  A    between atoms: N_24  and  C_25
REMARK    8  A    between atoms: C_30  and  C_31
REMARK                            x       y       z     vdW  Elec       q    Type
REMARK                         _______ _______ _______ _____ _____    ______ ____
ROOT
ATOM      1  C   UNL     1       1.085  13.393  19.656  0.00  0.00    +0.000 A 
ATOM      2  N   UNL     1       0.215  14.175  19.049  0.00  0.00    +0.000 NA
ATOM      3  C   UNL     1       0.509  15.556  19.052  0.00  0.00    +0.000 A 
ATOM      4  C   UNL     1      -0.453  16.451  18.581  0.00  0.00    +0.000 A 
ATOM      5  C   UNL     1      -0.122  17.793  18.385  0.00  0.00    +0.000 A 
ATOM      6  C   UNL     1       1.178  18.238  18.639  0.00  0.00    +0.000 A 
ATOM      7  C   UNL     1       2.157  17.355  19.105  0.00  0.00    +0.000 A 
ATOM      8  C   UNL     1       1.822  16.018  19.318  0.00  0.00    +0.000 A 
ATOM      9  N   UNL     1       2.775  15.093  19.866  0.00  0.00    +0.000 N 
ATOM     10  C   UNL     1       2.157  14.034  20.516  0.00  0.00    +0.000 A 
ATOM     11  O   UNL     1       2.392  13.660  21.652  0.00  0.00    +0.000 OA
ENDROOT
BRANCH   1  17
ATOM     12  C   UNL     1       0.289  11.012  19.857  0.00  0.00    +0.000 A 
ATOM     13  C   UNL     1       0.255   9.707  19.347  0.00  0.00    +0.000 A 
ATOM     14  C   UNL     1       1.124   9.320  18.326  0.00  0.00    +0.000 A 
ATOM     15  C   UNL     1       2.067  10.217  17.841  0.00  0.00    +0.000 A 
ATOM     16  C   UNL     1       2.122  11.513  18.353  0.00  0.00    +0.000 A 
ATOM     17  C   UNL     1       1.211  11.941  19.334  0.00  0.00    +0.000 A 
BRANCH  12  21
ATOM     18  C   UNL     1      -1.643  11.760  22.981  0.00  0.00    +0.000 C 
ATOM     19  C   UNL     1      -0.522  11.173  22.165  0.00  0.00    +0.000 C 
ATOM     20  O   UNL     1       0.427  10.605  22.694  0.00  0.00    +0.000 OA
ATOM     21  N   UNL     1      -0.668  11.412  20.815  0.00  0.00    +0.000 N 
ATOM     22  H   UNL     1      -1.173  12.269  20.581  0.00  0.00    +0.000 HD
ENDBRANCH  12  21
ENDBRANCH   1  17
BRANCH   9  23
ATOM     23  C   UNL     1       3.925  14.710  19.001  0.00  0.00    +0.000 C 
ATOM     24  C   UNL     1       3.688  15.006  17.507  0.00  0.00    +0.000 C 
BRANCH  23  25
ATOM     25  C   UNL     1       5.257  15.409  19.420  0.00  0.00    +0.000 C 
ATOM     26  O   UNL     1       5.502  15.722  20.578  0.00  0.00    +0.000 OA
ATOM     27  N   UNL     1       6.120  15.577  18.350  0.00  0.00    +0.000 N 
ATOM     28  H   UNL     1       5.721  15.362  17.443  0.00  0.00    +0.000 HD
BRANCH  27  29
ATOM     29  C   UNL     1       7.440  16.065  18.350  0.00  0.00    +0.000 A 
ATOM     30  C   UNL     1       7.735  17.425  18.517  0.00  0.00    +0.000 A 
ATOM     31  C   UNL     1       9.060  17.875  18.541  0.00  0.00    +0.000 A 
ATOM     32  C   UNL     1      10.107  16.971  18.412  0.00  0.00    +0.000 A 
ATOM     33  C   UNL     1       9.829  15.617  18.247  0.00  0.00    +0.000 A 
ATOM     34  C   UNL     1       8.501  15.148  18.207  0.00  0.00    +0.000 A 
BRANCH  34  35
ATOM     35  C   UNL     1       8.291  13.677  17.941  0.00  0.00    +0.000 C 
ATOM     36  F   UNL     1       9.316  13.078  17.258  0.00  0.00    +0.000 F 
ATOM     37  F   UNL     1       8.151  12.954  19.087  0.00  0.00    +0.000 F 
ATOM     38  F   UNL     1       7.177  13.427  17.199  0.00  0.00    +0.000 F 
ENDBRANCH  34  35
ENDBRANCH  27  29
ENDBRANCH  23  25
ENDBRANCH   9  23
TORSDOF 6
ENDMDL
MODEL 7
REMARK VINA RESULT:      -7.6      4.579      6.989
REMARK  Name = 
REMARK  8 active torsions:
REMARK  status: ('A' for Active; 'I' for Inactive)
REMARK    1  A    between atoms: C_1  and  C_2
REMARK    2  A    between atoms: N_4  and  C_5
REMARK    3  A    between atoms: C_10  and  C_11
REMARK    4  A    between atoms: N_19  and  C_20
REMARK    5  A    between atoms: C_20  and  C_21
REMARK    6  A    between atoms: C_20  and  C_22
REMARK    7  A    between atoms: N_24  and  C_25
REMARK    8  A    between atoms: C_30  and  C_31
REMARK                            x       y       z     vdW  Elec       q    Type
REMARK                         _______ _______ _______ _____ _____    ______ ____
ROOT
ATOM      1  C   UNL     1       3.788  15.650  17.949  0.00  0.00    +0.000 A 
ATOM      2  N   UNL     1       3.414  16.809  17.445  0.00  0.00    +0.000 NA
ATOM      3  C   UNL     1       2.025  17.061  17.424  0.00  0.00    +0.000 A 
ATOM      4  C   UNL     1       1.555  18.189  16.748  0.00  0.00    +0.000 A 
ATOM      5  C   UNL     1       0.219  18.574  16.877  0.00  0.00    +0.000 A 
ATOM      6  C   UNL     1      -0.644  17.845  17.698  0.00  0.00    +0.000 A 
ATOM      7  C   UNL     1      -0.190  16.716  18.388  0.00  0.00    +0.000 A 
ATOM      8  C   UNL     1       1.140  16.321  18.246  0.00  0.00    +0.000 A 
ATOM      9  N   UNL     1       1.630  15.126  18.877  0.00  0.00    +0.000 N 
ATOM     10  C   UNL     1       2.727  14.599  18.210  0.00  0.00    +0.000 A 
ATOM     11  O   UNL     1       2.842  13.447  17.829  0.00  0.00    +0.000 OA
ENDROOT
BRANCH   1  17
ATOM     12  C   UNL     1       5.461  15.791  19.826  0.00  0.00    +0.000 A 
ATOM     13  C   UNL     1       6.652  15.342  20.413  0.00  0.00    +0.000 A 
ATOM     14  C   UNL     1       7.538  14.538  19.697  0.00  0.00    +0.000 A 
ATOM     15  C   UNL     1       7.267  14.215  18.373  0.00  0.00    +0.000 A 
ATOM     16  C   UNL     1       6.093  14.670  17.774  0.00  0.00    +0.000 A 
ATOM     17  C   UNL     1       5.157  15.426  18.500  0.00  0.00    +0.000 A 
BRANCH  12  21
ATOM     18  C   UNL     1       3.438  18.424  21.567  0.00  0.00    +0.000 C 
ATOM     19  C   UNL     1       4.582  17.885  20.749  0.00  0.00    +0.000 C 
ATOM     20  O   UNL     1       5.412  18.630  20.238  0.00  0.00    +0.000 OA
ATOM     21  N   UNL     1       4.530  16.516  20.603  0.00  0.00    +0.000 N 
ATOM     22  H   UNL     1       3.591  16.115  20.626  0.00  0.00    +0.000 HD
ENDBRANCH  12  21
ENDBRANCH   1  17
BRANCH   9  23
ATOM     23  C   UNL     1       1.750  15.143  20.361  0.00  0.00    +0.000 C 
ATOM     24  C   UNL     1       0.592  15.883  21.058  0.00  0.00    +0.000 C 
BRANCH  23  25
ATOM     25  C   UNL     1       1.839  13.710  20.977  0.00  0.00    +0.000 C 
ATOM     26  O   UNL     1       2.837  13.303  21.559  0.00  0.00    +0.000 OA
ATOM     27  N   UNL     1       0.660  13.001  20.827  0.00  0.00    +0.000 N 
ATOM     28  H   UNL     1      -0.030  13.442  20.227  0.00  0.00    +0.000 HD
BRANCH  27  29
ATOM     29  C   UNL     1       0.323  11.732  21.336  0.00  0.00    +0.000 A 
ATOM     30  C   UNL     1       0.927  10.556  20.874  0.00  0.00    +0.000 A 
ATOM     31  C   UNL     1       0.591   9.313  21.421  0.00  0.00    +0.000 A 
ATOM     32  C   UNL     1      -0.344   9.230  22.445  0.00  0.00    +0.000 A 
ATOM     33  C   UNL     1      -0.952  10.391  22.916  0.00  0.00    +0.000 A 
ATOM     34  C   UNL     1      -0.635  11.649  22.367  0.00  0.00    +0.000 A 
BRANCH  34  35
ATOM     35  C   UNL     1      -1.403  12.844  22.879  0.00  0.00    +0.000 C 
ATOM     36  F   UNL     1      -2.119  13.505  21.917  0.00  0.00    +0.000 F 
ATOM     37  F   UNL     1      -2.312  12.509  23.837  0.00  0.00    +0.000 F 
ATOM     38  F   UNL     1      -0.600  13.791  23.436  0.00  0.00    +0.000 F 
ENDBRANCH  34  35
ENDBRANCH  27  29
ENDBRANCH  23  25
ENDBRANCH   9  23
TORSDOF 6
ENDMDL
MODEL 8
REMARK VINA RESULT:      -7.5      4.151      7.454
REMARK  Name = 
REMARK  8 active torsions:
REMARK  status: ('A' for Active; 'I' for Inactive)
REMARK    1  A    between atoms: C_1  and  C_2
REMARK    2  A    between atoms: N_4  and  C_5
REMARK    3  A    between atoms: C_10  and  C_11
REMARK    4  A    between atoms: N_19  and  C_20
REMARK    5  A    between atoms: C_20  and  C_21
REMARK    6  A    between atoms: C_20  and  C_22
REMARK    7  A    between atoms: N_24  and  C_25
REMARK    8  A    between atoms: C_30  and  C_31
REMARK                            x       y       z     vdW  Elec       q    Type
REMARK                         _______ _______ _______ _____ _____    ______ ____
ROOT
ATOM      1  C   UNL     1       1.270  14.376  19.136  0.00  0.00    +0.000 A 
ATOM      2  N   UNL     1       1.806  13.490  18.322  0.00  0.00    +0.000 NA
ATOM      3  C   UNL     1       1.607  12.133  18.658  0.00  0.00    +0.000 A 
ATOM      4  C   UNL     1       2.292  11.153  17.937  0.00  0.00    +0.000 A 
ATOM      5  C   UNL     1       1.968   9.805  18.110  0.00  0.00    +0.000 A 
ATOM      6  C   UNL     1       0.945   9.438  18.988  0.00  0.00    +0.000 A 
ATOM      7  C   UNL     1       0.244  10.406  19.714  0.00  0.00    +0.000 A 
ATOM      8  C   UNL     1       0.579  11.750  19.554  0.00  0.00    +0.000 A 
ATOM      9  N   UNL     1      -0.064  12.772  20.335  0.00  0.00    +0.000 N 
ATOM     10  C   UNL     1       0.733  13.900  20.472  0.00  0.00    +0.000 A 
ATOM     11  O   UNL     1       1.020  14.446  21.523  0.00  0.00    +0.000 OA
ENDROOT
BRANCH   1  17
ATOM     12  C   UNL     1       1.936  16.575  18.104  0.00  0.00    +0.000 A 
ATOM     13  C   UNL     1       1.566  17.766  17.465  0.00  0.00    +0.000 A 
ATOM     14  C   UNL     1       0.228  18.158  17.413  0.00  0.00    +0.000 A 
ATOM     15  C   UNL     1      -0.745  17.390  18.040  0.00  0.00    +0.000 A 
ATOM     16  C   UNL     1      -0.386  16.213  18.694  0.00  0.00    +0.000 A 
ATOM     17  C   UNL     1       0.948  15.767  18.699  0.00  0.00    +0.000 A 
BRANCH  12  21
ATOM     18  C   UNL     1       5.601  16.010  18.653  0.00  0.00    +0.000 C 
ATOM     19  C   UNL     1       4.270  16.689  18.844  0.00  0.00    +0.000 C 
ATOM     20  O   UNL     1       4.119  17.582  19.670  0.00  0.00    +0.000 OA
ATOM     21  N   UNL     1       3.280  16.146  18.054  0.00  0.00    +0.000 N 
ATOM     22  H   UNL     1       3.403  15.157  17.827  0.00  0.00    +0.000 HD
ENDBRANCH  12  21
ENDBRANCH   1  17
BRANCH   9  23
ATOM     23  C   UNL     1      -1.496  13.051  20.039  0.00  0.00    +0.000 C 
ATOM     24  C   UNL     1      -1.977  12.432  18.712  0.00  0.00    +0.000 C 
BRANCH  23  25
ATOM     25  C   UNL     1      -2.455  12.558  21.170  0.00  0.00    +0.000 C 
ATOM     26  O   UNL     1      -2.060  11.924  22.140  0.00  0.00    +0.000 OA
ATOM     27  N   UNL     1      -3.762  12.963  20.962  0.00  0.00    +0.000 N 
ATOM     28  H   UNL     1      -3.939  13.386  20.057  0.00  0.00    +0.000 HD
BRANCH  27  29
ATOM     29  C   UNL     1      -4.880  12.804  21.804  0.00  0.00    +0.000 A 
ATOM     30  C   UNL     1      -4.804  12.989  23.190  0.00  0.00    +0.000 A 
ATOM     31  C   UNL     1      -5.939  12.852  23.996  0.00  0.00    +0.000 A 
ATOM     32  C   UNL     1      -7.167  12.541  23.426  0.00  0.00    +0.000 A 
ATOM     33  C   UNL     1      -7.258  12.355  22.049  0.00  0.00    +0.000 A 
ATOM     34  C   UNL     1      -6.123  12.476  21.224  0.00  0.00    +0.000 A 
BRANCH  34  35
ATOM     35  C   UNL     1      -6.295  12.175  19.755  0.00  0.00    +0.000 C 
ATOM     36  F   UNL     1      -7.566  11.804  19.404  0.00  0.00    +0.000 F 
ATOM     37  F   UNL     1      -6.003  13.246  18.966  0.00  0.00    +0.000 F 
ATOM     38  F   UNL     1      -5.497  11.160  19.325  0.00  0.00    +0.000 F 
ENDBRANCH  34  35
ENDBRANCH  27  29
ENDBRANCH  23  25
ENDBRANCH   9  23
TORSDOF 6
ENDMDL
MODEL 9
REMARK VINA RESULT:      -7.4      2.935      4.403
REMARK  Name = 
REMARK  8 active torsions:
REMARK  status: ('A' for Active; 'I' for Inactive)
REMARK    1  A    between atoms: C_1  and  C_2
REMARK    2  A    between atoms: N_4  and  C_5
REMARK    3  A    between atoms: C_10  and  C_11
REMARK    4  A    between atoms: N_19  and  C_20
REMARK    5  A    between atoms: C_20  and  C_21
REMARK    6  A    between atoms: C_20  and  C_22
REMARK    7  A    between atoms: N_24  and  C_25
REMARK    8  A    between atoms: C_30  and  C_31
REMARK                            x       y       z     vdW  Elec       q    Type
REMARK                         _______ _______ _______ _____ _____    ______ ____
ROOT
ATOM      1  C   UNL     1      -2.020  13.263  21.332  0.00  0.00    +0.000 A 
ATOM      2  N   UNL     1      -1.576  14.098  20.415  0.00  0.00    +0.000 NA
ATOM      3  C   UNL     1      -0.198  14.018  20.114  0.00  0.00    +0.000 A 
ATOM      4  C   UNL     1       0.366  14.986  19.282  0.00  0.00    +0.000 A 
ATOM      5  C   UNL     1       1.669  14.824  18.806  0.00  0.00    +0.000 A 
ATOM      6  C   UNL     1       2.402  13.683  19.144  0.00  0.00    +0.000 A 
ATOM      7  C   UNL     1       1.850  12.699  19.971  0.00  0.00    +0.000 A 
ATOM      8  C   UNL     1       0.555  12.869  20.460  0.00  0.00    +0.000 A 
ATOM      9  N   UNL     1      -0.023  11.920  21.372  0.00  0.00    +0.000 N 
ATOM     10  C   UNL     1      -1.010  12.494  22.162  0.00  0.00    +0.000 A 
ATOM     11  O   UNL     1      -1.069  12.442  23.378  0.00  0.00    +0.000 OA
ENDROOT
BRANCH   1  17
ATOM     12  C   UNL     1      -4.219  13.174  22.558  0.00  0.00    +0.000 A 
ATOM     13  C   UNL     1      -5.612  13.031  22.522  0.00  0.00    +0.000 A 
ATOM     14  C   UNL     1      -6.250  12.583  21.365  0.00  0.00    +0.000 A 
ATOM     15  C   UNL     1      -5.499  12.227  20.252  0.00  0.00    +0.000 A 
ATOM     16  C   UNL     1      -4.111  12.348  20.283  0.00  0.00    +0.000 A 
ATOM     17  C   UNL     1      -3.456  12.861  21.416  0.00  0.00    +0.000 A 
BRANCH  12  21
ATOM     18  C   UNL     1      -2.944  15.407  25.287  0.00  0.00    +0.000 C 
ATOM     19  C   UNL     1      -3.602  15.079  23.972  0.00  0.00    +0.000 C 
ATOM     20  O   UNL     1      -4.120  15.949  23.281  0.00  0.00    +0.000 OA
ATOM     21  N   UNL     1      -3.604  13.728  23.703  0.00  0.00    +0.000 N 
ATOM     22  H   UNL     1      -3.615  13.123  24.527  0.00  0.00    +0.000 HD
ENDBRANCH  12  21
ENDBRANCH   1  17
BRANCH   9  23
ATOM     23  C   UNL     1      -0.360  10.576  20.829  0.00  0.00    +0.000 C 
ATOM     24  C   UNL     1      -0.659  10.586  19.318  0.00  0.00    +0.000 C 
BRANCH  23  25
ATOM     25  C   UNL     1       0.762   9.520  21.086  0.00  0.00    +0.000 C 
ATOM     26  O   UNL     1       1.473   9.542  22.083  0.00  0.00    +0.000 OA
ATOM     27  N   UNL     1       0.812   8.557  20.093  0.00  0.00    +0.000 N 
ATOM     28  H   UNL     1       0.228   8.746  19.285  0.00  0.00    +0.000 HD
BRANCH  27  29
ATOM     29  C   UNL     1       1.610   7.398  20.027  0.00  0.00    +0.000 A 
ATOM     30  C   UNL     1       1.589   6.418  21.028  0.00  0.00    +0.000 A 
ATOM     31  C   UNL     1       2.372   5.264  20.919  0.00  0.00    +0.000 A 
ATOM     32  C   UNL     1       3.176   5.068  19.804  0.00  0.00    +0.000 A 
ATOM     33  C   UNL     1       3.206   6.033  18.800  0.00  0.00    +0.000 A 
ATOM     34  C   UNL     1       2.434   7.207  18.900  0.00  0.00    +0.000 A 
BRANCH  34  35
ATOM     35  C   UNL     1       2.592   8.237  17.808  0.00  0.00    +0.000 C 
ATOM     36  F   UNL     1       3.014   9.463  18.249  0.00  0.00    +0.000 F 
ATOM     37  F   UNL     1       3.500   7.862  16.864  0.00  0.00    +0.000 F 
ATOM     38  F   UNL     1       1.432   8.481  17.139  0.00  0.00    +0.000 F 
ENDBRANCH  34  35
ENDBRANCH  27  29
ENDBRANCH  23  25
ENDBRANCH   9  23
TORSDOF 6
ENDMDL
