MODEL 1
REMARK VINA RESULT:      -9.2      0.000      0.000
REMARK  Name = 
REMARK  9 active torsions:
REMARK  status: ('A' for Active; 'I' for Inactive)
REMARK    1  A    between atoms: C_2  and  C_25
REMARK    2  A    between atoms: N_3  and  C_4
REMARK    3  A    between atoms: C_4  and  C_5
REMARK    4  A    between atoms: C_5  and  C_6
REMARK    5  A    between atoms: C_6  and  C_7
REMARK    6  A    between atoms: C_7  and  C_8
REMARK    7  A    between atoms: C_8  and  C_9
REMARK    8  A    between atoms: C_9  and  N_10
REMARK    9  A    between atoms: N_10  and  C_11
REMARK                            x       y       z     vdW  Elec       q    Type
REMARK                         _______ _______ _______ _____ _____    ______ ____
ROOT
ATOM      1  C   UNL     1       2.489   8.248  17.989  0.00  0.00    +0.000 C 
ENDROOT
BRANCH   1   2
ATOM      2  C   UNL     1       2.307   7.651  19.397  0.00  0.00    +0.000 C 
BRANCH   2   3
ATOM      3  C   UNL     1       2.118   6.133  19.408  0.00  0.00    +0.000 C 
BRANCH   3   4
ATOM      4  C   UNL     1       3.436   5.382  19.589  0.00  0.00    +0.000 C 
BRANCH   4   7
ATOM      5  O   UNL     1       5.799   3.913  19.092  0.00  0.00    +0.000 OA
ATOM      6  C   UNL     1       5.344   4.635  18.208  0.00  0.00    +0.000 C 
ATOM      7  N   UNL     1       4.213   5.391  18.373  0.00  0.00    +0.000 N 
ATOM      8  H   UNL     1       3.836   5.897  17.571  0.00  0.00    +0.000 HD
BRANCH   6   9
ATOM      9  C   UNL     1       6.011   4.765  16.879  0.00  0.00    +0.000 A 
ATOM     10  C   UNL     1       5.455   4.084  15.865  0.00  0.00    +0.000 A 
ATOM     11  C   UNL     1       6.032   4.144  14.534  0.00  0.00    +0.000 A 
ATOM     12  C   UNL     1       5.521   3.401  13.469  0.00  0.00    +0.000 A 
ATOM     13  C   UNL     1       6.096   3.515  12.199  0.00  0.00    +0.000 A 
ATOM     14  C   UNL     1       7.177   4.374  11.990  0.00  0.00    +0.000 A 
ATOM     15  C   UNL     1       7.698   5.111  13.052  0.00  0.00    +0.000 A 
ATOM     16  C   UNL     1       7.123   4.978  14.311  0.00  0.00    +0.000 A 
ATOM     17  O   UNL     1       7.697   5.705  15.366  0.00  0.00    +0.000 OA
ATOM     18  C   UNL     1       7.231   5.577  16.669  0.00  0.00    +0.000 A 
ATOM     19  O   UNL     1       7.816   6.125  17.601  0.00  0.00    +0.000 OA
ENDBRANCH   6   9
ENDBRANCH   4   7
ENDBRANCH   3   4
ENDBRANCH   2   3
ENDBRANCH   1   2
BRANCH   1  20
ATOM     20  C   UNL     1       1.883   9.661  17.821  0.00  0.00    +0.000 C 
BRANCH  20  21
ATOM     21  C   UNL     1       1.181  10.051  19.111  0.00  0.00    +0.000 C 
BRANCH  21  22
ATOM     22  N   UNL     1      -0.167   9.570  19.295  0.00  0.00    +0.000 N 
ATOM     23  H   UNL     1      -0.238   8.874  20.034  0.00  0.00    +0.000 HD
BRANCH  22  24
ATOM     24  C   UNL     1      -1.225  10.529  19.420  0.00  0.00    +0.000 A 
ATOM     25  C   UNL     1      -2.111  10.609  18.308  0.00  0.00    +0.000 A 
ATOM     26  C   UNL     1      -3.133  11.559  18.342  0.00  0.00    +0.000 A 
ATOM     27  N   UNL     1      -3.315  12.405  19.376  0.00  0.00    +0.000 NA
ATOM     28  C   UNL     1      -2.484  12.361  20.421  0.00  0.00    +0.000 A 
ATOM     29  C   UNL     1      -2.766  13.273  21.434  0.00  0.00    +0.000 A 
ATOM     30  C   UNL     1      -2.007  13.370  22.599  0.00  0.00    +0.000 A 
ATOM     31  C   UNL     1      -0.927  12.543  22.751  0.00  0.00    +0.000 A 
ATOM     32  C   UNL     1      -0.633  11.623  21.742  0.00  0.00    +0.000 A 
ATOM     33  C   UNL     1      -1.393  11.472  20.527  0.00  0.00    +0.000 A 
ATOM     34  C   UNL     1      -4.068  11.796  17.181  0.00  0.00    +0.000 C 
ATOM     35  C   UNL     1      -4.029  10.734  16.090  0.00  0.00    +0.000 C 
ATOM     36  C   UNL     1      -2.602  10.272  15.843  0.00  0.00    +0.000 C 
ATOM     37  C   UNL     1      -2.024   9.668  17.123  0.00  0.00    +0.000 C 
ENDBRANCH  22  24
ENDBRANCH  21  22
ENDBRANCH  20  21
ENDBRANCH   1  20
TORSDOF 9
ENDMDL
MODEL 2
REMARK VINA RESULT:      -9.0      2.490      3.141
REMARK  Name = 
REMARK  9 active torsions:
REMARK  status: ('A' for Active; 'I' for Inactive)
REMARK    1  A    between atoms: C_2  and  C_25
REMARK    2  A    between atoms: N_3  and  C_4
REMARK    3  A    between atoms: C_4  and  C_5
REMARK    4  A    between atoms: C_5  and  C_6
REMARK    5  A    between atoms: C_6  and  C_7
REMARK    6  A    between atoms: C_7  and  C_8
REMARK    7  A    between atoms: C_8  and  C_9
REMARK    8  A    between atoms: C_9  and  N_10
REMARK    9  A    between atoms: N_10  and  C_11
REMARK                            x       y       z     vdW  Elec       q    Type
REMARK                         _______ _______ _______ _____ _____    ______ ____
ROOT
ATOM      1  C   UNL     1       2.066   6.758  18.677  0.00  0.00    +0.000 C 
ENDROOT
BRANCH   1   2
ATOM      2  C   UNL     1       1.939   5.356  18.053  0.00  0.00    +0.000 C 
BRANCH   2   3
ATOM      3  C   UNL     1       2.004   4.215  19.069  0.00  0.00    +0.000 C 
BRANCH   3   4
ATOM      4  C   UNL     1       3.421   3.672  19.245  0.00  0.00    +0.000 C 
BRANCH   4   7
ATOM      5  O   UNL     1       5.453   5.608  18.908  0.00  0.00    +0.000 OA
ATOM      6  C   UNL     1       5.194   4.842  17.983  0.00  0.00    +0.000 C 
ATOM      7  N   UNL     1       4.215   3.887  18.059  0.00  0.00    +0.000 N 
ATOM      8  H   UNL     1       4.113   3.223  17.292  0.00  0.00    +0.000 HD
BRANCH   6   9
ATOM      9  C   UNL     1       5.919   4.912  16.680  0.00  0.00    +0.000 A 
ATOM     10  C   UNL     1       5.405   4.183  15.675  0.00  0.00    +0.000 A 
ATOM     11  C   UNL     1       6.040   4.182  14.369  0.00  0.00    +0.000 A 
ATOM     12  C   UNL     1       5.574   3.391  13.318  0.00  0.00    +0.000 A 
ATOM     13  C   UNL     1       6.203   3.446  12.070  0.00  0.00    +0.000 A 
ATOM     14  C   UNL     1       7.294   4.295  11.869  0.00  0.00    +0.000 A 
ATOM     15  C   UNL     1       7.770   5.081  12.917  0.00  0.00    +0.000 A 
ATOM     16  C   UNL     1       7.140   5.005  14.155  0.00  0.00    +0.000 A 
ATOM     17  O   UNL     1       7.670   5.781  15.199  0.00  0.00    +0.000 OA
ATOM     18  C   UNL     1       7.147   5.714  16.485  0.00  0.00    +0.000 A 
ATOM     19  O   UNL     1       7.692   6.304  17.416  0.00  0.00    +0.000 OA
ENDBRANCH   6   9
ENDBRANCH   4   7
ENDBRANCH   3   4
ENDBRANCH   2   3
ENDBRANCH   1   2
BRANCH   1  20
ATOM     20  C   UNL     1       2.447   7.865  17.667  0.00  0.00    +0.000 C 
BRANCH  20  21
ATOM     21  C   UNL     1       1.557   9.074  17.904  0.00  0.00    +0.000 C 
BRANCH  21  22
ATOM     22  N   UNL     1       2.188  10.255  18.443  0.00  0.00    +0.000 N 
ATOM     23  H   UNL     1       2.580  10.854  17.719  0.00  0.00    +0.000 HD
BRANCH  22  24
ATOM     24  C   UNL     1       1.462  11.044  19.395  0.00  0.00    +0.000 A 
ATOM     25  C   UNL     1       1.525  12.453  19.195  0.00  0.00    +0.000 A 
ATOM     26  C   UNL     1       0.883  13.282  20.116  0.00  0.00    +0.000 A 
ATOM     27  N   UNL     1       0.213  12.810  21.187  0.00  0.00    +0.000 NA
ATOM     28  C   UNL     1       0.158  11.494  21.405  0.00  0.00    +0.000 A 
ATOM     29  C   UNL     1      -0.563  11.115  22.534  0.00  0.00    +0.000 A 
ATOM     30  C   UNL     1      -0.728   9.786  22.918  0.00  0.00    +0.000 A 
ATOM     31  C   UNL     1      -0.144   8.806  22.162  0.00  0.00    +0.000 A 
ATOM     32  C   UNL     1       0.583   9.171  21.027  0.00  0.00    +0.000 A 
ATOM     33  C   UNL     1       0.770  10.528  20.577  0.00  0.00    +0.000 A 
ATOM     34  C   UNL     1       0.965  14.788  20.056  0.00  0.00    +0.000 C 
ATOM     35  C   UNL     1       1.531  15.355  18.760  0.00  0.00    +0.000 C 
ATOM     36  C   UNL     1       2.689  14.504  18.264  0.00  0.00    +0.000 C 
ATOM     37  C   UNL     1       2.207  13.079  17.995  0.00  0.00    +0.000 C 
ENDBRANCH  22  24
ENDBRANCH  21  22
ENDBRANCH  20  21
ENDBRANCH   1  20
TORSDOF 9
ENDMDL
MODEL 3
REMARK VINA RESULT:      -8.9      2.395      5.079
REMARK  Name = 
REMARK  9 active torsions:
REMARK  status: ('A' for Active; 'I' for Inactive)
REMARK    1  A    between atoms: C_2  and  C_25
REMARK    2  A    between atoms: N_3  and  C_4
REMARK    3  A    between atoms: C_4  and  C_5
REMARK    4  A    between atoms: C_5  and  C_6
REMARK    5  A    between atoms: C_6  and  C_7
REMARK    6  A    between atoms: C_7  and  C_8
REMARK    7  A    between atoms: C_8  and  C_9
REMARK    8  A    between atoms: C_9  and  N_10
REMARK    9  A    between atoms: N_10  and  C_11
REMARK                            x       y       z     vdW  Elec       q    Type
REMARK                         _______ _______ _______ _____ _____    ______ ____
ROOT
ATOM      1  C   UNL     1      -1.063  10.119  19.424  0.00  0.00    +0.000 C 
ENDROOT
BRANCH   1   2
ATOM      2  C   UNL     1      -0.677  10.083  20.915  0.00  0.00    +0.000 C 
BRANCH   2   3
ATOM      3  C   UNL     1      -0.191   8.716  21.398  0.00  0.00    +0.000 C 
BRANCH   3   4
ATOM      4  C   UNL     1       1.323   8.672  21.595  0.00  0.00    +0.000 C 
BRANCH   4   7
ATOM      5  O   UNL     1       1.907   8.933  18.841  0.00  0.00    +0.000 OA
ATOM      6  C   UNL     1       2.195   7.888  19.420  0.00  0.00    +0.000 C 
ATOM      7  N   UNL     1       1.932   7.675  20.748  0.00  0.00    +0.000 N 
ATOM      8  H   UNL     1       2.280   6.824  21.189  0.00  0.00    +0.000 HD
BRANCH   6   9
ATOM      9  C   UNL     1       2.838   6.746  18.705  0.00  0.00    +0.000 A 
ATOM     10  C   UNL     1       3.688   7.066  17.715  0.00  0.00    +0.000 A 
ATOM     11  C   UNL     1       4.360   6.026  16.959  0.00  0.00    +0.000 A 
ATOM     12  C   UNL     1       5.201   6.316  15.883  0.00  0.00    +0.000 A 
ATOM     13  C   UNL     1       5.848   5.279  15.203  0.00  0.00    +0.000 A 
ATOM     14  C   UNL     1       5.661   3.953  15.600  0.00  0.00    +0.000 A 
ATOM     15  C   UNL     1       4.816   3.656  16.667  0.00  0.00    +0.000 A 
ATOM     16  C   UNL     1       4.170   4.697  17.325  0.00  0.00    +0.000 A 
ATOM     17  O   UNL     1       3.295   4.360  18.371  0.00  0.00    +0.000 OA
ATOM     18  C   UNL     1       2.556   5.331  19.035  0.00  0.00    +0.000 A 
ATOM     19  O   UNL     1       1.706   5.015  19.865  0.00  0.00    +0.000 OA
ENDBRANCH   6   9
ENDBRANCH   4   7
ENDBRANCH   3   4
ENDBRANCH   2   3
ENDBRANCH   1   2
BRANCH   1  20
ATOM     20  C   UNL     1      -0.818  11.485  18.743  0.00  0.00    +0.000 C 
BRANCH  20  21
ATOM     21  C   UNL     1      -0.984  12.586  19.777  0.00  0.00    +0.000 C 
BRANCH  21  22
ATOM     22  N   UNL     1      -2.138  13.442  19.642  0.00  0.00    +0.000 N 
ATOM     23  H   UNL     1      -2.332  13.688  18.673  0.00  0.00    +0.000 HD
BRANCH  22  24
ATOM     24  C   UNL     1      -3.352  13.065  20.307  0.00  0.00    +0.000 A 
ATOM     25  C   UNL     1      -3.412  13.384  21.693  0.00  0.00    +0.000 A 
ATOM     26  C   UNL     1      -4.545  12.999  22.412  0.00  0.00    +0.000 A 
ATOM     27  N   UNL     1      -5.578  12.336  21.855  0.00  0.00    +0.000 NA
ATOM     28  C   UNL     1      -5.534  12.009  20.561  0.00  0.00    +0.000 A 
ATOM     29  C   UNL     1      -6.655  11.333  20.087  0.00  0.00    +0.000 A 
ATOM     30  C   UNL     1      -6.784  10.914  18.765  0.00  0.00    +0.000 A 
ATOM     31  C   UNL     1      -5.760  11.165  17.892  0.00  0.00    +0.000 A 
ATOM     32  C   UNL     1      -4.630  11.843  18.354  0.00  0.00    +0.000 A 
ATOM     33  C   UNL     1      -4.453  12.311  19.706  0.00  0.00    +0.000 A 
ATOM     34  C   UNL     1      -4.673  13.199  23.902  0.00  0.00    +0.000 C 
ATOM     35  C   UNL     1      -3.631  14.119  24.526  0.00  0.00    +0.000 C 
ATOM     36  C   UNL     1      -2.267  13.884  23.899  0.00  0.00    +0.000 C 
ATOM     37  C   UNL     1      -2.328  14.173  22.400  0.00  0.00    +0.000 C 
ENDBRANCH  22  24
ENDBRANCH  21  22
ENDBRANCH  20  21
ENDBRANCH   1  20
TORSDOF 9
ENDMDL
MODEL 4
REMARK VINA RESULT:      -8.9      3.833     10.861
REMARK  Name = 
REMARK  9 active torsions:
REMARK  status: ('A' for Active; 'I' for Inactive)
REMARK    1  A    between atoms: C_2  and  C_25
REMARK    2  A    between atoms: N_3  and  C_4
REMARK    3  A    between atoms: C_4  and  C_5
REMARK    4  A    between atoms: C_5  and  C_6
REMARK    5  A    between atoms: C_6  and  C_7
REMARK    6  A    between atoms: C_7  and  C_8
REMARK    7  A    between atoms: C_8  and  C_9
REMARK    8  A    between atoms: C_9  and  N_10
REMARK    9  A    between atoms: N_10  and  C_11
REMARK                            x       y       z     vdW  Elec       q    Type
REMARK                         _______ _______ _______ _____ _____    ______ ____
ROOT
ATOM      1  C   UNL     1       1.461   8.292  20.601  0.00  0.00    +0.000 C 
ENDROOT
BRANCH   1   2
ATOM      2  C   UNL     1       0.160   8.509  21.397  0.00  0.00    +0.000 C 
BRANCH   2   3
ATOM      3  C   UNL     1       0.225   9.672  22.389  0.00  0.00    +0.000 C 
BRANCH   3   4
ATOM      4  C   UNL     1       0.151  11.032  21.698  0.00  0.00    +0.000 C 
BRANCH   4   7
ATOM      5  O   UNL     1      -0.164  12.143  19.117  0.00  0.00    +0.000 OA
ATOM      6  C   UNL     1      -1.152  11.723  19.714  0.00  0.00    +0.000 C 
ATOM      7  N   UNL     1      -1.088  11.184  20.973  0.00  0.00    +0.000 N 
ATOM      8  H   UNL     1      -1.928  10.769  21.375  0.00  0.00    +0.000 HD
BRANCH   6   9
ATOM      9  C   UNL     1      -2.518  11.790  19.118  0.00  0.00    +0.000 A 
ATOM     10  C   UNL     1      -3.468  12.369  19.871  0.00  0.00    +0.000 A 
ATOM     11  C   UNL     1      -4.830  12.480  19.380  0.00  0.00    +0.000 A 
ATOM     12  C   UNL     1      -5.858  13.018  20.156  0.00  0.00    +0.000 A 
ATOM     13  C   UNL     1      -7.148  13.128  19.627  0.00  0.00    +0.000 A 
ATOM     14  C   UNL     1      -7.411  12.708  18.321  0.00  0.00    +0.000 A 
ATOM     15  C   UNL     1      -6.392  12.162  17.544  0.00  0.00    +0.000 A 
ATOM     16  C   UNL     1      -5.117  12.047  18.089  0.00  0.00    +0.000 A 
ATOM     17  O   UNL     1      -4.122  11.457  17.293  0.00  0.00    +0.000 OA
ATOM     18  C   UNL     1      -2.840  11.239  17.782  0.00  0.00    +0.000 A 
ATOM     19  O   UNL     1      -2.014  10.615  17.121  0.00  0.00    +0.000 OA
ENDBRANCH   6   9
ENDBRANCH   4   7
ENDBRANCH   3   4
ENDBRANCH   2   3
ENDBRANCH   1   2
BRANCH   1  20
ATOM     20  C   UNL     1       1.419   8.854  19.161  0.00  0.00    +0.000 C 
BRANCH  20  21
ATOM     21  C   UNL     1       2.485   8.158  18.332  0.00  0.00    +0.000 C 
BRANCH  21  22
ATOM     22  N   UNL     1       2.178   6.833  17.849  0.00  0.00    +0.000 N 
ATOM     23  H   UNL     1       2.038   6.807  16.841  0.00  0.00    +0.000 HD
BRANCH  22  24
ATOM     24  C   UNL     1       3.017   5.744  18.257  0.00  0.00    +0.000 A 
ATOM     25  C   UNL     1       4.230   5.600  17.525  0.00  0.00    +0.000 A 
ATOM     26  C   UNL     1       5.069   4.529  17.837  0.00  0.00    +0.000 A 
ATOM     27  N   UNL     1       4.780   3.626  18.795  0.00  0.00    +0.000 NA
ATOM     28  C   UNL     1       3.639   3.730  19.482  0.00  0.00    +0.000 A 
ATOM     29  C   UNL     1       3.444   2.750  20.450  0.00  0.00    +0.000 A 
ATOM     30  C   UNL     1       2.313   2.700  21.261  0.00  0.00    +0.000 A 
ATOM     31  C   UNL     1       1.340   3.649  21.093  0.00  0.00    +0.000 A 
ATOM     32  C   UNL     1       1.523   4.639  20.124  0.00  0.00    +0.000 A 
ATOM     33  C   UNL     1       2.680   4.744  19.271  0.00  0.00    +0.000 A 
ATOM     34  C   UNL     1       6.328   4.226  17.064  0.00  0.00    +0.000 C 
ATOM     35  C   UNL     1       6.792   5.328  16.120  0.00  0.00    +0.000 C 
ATOM     36  C   UNL     1       5.604   5.974  15.427  0.00  0.00    +0.000 C 
ATOM     37  C   UNL     1       4.670   6.592  16.467  0.00  0.00    +0.000 C 
ENDBRANCH  22  24
ENDBRANCH  21  22
ENDBRANCH  20  21
ENDBRANCH   1  20
TORSDOF 9
ENDMDL
MODEL 5
REMARK VINA RESULT:      -8.8      2.576      3.994
REMARK  Name = 
REMARK  9 active torsions:
REMARK  status: ('A' for Active; 'I' for Inactive)
REMARK    1  A    between atoms: C_2  and  C_25
REMARK    2  A    between atoms: N_3  and  C_4
REMARK    3  A    between atoms: C_4  and  C_5
REMARK    4  A    between atoms: C_5  and  C_6
REMARK    5  A    between atoms: C_6  and  C_7
REMARK    6  A    between atoms: C_7  and  C_8
REMARK    7  A    between atoms: C_8  and  C_9
REMARK    8  A    between atoms: C_9  and  N_10
REMARK    9  A    between atoms: N_10  and  C_11
REMARK                            x       y       z     vdW  Elec       q    Type
REMARK                         _______ _______ _______ _____ _____    ______ ____
ROOT
ATOM      1  C   UNL     1      -0.186  10.985  21.321  0.00  0.00    +0.000 C 
ENDROOT
BRANCH   1   2
ATOM      2  C   UNL     1      -0.119   9.538  21.843  0.00  0.00    +0.000 C 
BRANCH   2   3
ATOM      3  C   UNL     1       1.212   8.838  21.565  0.00  0.00    +0.000 C 
BRANCH   3   4
ATOM      4  C   UNL     1       1.062   7.321  21.459  0.00  0.00    +0.000 C 
BRANCH   4   7
ATOM      5  O   UNL     1       1.279   4.607  20.701  0.00  0.00    +0.000 OA
ATOM      6  C   UNL     1       1.966   5.447  20.127  0.00  0.00    +0.000 C 
ATOM      7  N   UNL     1       1.933   6.780  20.443  0.00  0.00    +0.000 N 
ATOM      8  H   UNL     1       2.457   7.438  19.867  0.00  0.00    +0.000 HD
BRANCH   6   9
ATOM      9  C   UNL     1       2.922   5.073  19.043  0.00  0.00    +0.000 A 
ATOM     10  C   UNL     1       4.217   5.345  19.271  0.00  0.00    +0.000 A 
ATOM     11  C   UNL     1       5.223   5.022  18.275  0.00  0.00    +0.000 A 
ATOM     12  C   UNL     1       6.570   5.346  18.449  0.00  0.00    +0.000 A 
ATOM     13  C   UNL     1       7.505   4.989  17.472  0.00  0.00    +0.000 A 
ATOM     14  C   UNL     1       7.098   4.302  16.326  0.00  0.00    +0.000 A 
ATOM     15  C   UNL     1       5.754   3.983  16.143  0.00  0.00    +0.000 A 
ATOM     16  C   UNL     1       4.835   4.357  17.117  0.00  0.00    +0.000 A 
ATOM     17  O   UNL     1       3.483   4.055  16.883  0.00  0.00    +0.000 OA
ATOM     18  C   UNL     1       2.490   4.454  17.769  0.00  0.00    +0.000 A 
ATOM     19  O   UNL     1       1.303   4.290  17.496  0.00  0.00    +0.000 OA
ENDBRANCH   6   9
ENDBRANCH   4   7
ENDBRANCH   3   4
ENDBRANCH   2   3
ENDBRANCH   1   2
BRANCH   1  20
ATOM     20  C   UNL     1      -0.938  11.136  19.978  0.00  0.00    +0.000 C 
BRANCH  20  21
ATOM     21  C   UNL     1      -0.998  12.609  19.611  0.00  0.00    +0.000 C 
BRANCH  21  22
ATOM     22  N   UNL     1      -2.303  13.165  19.345  0.00  0.00    +0.000 N 
ATOM     23  H   UNL     1      -2.606  13.011  18.385  0.00  0.00    +0.000 HD
BRANCH  22  24
ATOM     24  C   UNL     1      -3.372  12.868  20.253  0.00  0.00    +0.000 A 
ATOM     25  C   UNL     1      -4.520  12.263  19.666  0.00  0.00    +0.000 A 
ATOM     26  C   UNL     1      -5.618  11.994  20.485  0.00  0.00    +0.000 A 
ATOM     27  N   UNL     1      -5.641  12.285  21.801  0.00  0.00    +0.000 NA
ATOM     28  C   UNL     1      -4.583  12.871  22.368  0.00  0.00    +0.000 A 
ATOM     29  C   UNL     1      -4.711  13.122  23.731  0.00  0.00    +0.000 A 
ATOM     30  C   UNL     1      -3.709  13.725  24.488  0.00  0.00    +0.000 A 
ATOM     31  C   UNL     1      -2.551  14.103  23.864  0.00  0.00    +0.000 A 
ATOM     32  C   UNL     1      -2.409  13.857  22.496  0.00  0.00    +0.000 A 
ATOM     33  C   UNL     1      -3.407  13.223  21.672  0.00  0.00    +0.000 A 
ATOM     34  C   UNL     1      -6.918  11.444  19.953  0.00  0.00    +0.000 C 
ATOM     35  C   UNL     1      -6.863  10.914  18.526  0.00  0.00    +0.000 C 
ATOM     36  C   UNL     1      -5.996  11.809  17.655  0.00  0.00    +0.000 C 
ATOM     37  C   UNL     1      -4.572  11.848  18.209  0.00  0.00    +0.000 C 
ENDBRANCH  22  24
ENDBRANCH  21  22
ENDBRANCH  20  21
ENDBRANCH   1  20
TORSDOF 9
ENDMDL
MODEL 6
REMARK VINA RESULT:      -8.8      3.965     11.498
REMARK  Name = 
REMARK  9 active torsions:
REMARK  status: ('A' for Active; 'I' for Inactive)
REMARK    1  A    between atoms: C_2  and  C_25
REMARK    2  A    between atoms: N_3  and  C_4
REMARK    3  A    between atoms: C_4  and  C_5
REMARK    4  A    between atoms: C_5  and  C_6
REMARK    5  A    between atoms: C_6  and  C_7
REMARK    6  A    between atoms: C_7  and  C_8
REMARK    7  A    between atoms: C_8  and  C_9
REMARK    8  A    between atoms: C_9  and  N_10
REMARK    9  A    between atoms: N_10  and  C_11
REMARK                            x       y       z     vdW  Elec       q    Type
REMARK                         _______ _______ _______ _____ _____    ______ ____
ROOT
ATOM      1  C   UNL     1       1.252   8.811  17.519  0.00  0.00    +0.000 C 
ENDROOT
BRANCH   1   2
ATOM      2  C   UNL     1       0.623  10.028  18.223  0.00  0.00    +0.000 C 
BRANCH   2   3
ATOM      3  C   UNL     1       1.621  11.137  18.557  0.00  0.00    +0.000 C 
BRANCH   3   4
ATOM      4  C   UNL     1       0.945  12.495  18.741  0.00  0.00    +0.000 C 
BRANCH   4   7
ATOM      5  O   UNL     1      -1.875  12.299  18.677  0.00  0.00    +0.000 OA
ATOM      6  C   UNL     1      -1.303  12.375  19.761  0.00  0.00    +0.000 C 
ATOM      7  N   UNL     1       0.058  12.488  19.879  0.00  0.00    +0.000 N 
ATOM      8  H   UNL     1       0.477  12.452  20.808  0.00  0.00    +0.000 HD
BRANCH   6   9
ATOM      9  C   UNL     1      -2.058  12.375  21.049  0.00  0.00    +0.000 A 
ATOM     10  C   UNL     1      -3.342  12.762  20.986  0.00  0.00    +0.000 A 
ATOM     11  C   UNL     1      -4.159  12.800  22.185  0.00  0.00    +0.000 A 
ATOM     12  C   UNL     1      -5.478  13.255  22.171  0.00  0.00    +0.000 A 
ATOM     13  C   UNL     1      -6.233  13.246  23.349  0.00  0.00    +0.000 A 
ATOM     14  C   UNL     1      -5.673  12.776  24.539  0.00  0.00    +0.000 A 
ATOM     15  C   UNL     1      -4.354  12.329  24.562  0.00  0.00    +0.000 A 
ATOM     16  C   UNL     1      -3.613  12.356  23.385  0.00  0.00    +0.000 A 
ATOM     17  O   UNL     1      -2.275  11.935  23.452  0.00  0.00    +0.000 OA
ATOM     18  C   UNL     1      -1.442  11.996  22.340  0.00  0.00    +0.000 A 
ATOM     19  O   UNL     1      -0.244  11.738  22.439  0.00  0.00    +0.000 OA
ENDBRANCH   6   9
ENDBRANCH   4   7
ENDBRANCH   3   4
ENDBRANCH   2   3
ENDBRANCH   1   2
BRANCH   1  20
ATOM     20  C   UNL     1       2.597   8.356  18.131  0.00  0.00    +0.000 C 
BRANCH  20  21
ATOM     21  C   UNL     1       2.318   7.577  19.406  0.00  0.00    +0.000 C 
BRANCH  21  22
ATOM     22  N   UNL     1       3.275   6.563  19.777  0.00  0.00    +0.000 N 
ATOM     23  H   UNL     1       3.105   6.184  20.706  0.00  0.00    +0.000 HD
BRANCH  22  24
ATOM     24  C   UNL     1       3.538   5.498  18.852  0.00  0.00    +0.000 A 
ATOM     25  C   UNL     1       2.632   4.401  18.911  0.00  0.00    +0.000 A 
ATOM     26  C   UNL     1       2.859   3.309  18.073  0.00  0.00    +0.000 A 
ATOM     27  N   UNL     1       3.898   3.244  17.217  0.00  0.00    +0.000 NA
ATOM     28  C   UNL     1       4.772   4.253  17.159  0.00  0.00    +0.000 A 
ATOM     29  C   UNL     1       5.802   4.085  16.237  0.00  0.00    +0.000 A 
ATOM     30  C   UNL     1       6.803   5.034  16.039  0.00  0.00    +0.000 A 
ATOM     31  C   UNL     1       6.784   6.177  16.792  0.00  0.00    +0.000 A 
ATOM     32  C   UNL     1       5.756   6.358  17.721  0.00  0.00    +0.000 A 
ATOM     33  C   UNL     1       4.690   5.416  17.953  0.00  0.00    +0.000 A 
ATOM     34  C   UNL     1       2.021   2.055  18.120  0.00  0.00    +0.000 C 
ATOM     35  C   UNL     1       0.728   2.168  18.917  0.00  0.00    +0.000 C 
ATOM     36  C   UNL     1       0.945   2.992  20.176  0.00  0.00    +0.000 C 
ATOM     37  C   UNL     1       1.404   4.401  19.800  0.00  0.00    +0.000 C 
ENDBRANCH  22  24
ENDBRANCH  21  22
ENDBRANCH  20  21
ENDBRANCH   1  20
TORSDOF 9
ENDMDL
MODEL 7
REMARK VINA RESULT:      -8.8      5.806      9.115
REMARK  Name = 
REMARK  9 active torsions:
REMARK  status: ('A' for Active; 'I' for Inactive)
REMARK    1  A    between atoms: C_2  and  C_25
REMARK    2  A    between atoms: N_3  and  C_4
REMARK    3  A    between atoms: C_4  and  C_5
REMARK    4  A    between atoms: C_5  and  C_6
REMARK    5  A    between atoms: C_6  and  C_7
REMARK    6  A    between atoms: C_7  and  C_8
REMARK    7  A    between atoms: C_8  and  C_9
REMARK    8  A    between atoms: C_9  and  N_10
REMARK    9  A    between atoms: N_10  and  C_11
REMARK                            x       y       z     vdW  Elec       q    Type
REMARK                         _______ _______ _______ _____ _____    ______ ____
ROOT
ATOM      1  C   UNL     1       7.677   6.188  18.588  0.00  0.00    +0.000 C 
ENDROOT
BRANCH   1   2
ATOM      2  C   UNL     1       7.608   7.038  17.305  0.00  0.00    +0.000 C 
BRANCH   2   3
ATOM      3  C   UNL     1       7.526   8.543  17.560  0.00  0.00    +0.000 C 
BRANCH   3   4
ATOM      4  C   UNL     1       8.578   9.024  18.558  0.00  0.00    +0.000 C 
BRANCH   4   7
ATOM      5  O   UNL     1       9.459  10.963  20.416  0.00  0.00    +0.000 OA
ATOM      6  C   UNL     1       9.435  11.245  19.221  0.00  0.00    +0.000 C 
ATOM      7  N   UNL     1       9.008  10.368  18.258  0.00  0.00    +0.000 N 
ATOM      8  H   UNL     1       9.100  10.630  17.276  0.00  0.00    +0.000 HD
BRANCH   6   9
ATOM      9  C   UNL     1       9.851  12.588  18.722  0.00  0.00    +0.000 A 
ATOM     10  C   UNL     1       8.992  13.597  18.942  0.00  0.00    +0.000 A 
ATOM     11  C   UNL     1       9.304  14.941  18.491  0.00  0.00    +0.000 A 
ATOM     12  C   UNL     1       8.411  16.002  18.646  0.00  0.00    +0.000 A 
ATOM     13  C   UNL     1       8.770  17.285  18.220  0.00  0.00    +0.000 A 
ATOM     14  C   UNL     1      10.023  17.511  17.645  0.00  0.00    +0.000 A 
ATOM     15  C   UNL     1      10.916  16.454  17.480  0.00  0.00    +0.000 A 
ATOM     16  C   UNL     1      10.539  15.182  17.898  0.00  0.00    +0.000 A 
ATOM     17  O   UNL     1      11.447  14.132  17.681  0.00  0.00    +0.000 OA
ATOM     18  C   UNL     1      11.124  12.820  18.003  0.00  0.00    +0.000 A 
ATOM     19  O   UNL     1      11.876  11.896  17.699  0.00  0.00    +0.000 OA
ENDBRANCH   6   9
ENDBRANCH   4   7
ENDBRANCH   3   4
ENDBRANCH   2   3
ENDBRANCH   1   2
BRANCH   1  20
ATOM     20  C   UNL     1       6.365   5.442  18.921  0.00  0.00    +0.000 C 
BRANCH  20  21
ATOM     21  C   UNL     1       5.762   4.910  17.632  0.00  0.00    +0.000 C 
BRANCH  21  22
ATOM     22  N   UNL     1       4.390   5.264  17.355  0.00  0.00    +0.000 N 
ATOM     23  H   UNL     1       3.971   4.676  16.638  0.00  0.00    +0.000 HD
BRANCH  22  24
ATOM     24  C   UNL     1       3.486   5.416  18.458  0.00  0.00    +0.000 A 
ATOM     25  C   UNL     1       2.858   6.689  18.561  0.00  0.00    +0.000 A 
ATOM     26  C   UNL     1       2.005   6.921  19.642  0.00  0.00    +0.000 A 
ATOM     27  N   UNL     1       1.755   5.997  20.591  0.00  0.00    +0.000 NA
ATOM     28  C   UNL     1       2.349   4.803  20.525  0.00  0.00    +0.000 A 
ATOM     29  C   UNL     1       2.016   3.924  21.552  0.00  0.00    +0.000 A 
ATOM     30  C   UNL     1       2.538   2.635  21.645  0.00  0.00    +0.000 A 
ATOM     31  C   UNL     1       3.429   2.216  20.695  0.00  0.00    +0.000 A 
ATOM     32  C   UNL     1       3.772   3.088  19.659  0.00  0.00    +0.000 A 
ATOM     33  C   UNL     1       3.250   4.423  19.507  0.00  0.00    +0.000 A 
ATOM     34  C   UNL     1       1.362   8.261  19.902  0.00  0.00    +0.000 C 
ATOM     35  C   UNL     1       1.453   9.258  18.754  0.00  0.00    +0.000 C 
ATOM     36  C   UNL     1       2.813   9.178  18.081  0.00  0.00    +0.000 C 
ATOM     37  C   UNL     1       3.031   7.775  17.518  0.00  0.00    +0.000 C 
ENDBRANCH  22  24
ENDBRANCH  21  22
ENDBRANCH  20  21
ENDBRANCH   1  20
TORSDOF 9
ENDMDL
MODEL 8
REMARK VINA RESULT:      -8.7      5.610      9.740
REMARK  Name = 
REMARK  9 active torsions:
REMARK  status: ('A' for Active; 'I' for Inactive)
REMARK    1  A    between atoms: C_2  and  C_25
REMARK    2  A    between atoms: N_3  and  C_4
REMARK    3  A    between atoms: C_4  and  C_5
REMARK    4  A    between atoms: C_5  and  C_6
REMARK    5  A    between atoms: C_6  and  C_7
REMARK    6  A    between atoms: C_7  and  C_8
REMARK    7  A    between atoms: C_8  and  C_9
REMARK    8  A    between atoms: C_9  and  N_10
REMARK    9  A    between atoms: N_10  and  C_11
REMARK                            x       y       z     vdW  Elec       q    Type
REMARK                         _______ _______ _______ _____ _____    ______ ____
ROOT
ATOM      1  C   UNL     1       1.831  10.354  18.233  0.00  0.00    +0.000 C 
ENDROOT
BRANCH   1   2
ATOM      2  C   UNL     1       0.950  11.470  18.824  0.00  0.00    +0.000 C 
BRANCH   2   3
ATOM      3  C   UNL     1       1.739  12.587  19.510  0.00  0.00    +0.000 C 
BRANCH   3   4
ATOM      4  C   UNL     1       2.102  13.718  18.550  0.00  0.00    +0.000 C 
BRANCH   4   7
ATOM      5  O   UNL     1       3.441  15.778  17.152  0.00  0.00    +0.000 OA
ATOM      6  C   UNL     1       4.083  15.045  17.900  0.00  0.00    +0.000 C 
ATOM      7  N   UNL     1       3.514  14.015  18.602  0.00  0.00    +0.000 N 
ATOM      8  H   UNL     1       4.083  13.503  19.277  0.00  0.00    +0.000 HD
BRANCH   6   9
ATOM      9  C   UNL     1       5.555  15.206  18.085  0.00  0.00    +0.000 A 
ATOM     10  C   UNL     1       6.312  14.135  17.796  0.00  0.00    +0.000 A 
ATOM     11  C   UNL     1       7.755  14.192  17.948  0.00  0.00    +0.000 A 
ATOM     12  C   UNL     1       8.569  13.082  17.718  0.00  0.00    +0.000 A 
ATOM     13  C   UNL     1       9.957  13.195  17.850  0.00  0.00    +0.000 A 
ATOM     14  C   UNL     1      10.533  14.416  18.206  0.00  0.00    +0.000 A 
ATOM     15  C   UNL     1       9.725  15.526  18.446  0.00  0.00    +0.000 A 
ATOM     16  C   UNL     1       8.346  15.394  18.322  0.00  0.00    +0.000 A 
ATOM     17  O   UNL     1       7.558  16.521  18.609  0.00  0.00    +0.000 OA
ATOM     18  C   UNL     1       6.170  16.459  18.579  0.00  0.00    +0.000 A 
ATOM     19  O   UNL     1       5.491  17.415  18.947  0.00  0.00    +0.000 OA
ENDBRANCH   6   9
ENDBRANCH   4   7
ENDBRANCH   3   4
ENDBRANCH   2   3
ENDBRANCH   1   2
BRANCH   1  20
ATOM     20  C   UNL     1       1.488   8.939  18.755  0.00  0.00    +0.000 C 
BRANCH  20  21
ATOM     21  C   UNL     1       2.152   7.910  17.855  0.00  0.00    +0.000 C 
BRANCH  21  22
ATOM     22  N   UNL     1       3.355   7.286  18.351  0.00  0.00    +0.000 N 
ATOM     23  H   UNL     1       3.576   7.564  19.305  0.00  0.00    +0.000 HD
BRANCH  22  24
ATOM     24  C   UNL     1       3.500   5.867  18.206  0.00  0.00    +0.000 A 
ATOM     25  C   UNL     1       4.416   5.447  17.200  0.00  0.00    +0.000 A 
ATOM     26  C   UNL     1       4.567   4.078  16.971  0.00  0.00    +0.000 A 
ATOM     27  N   UNL     1       3.882   3.140  17.654  0.00  0.00    +0.000 NA
ATOM     28  C   UNL     1       3.003   3.511  18.589  0.00  0.00    +0.000 A 
ATOM     29  C   UNL     1       2.355   2.463  19.237  0.00  0.00    +0.000 A 
ATOM     30  C   UNL     1       1.407   2.660  20.238  0.00  0.00    +0.000 A 
ATOM     31  C   UNL     1       1.085   3.942  20.595  0.00  0.00    +0.000 A 
ATOM     32  C   UNL     1       1.727   5.004  19.953  0.00  0.00    +0.000 A 
ATOM     33  C   UNL     1       2.724   4.854  18.923  0.00  0.00    +0.000 A 
ATOM     34  C   UNL     1       5.436   3.525  15.868  0.00  0.00    +0.000 C 
ATOM     35  C   UNL     1       6.376   4.531  15.217  0.00  0.00    +0.000 C 
ATOM     36  C   UNL     1       5.688   5.876  15.049  0.00  0.00    +0.000 C 
ATOM     37  C   UNL     1       5.273   6.420  16.415  0.00  0.00    +0.000 C 
ENDBRANCH  22  24
ENDBRANCH  21  22
ENDBRANCH  20  21
ENDBRANCH   1  20
TORSDOF 9
ENDMDL
MODEL 9
REMARK VINA RESULT:      -8.7      2.271      4.581
REMARK  Name = 
REMARK  9 active torsions:
REMARK  status: ('A' for Active; 'I' for Inactive)
REMARK    1  A    between atoms: C_2  and  C_25
REMARK    2  A    between atoms: N_3  and  C_4
REMARK    3  A    between atoms: C_4  and  C_5
REMARK    4  A    between atoms: C_5  and  C_6
REMARK    5  A    between atoms: C_6  and  C_7
REMARK    6  A    between atoms: C_7  and  C_8
REMARK    7  A    between atoms: C_8  and  C_9
REMARK    8  A    between atoms: C_9  and  N_10
REMARK    9  A    between atoms: N_10  and  C_11
REMARK                            x       y       z     vdW  Elec       q    Type
REMARK                         _______ _______ _______ _____ _____    ______ ____
ROOT
ATOM      1  C   UNL     1      -0.310   9.872  22.936  0.00  0.00    +0.000 C 
ENDROOT
BRANCH   1   2
ATOM      2  C   UNL     1      -0.766   8.822  21.905  0.00  0.00    +0.000 C 
BRANCH   2   3
ATOM      3  C   UNL     1       0.249   8.563  20.791  0.00  0.00    +0.000 C 
BRANCH   3   4
ATOM      4  C   UNL     1       1.537   7.927  21.312  0.00  0.00    +0.000 C 
BRANCH   4   7
ATOM      5  O   UNL     1       1.572   5.150  20.784  0.00  0.00    +0.000 OA
ATOM      6  C   UNL     1       2.209   5.907  20.057  0.00  0.00    +0.000 C 
ATOM      7  N   UNL     1       2.258   7.263  20.253  0.00  0.00    +0.000 N 
ATOM      8  H   UNL     1       2.728   7.845  19.560  0.00  0.00    +0.000 HD
BRANCH   6   9
ATOM      9  C   UNL     1       3.012   5.400  18.905  0.00  0.00    +0.000 A 
ATOM     10  C   UNL     1       4.256   5.891  18.785  0.00  0.00    +0.000 A 
ATOM     11  C   UNL     1       5.114   5.462  17.695  0.00  0.00    +0.000 A 
ATOM     12  C   UNL     1       6.389   5.995  17.500  0.00  0.00    +0.000 A 
ATOM     13  C   UNL     1       7.188   5.528  16.451  0.00  0.00    +0.000 A 
ATOM     14  C   UNL     1       6.717   4.525  15.600  0.00  0.00    +0.000 A 
ATOM     15  C   UNL     1       5.441   3.995  15.784  0.00  0.00    +0.000 A 
ATOM     16  C   UNL     1       4.655   4.479  16.824  0.00  0.00    +0.000 A 
ATOM     17  O   UNL     1       3.360   3.951  16.957  0.00  0.00    +0.000 OA
ATOM     18  C   UNL     1       2.482   4.427  17.924  0.00  0.00    +0.000 A 
ATOM     19  O   UNL     1       1.315   4.043  17.954  0.00  0.00    +0.000 OA
ENDBRANCH   6   9
ENDBRANCH   4   7
ENDBRANCH   3   4
ENDBRANCH   2   3
ENDBRANCH   1   2
BRANCH   1  20
ATOM     20  C   UNL     1      -0.378  11.329  22.423  0.00  0.00    +0.000 C 
BRANCH  20  21
ATOM     21  C   UNL     1      -1.836  11.725  22.261  0.00  0.00    +0.000 C 
BRANCH  21  22
ATOM     22  N   UNL     1      -2.138  12.720  21.260  0.00  0.00    +0.000 N 
ATOM     23  H   UNL     1      -1.302  13.165  20.886  0.00  0.00    +0.000 HD
BRANCH  22  24
ATOM     24  C   UNL     1      -3.029  12.370  20.193  0.00  0.00    +0.000 A 
ATOM     25  C   UNL     1      -4.368  12.833  20.340  0.00  0.00    +0.000 A 
ATOM     26  C   UNL     1      -5.300  12.484  19.361  0.00  0.00    +0.000 A 
ATOM     27  N   UNL     1      -4.991  11.725  18.291  0.00  0.00    +0.000 NA
ATOM     28  C   UNL     1      -3.747  11.263  18.143  0.00  0.00    +0.000 A 
ATOM     29  C   UNL     1      -3.536  10.495  17.001  0.00  0.00    +0.000 A 
ATOM     30  C   UNL     1      -2.303   9.932  16.684  0.00  0.00    +0.000 A 
ATOM     31  C   UNL     1      -1.251  10.127  17.538  0.00  0.00    +0.000 A 
ATOM     32  C   UNL     1      -1.448  10.895  18.688  0.00  0.00    +0.000 A 
ATOM     33  C   UNL     1      -2.698  11.513  19.054  0.00  0.00    +0.000 A 
ATOM     34  C   UNL     1      -6.763  12.839  19.463  0.00  0.00    +0.000 C 
ATOM     35  C   UNL     1      -7.110  13.860  20.539  0.00  0.00    +0.000 C 
ATOM     36  C   UNL     1      -6.291  13.613  21.796  0.00  0.00    +0.000 C 
ATOM     37  C   UNL     1      -4.802  13.736  21.477  0.00  0.00    +0.000 C 
ENDBRANCH  22  24
ENDBRANCH  21  22
ENDBRANCH  20  21
ENDBRANCH   1  20
TORSDOF 9
ENDMDL
