MODEL 1
REMARK VINA RESULT:      -5.2      0.000      0.000
REMARK  Name = 
REMARK  4 active torsions:
REMARK  status: ('A' for Active; 'I' for Inactive)
REMARK    1  A    between atoms: C_2  and  O_3
REMARK    2  A    between atoms: C_2  and  C_7
REMARK    3  A    between atoms: O_3  and  C_4
REMARK    4  A    between atoms: C_4  and  C_5
REMARK                            x       y       z     vdW  Elec       q    Type
REMARK                         _______ _______ _______ _____ _____    ______ ____
ROOT
ATOM      1  O   UNL     1       7.671   5.433  14.791  0.00  0.00    +0.000 OA
ATOM      2  C   UNL     1       6.925   4.573  15.229  0.00  0.00    +0.000 C 
ENDROOT
BRANCH   2   3
ATOM      3  C   UNL     1       6.422   4.533  16.631  0.00  0.00    +0.000 A 
ATOM      4  C   UNL     1       7.311   4.765  17.675  0.00  0.00    +0.000 A 
ATOM      5  N   UNL     1       6.901   4.887  18.966  0.00  0.00    +0.000 NA
ATOM      6  C   UNL     1       5.566   4.777  19.163  0.00  0.00    +0.000 A 
ATOM      7  C   UNL     1       4.680   4.537  18.127  0.00  0.00    +0.000 A 
ATOM      8  N   UNL     1       5.084   4.404  16.843  0.00  0.00    +0.000 NA
ENDBRANCH   2   3
BRANCH   2   9
ATOM      9  O   UNL     1       6.309   3.608  14.503  0.00  0.00    +0.000 OA
BRANCH   9  10
ATOM     10  C   UNL     1       5.567   4.081  13.372  0.00  0.00    +0.000 C 
BRANCH  10  11
ATOM     11  C   UNL     1       5.709   3.174  12.164  0.00  0.00    +0.000 C 
ATOM     12 CL   UNL     1       4.161   3.085  11.285  0.00  0.00    +0.000 Cl
ENDBRANCH  10  11
ENDBRANCH   9  10
ENDBRANCH   2   9
TORSDOF 4
ENDMDL
MODEL 2
REMARK VINA RESULT:      -5.2      1.086      1.086
REMARK  Name = 
REMARK  4 active torsions:
REMARK  status: ('A' for Active; 'I' for Inactive)
REMARK    1  A    between atoms: C_2  and  O_3
REMARK    2  A    between atoms: C_2  and  C_7
REMARK    3  A    between atoms: O_3  and  C_4
REMARK    4  A    between atoms: C_4  and  C_5
REMARK                            x       y       z     vdW  Elec       q    Type
REMARK                         _______ _______ _______ _____ _____    ______ ____
ROOT
ATOM      1  O   UNL     1       7.599   5.357  14.417  0.00  0.00    +0.000 OA
ATOM      2  C   UNL     1       6.749   4.555  14.771  0.00  0.00    +0.000 C 
ENDROOT
BRANCH   2   3
ATOM      3  C   UNL     1       6.326   4.350  16.184  0.00  0.00    +0.000 A 
ATOM      4  C   UNL     1       7.238   4.596  17.205  0.00  0.00    +0.000 A 
ATOM      5  N   UNL     1       6.884   4.570  18.518  0.00  0.00    +0.000 NA
ATOM      6  C   UNL     1       5.580   4.299  18.762  0.00  0.00    +0.000 A 
ATOM      7  C   UNL     1       4.673   4.044  17.748  0.00  0.00    +0.000 A 
ATOM      8  N   UNL     1       5.022   4.058  16.442  0.00  0.00    +0.000 NA
ENDBRANCH   2   3
BRANCH   2   9
ATOM      9  O   UNL     1       5.945   3.833  13.951  0.00  0.00    +0.000 OA
BRANCH   9  10
ATOM     10  C   UNL     1       6.437   3.660  12.617  0.00  0.00    +0.000 C 
BRANCH  10  11
ATOM     11  C   UNL     1       5.656   2.615  11.841  0.00  0.00    +0.000 C 
ATOM     12 CL   UNL     1       6.779   1.475  11.057  0.00  0.00    +0.000 Cl
ENDBRANCH  10  11
ENDBRANCH   9  10
ENDBRANCH   2   9
TORSDOF 4
ENDMDL
MODEL 3
REMARK VINA RESULT:      -5.1      1.321      1.649
REMARK  Name = 
REMARK  4 active torsions:
REMARK  status: ('A' for Active; 'I' for Inactive)
REMARK    1  A    between atoms: C_2  and  O_3
REMARK    2  A    between atoms: C_2  and  C_7
REMARK    3  A    between atoms: O_3  and  C_4
REMARK    4  A    between atoms: C_4  and  C_5
REMARK                            x       y       z     vdW  Elec       q    Type
REMARK                         _______ _______ _______ _____ _____    ______ ____
ROOT
ATOM      1  O   UNL     1       7.780   5.601  14.039  0.00  0.00    +0.000 OA
ATOM      2  C   UNL     1       7.200   4.906  14.858  0.00  0.00    +0.000 C 
ENDROOT
BRANCH   2   3
ATOM      3  C   UNL     1       7.035   5.264  16.295  0.00  0.00    +0.000 A 
ATOM      4  C   UNL     1       6.545   4.307  17.177  0.00  0.00    +0.000 A 
ATOM      5  N   UNL     1       6.503   4.512  18.521  0.00  0.00    +0.000 NA
ATOM      6  C   UNL     1       6.980   5.707  18.941  0.00  0.00    +0.000 A 
ATOM      7  C   UNL     1       7.459   6.665  18.064  0.00  0.00    +0.000 A 
ATOM      8  N   UNL     1       7.493   6.471  16.726  0.00  0.00    +0.000 NA
ENDBRANCH   2   3
BRANCH   2   9
ATOM      9  O   UNL     1       6.482   3.788  14.588  0.00  0.00    +0.000 OA
BRANCH   9  10
ATOM     10  C   UNL     1       5.675   3.855  13.406  0.00  0.00    +0.000 C 
BRANCH  10  11
ATOM     11  C   UNL     1       6.402   3.341  12.177  0.00  0.00    +0.000 C 
ATOM     12 CL   UNL     1       5.529   1.945  11.495  0.00  0.00    +0.000 Cl
ENDBRANCH  10  11
ENDBRANCH   9  10
ENDBRANCH   2   9
TORSDOF 4
ENDMDL
MODEL 4
REMARK VINA RESULT:      -5.1      1.239      1.760
REMARK  Name = 
REMARK  4 active torsions:
REMARK  status: ('A' for Active; 'I' for Inactive)
REMARK    1  A    between atoms: C_2  and  O_3
REMARK    2  A    between atoms: C_2  and  C_7
REMARK    3  A    between atoms: O_3  and  C_4
REMARK    4  A    between atoms: C_4  and  C_5
REMARK                            x       y       z     vdW  Elec       q    Type
REMARK                         _______ _______ _______ _____ _____    ______ ____
ROOT
ATOM      1  O   UNL     1       7.792   5.579  13.443  0.00  0.00    +0.000 OA
ATOM      2  C   UNL     1       7.099   4.810  14.088  0.00  0.00    +0.000 C 
ENDROOT
BRANCH   2   3
ATOM      3  C   UNL     1       6.661   5.051  15.492  0.00  0.00    +0.000 A 
ATOM      4  C   UNL     1       5.679   4.234  16.043  0.00  0.00    +0.000 A 
ATOM      5  N   UNL     1       5.332   4.300  17.356  0.00  0.00    +0.000 NA
ATOM      6  C   UNL     1       6.015   5.208  18.092  0.00  0.00    +0.000 A 
ATOM      7  C   UNL     1       6.986   6.029  17.543  0.00  0.00    +0.000 A 
ATOM      8  N   UNL     1       7.327   5.975  16.236  0.00  0.00    +0.000 NA
ENDBRANCH   2   3
BRANCH   2   9
ATOM      9  O   UNL     1       6.486   3.699  13.610  0.00  0.00    +0.000 OA
BRANCH   9  10
ATOM     10  C   UNL     1       6.430   3.603  12.182  0.00  0.00    +0.000 C 
BRANCH  10  11
ATOM     11  C   UNL     1       5.511   2.492  11.710  0.00  0.00    +0.000 C 
ATOM     12 CL   UNL     1       3.945   3.173  11.201  0.00  0.00    +0.000 Cl
ENDBRANCH  10  11
ENDBRANCH   9  10
ENDBRANCH   2   9
TORSDOF 4
ENDMDL
MODEL 5
REMARK VINA RESULT:      -5.1      1.713      1.949
REMARK  Name = 
REMARK  4 active torsions:
REMARK  status: ('A' for Active; 'I' for Inactive)
REMARK    1  A    between atoms: C_2  and  O_3
REMARK    2  A    between atoms: C_2  and  C_7
REMARK    3  A    between atoms: O_3  and  C_4
REMARK    4  A    between atoms: C_4  and  C_5
REMARK                            x       y       z     vdW  Elec       q    Type
REMARK                         _______ _______ _______ _____ _____    ______ ____
ROOT
ATOM      1  O   UNL     1       7.524   5.505  13.803  0.00  0.00    +0.000 OA
ATOM      2  C   UNL     1       6.646   4.771  14.225  0.00  0.00    +0.000 C 
ENDROOT
BRANCH   2   3
ATOM      3  C   UNL     1       5.687   5.144  15.303  0.00  0.00    +0.000 A 
ATOM      4  C   UNL     1       5.064   4.135  16.031  0.00  0.00    +0.000 A 
ATOM      5  N   UNL     1       4.291   4.396  17.118  0.00  0.00    +0.000 NA
ATOM      6  C   UNL     1       4.178   5.703  17.450  0.00  0.00    +0.000 A 
ATOM      7  C   UNL     1       4.789   6.709  16.721  0.00  0.00    +0.000 A 
ATOM      8  N   UNL     1       5.549   6.456  15.632  0.00  0.00    +0.000 NA
ENDBRANCH   2   3
BRANCH   2   9
ATOM      9  O   UNL     1       6.288   3.574  13.699  0.00  0.00    +0.000 OA
BRANCH   9  10
ATOM     10  C   UNL     1       6.420   3.472  12.276  0.00  0.00    +0.000 C 
BRANCH  10  11
ATOM     11  C   UNL     1       5.490   2.433  11.679  0.00  0.00    +0.000 C 
ATOM     12 CL   UNL     1       3.947   3.193  11.214  0.00  0.00    +0.000 Cl
ENDBRANCH  10  11
ENDBRANCH   9  10
ENDBRANCH   2   9
TORSDOF 4
ENDMDL
MODEL 6
REMARK VINA RESULT:      -5.0      3.771      5.062
REMARK  Name = 
REMARK  4 active torsions:
REMARK  status: ('A' for Active; 'I' for Inactive)
REMARK    1  A    between atoms: C_2  and  O_3
REMARK    2  A    between atoms: C_2  and  C_7
REMARK    3  A    between atoms: O_3  and  C_4
REMARK    4  A    between atoms: C_4  and  C_5
REMARK                            x       y       z     vdW  Elec       q    Type
REMARK                         _______ _______ _______ _____ _____    ______ ____
ROOT
ATOM      1  O   UNL     1       6.475   5.217  19.750  0.00  0.00    +0.000 OA
ATOM      2  C   UNL     1       5.778   4.718  18.882  0.00  0.00    +0.000 C 
ENDROOT
BRANCH   2   3
ATOM      3  C   UNL     1       6.059   4.813  17.422  0.00  0.00    +0.000 A 
ATOM      4  C   UNL     1       7.066   5.666  16.982  0.00  0.00    +0.000 A 
ATOM      5  N   UNL     1       7.475   5.699  15.686  0.00  0.00    +0.000 NA
ATOM      6  C   UNL     1       6.842   4.837  14.855  0.00  0.00    +0.000 A 
ATOM      7  C   UNL     1       5.832   3.995  15.288  0.00  0.00    +0.000 A 
ATOM      8  N   UNL     1       5.414   3.966  16.574  0.00  0.00    +0.000 NA
ENDBRANCH   2   3
BRANCH   2   9
ATOM      9  O   UNL     1       4.734   3.876  19.085  0.00  0.00    +0.000 OA
BRANCH   9  10
ATOM     10  C   UNL     1       3.599   4.463  19.734  0.00  0.00    +0.000 C 
BRANCH  10  11
ATOM     11  C   UNL     1       2.283   3.979  19.152  0.00  0.00    +0.000 C 
ATOM     12 CL   UNL     1       0.970   4.229  20.330  0.00  0.00    +0.000 Cl
ENDBRANCH  10  11
ENDBRANCH   9  10
ENDBRANCH   2   9
TORSDOF 4
ENDMDL
MODEL 7
REMARK VINA RESULT:      -4.9      3.605      4.620
REMARK  Name = 
REMARK  4 active torsions:
REMARK  status: ('A' for Active; 'I' for Inactive)
REMARK    1  A    between atoms: C_2  and  O_3
REMARK    2  A    between atoms: C_2  and  C_7
REMARK    3  A    between atoms: O_3  and  C_4
REMARK    4  A    between atoms: C_4  and  C_5
REMARK                            x       y       z     vdW  Elec       q    Type
REMARK                         _______ _______ _______ _____ _____    ______ ____
ROOT
ATOM      1  O   UNL     1       7.826   4.391  16.481  0.00  0.00    +0.000 OA
ATOM      2  C   UNL     1       7.297   4.614  17.558  0.00  0.00    +0.000 C 
ENDROOT
BRANCH   2   3
ATOM      3  C   UNL     1       5.868   4.326  17.866  0.00  0.00    +0.000 A 
ATOM      4  C   UNL     1       4.938   4.341  16.832  0.00  0.00    +0.000 A 
ATOM      5  N   UNL     1       3.648   3.949  17.010  0.00  0.00    +0.000 NA
ATOM      6  C   UNL     1       3.334   3.535  18.261  0.00  0.00    +0.000 A 
ATOM      7  C   UNL     1       4.256   3.529  19.294  0.00  0.00    +0.000 A 
ATOM      8  N   UNL     1       5.537   3.928  19.124  0.00  0.00    +0.000 NA
ENDBRANCH   2   3
BRANCH   2   9
ATOM      9  O   UNL     1       7.931   5.007  18.690  0.00  0.00    +0.000 OA
BRANCH   9  10
ATOM     10  C   UNL     1       7.942   6.421  18.919  0.00  0.00    +0.000 C 
BRANCH  10  11
ATOM     11  C   UNL     1       7.623   7.216  17.666  0.00  0.00    +0.000 C 
ATOM     12 CL   UNL     1       8.108   8.916  17.884  0.00  0.00    +0.000 Cl
ENDBRANCH  10  11
ENDBRANCH   9  10
ENDBRANCH   2   9
TORSDOF 4
ENDMDL
MODEL 8
REMARK VINA RESULT:      -4.9      4.386      5.837
REMARK  Name = 
REMARK  4 active torsions:
REMARK  status: ('A' for Active; 'I' for Inactive)
REMARK    1  A    between atoms: C_2  and  O_3
REMARK    2  A    between atoms: C_2  and  C_7
REMARK    3  A    between atoms: O_3  and  C_4
REMARK    4  A    between atoms: C_4  and  C_5
REMARK                            x       y       z     vdW  Elec       q    Type
REMARK                         _______ _______ _______ _____ _____    ______ ____
ROOT
ATOM      1  O   UNL     1       5.139   1.717  20.669  0.00  0.00    +0.000 OA
ATOM      2  C   UNL     1       4.353   2.401  20.034  0.00  0.00    +0.000 C 
ENDROOT
BRANCH   2   3
ATOM      3  C   UNL     1       4.748   3.365  18.969  0.00  0.00    +0.000 A 
ATOM      4  C   UNL     1       4.093   3.324  17.743  0.00  0.00    +0.000 A 
ATOM      5  N   UNL     1       4.298   4.259  16.778  0.00  0.00    +0.000 NA
ATOM      6  C   UNL     1       5.177   5.239  17.096  0.00  0.00    +0.000 A 
ATOM      7  C   UNL     1       5.838   5.276  18.312  0.00  0.00    +0.000 A 
ATOM      8  N   UNL     1       5.646   4.342  19.271  0.00  0.00    +0.000 NA
ENDBRANCH   2   3
BRANCH   2   9
ATOM      9  O   UNL     1       3.001   2.299  20.068  0.00  0.00    +0.000 OA
BRANCH   9  10
ATOM     10  C   UNL     1       2.341   3.261  20.900  0.00  0.00    +0.000 C 
BRANCH  10  11
ATOM     11  C   UNL     1       0.969   3.640  20.373  0.00  0.00    +0.000 C 
ATOM     12 CL   UNL     1       0.584   2.671  18.928  0.00  0.00    +0.000 Cl
ENDBRANCH  10  11
ENDBRANCH   9  10
ENDBRANCH   2   9
TORSDOF 4
ENDMDL
MODEL 9
REMARK VINA RESULT:      -4.9      1.734      2.182
REMARK  Name = 
REMARK  4 active torsions:
REMARK  status: ('A' for Active; 'I' for Inactive)
REMARK    1  A    between atoms: C_2  and  O_3
REMARK    2  A    between atoms: C_2  and  C_7
REMARK    3  A    between atoms: O_3  and  C_4
REMARK    4  A    between atoms: C_4  and  C_5
REMARK                            x       y       z     vdW  Elec       q    Type
REMARK                         _______ _______ _______ _____ _____    ______ ____
ROOT
ATOM      1  O   UNL     1       8.082   4.431  17.423  0.00  0.00    +0.000 OA
ATOM      2  C   UNL     1       7.135   4.990  16.895  0.00  0.00    +0.000 C 
ENDROOT
BRANCH   2   3
ATOM      3  C   UNL     1       5.829   5.243  17.565  0.00  0.00    +0.000 A 
ATOM      4  C   UNL     1       5.534   4.568  18.746  0.00  0.00    +0.000 A 
ATOM      5  N   UNL     1       4.430   4.851  19.488  0.00  0.00    +0.000 NA
ATOM      6  C   UNL     1       3.643   5.841  19.004  0.00  0.00    +0.000 A 
ATOM      7  C   UNL     1       3.929   6.506  17.824  0.00  0.00    +0.000 A 
ATOM      8  N   UNL     1       5.020   6.221  17.077  0.00  0.00    +0.000 NA
ENDBRANCH   2   3
BRANCH   2   9
ATOM      9  O   UNL     1       7.147   5.606  15.687  0.00  0.00    +0.000 OA
BRANCH   9  10
ATOM     10  C   UNL     1       7.236   4.728  14.558  0.00  0.00    +0.000 C 
BRANCH  10  11
ATOM     11  C   UNL     1       5.886   4.166  14.152  0.00  0.00    +0.000 C 
ATOM     12 CL   UNL     1       6.014   3.368  12.564  0.00  0.00    +0.000 Cl
ENDBRANCH  10  11
ENDBRANCH   9  10
ENDBRANCH   2   9
TORSDOF 4
ENDMDL
