MODEL 1
REMARK VINA RESULT:      -7.1      0.000      0.000
REMARK  Name = 
REMARK  5 active torsions:
REMARK  status: ('A' for Active; 'I' for Inactive)
REMARK    1  A    between atoms: C_1  and  C_2
REMARK    2  A    between atoms: C_2  and  C_3
REMARK    3  A    between atoms: C_2  and  C_4
REMARK    4  A    between atoms: C_2  and  C_5
REMARK    5  A    between atoms: N_9  and  C_10
REMARK                            x       y       z     vdW  Elec       q    Type
REMARK                         _______ _______ _______ _____ _____    ______ ____
ROOT
ATOM      1  C   UNL     1      -0.029  10.066  20.030  0.00  0.00    +0.000 A 
ATOM      2  C   UNL     1      -0.469  10.003  21.341  0.00  0.00    +0.000 A 
ATOM      3  S   UNL     1       0.391   8.798  22.203  0.00  0.00    +0.000 S 
ATOM      4  C   UNL     1       1.259   8.394  20.772  0.00  0.00    +0.000 A 
ATOM      5  N   UNL     1       2.179   7.398  20.783  0.00  0.00    +0.000 N 
ATOM      6  N   UNL     1       0.948   9.132  19.730  0.00  0.00    +0.000 NA
ATOM      7  H   UNL     1       2.346   6.933  21.667  0.00  0.00    +0.000 HD
ENDROOT
BRANCH   5   8
ATOM      8  C   UNL     1       2.482   6.571  19.669  0.00  0.00    +0.000 A 
ATOM      9  C   UNL     1       3.232   7.073  18.592  0.00  0.00    +0.000 A 
ATOM     10  C   UNL     1       3.540   6.274  17.500  0.00  0.00    +0.000 A 
ATOM     11  C   UNL     1       3.108   4.952  17.477  0.00  0.00    +0.000 A 
ATOM     12  C   UNL     1       2.367   4.407  18.512  0.00  0.00    +0.000 A 
ATOM     13  N   UNL     1       1.988   3.121  18.400  0.00  0.00    +0.000 NA
ATOM     14  C   UNL     1       1.267   2.579  19.401  0.00  0.00    +0.000 A 
ATOM     15  C   UNL     1       0.897   3.266  20.537  0.00  0.00    +0.000 A 
ATOM     16  C   UNL     1       1.294   4.595  20.652  0.00  0.00    +0.000 A 
ATOM     17  C   UNL     1       2.041   5.216  19.627  0.00  0.00    +0.000 A 
ENDBRANCH   5   8
BRANCH   1  19
ATOM     18  C   UNL     1      -1.016  10.252  17.737  0.00  0.00    +0.000 C 
ATOM     19  C   UNL     1      -0.485  11.038  18.951  0.00  0.00    +0.000 C 
ATOM     20  C   UNL     1       0.684  11.936  18.502  0.00  0.00    +0.000 C 
ATOM     21  C   UNL     1      -1.618  11.959  19.457  0.00  0.00    +0.000 C 
ENDBRANCH   1  19
TORSDOF 2
ENDMDL
MODEL 2
REMARK VINA RESULT:      -7.0      3.803      6.324
REMARK  Name = 
REMARK  5 active torsions:
REMARK  status: ('A' for Active; 'I' for Inactive)
REMARK    1  A    between atoms: C_1  and  C_2
REMARK    2  A    between atoms: C_2  and  C_3
REMARK    3  A    between atoms: C_2  and  C_4
REMARK    4  A    between atoms: C_2  and  C_5
REMARK    5  A    between atoms: N_9  and  C_10
REMARK                            x       y       z     vdW  Elec       q    Type
REMARK                         _______ _______ _______ _____ _____    ______ ____
ROOT
ATOM      1  C   UNL     1       2.002   4.326  19.952  0.00  0.00    +0.000 A 
ATOM      2  C   UNL     1       1.405   5.446  20.503  0.00  0.00    +0.000 A 
ATOM      3  S   UNL     1       2.191   6.869  19.964  0.00  0.00    +0.000 S 
ATOM      4  C   UNL     1       3.312   5.912  19.074  0.00  0.00    +0.000 A 
ATOM      5  N   UNL     1       4.309   6.499  18.366  0.00  0.00    +0.000 N 
ATOM      6  N   UNL     1       3.093   4.618  19.151  0.00  0.00    +0.000 NA
ATOM      7  H   UNL     1       4.341   7.510  18.365  0.00  0.00    +0.000 HD
ENDROOT
BRANCH   5   8
ATOM      8  C   UNL     1       5.583   5.915  18.136  0.00  0.00    +0.000 A 
ATOM      9  C   UNL     1       6.506   5.782  19.186  0.00  0.00    +0.000 A 
ATOM     10  C   UNL     1       7.753   5.209  18.976  0.00  0.00    +0.000 A 
ATOM     11  C   UNL     1       8.088   4.748  17.707  0.00  0.00    +0.000 A 
ATOM     12  C   UNL     1       7.216   4.854  16.637  0.00  0.00    +0.000 A 
ATOM     13  N   UNL     1       7.628   4.387  15.446  0.00  0.00    +0.000 NA
ATOM     14  C   UNL     1       6.787   4.483  14.397  0.00  0.00    +0.000 A 
ATOM     15  C   UNL     1       5.525   5.031  14.474  0.00  0.00    +0.000 A 
ATOM     16  C   UNL     1       5.099   5.510  15.710  0.00  0.00    +0.000 A 
ATOM     17  C   UNL     1       5.945   5.444  16.839  0.00  0.00    +0.000 A 
ENDBRANCH   5   8
BRANCH   1  19
ATOM     18  C   UNL     1       0.304   2.609  19.291  0.00  0.00    +0.000 C 
ATOM     19  C   UNL     1       1.574   2.875  20.123  0.00  0.00    +0.000 C 
ATOM     20  C   UNL     1       1.284   2.566  21.604  0.00  0.00    +0.000 C 
ATOM     21  C   UNL     1       2.671   1.897  19.644  0.00  0.00    +0.000 C 
ENDBRANCH   1  19
TORSDOF 2
ENDMDL
MODEL 3
REMARK VINA RESULT:      -6.8      0.730      1.275
REMARK  Name = 
REMARK  5 active torsions:
REMARK  status: ('A' for Active; 'I' for Inactive)
REMARK    1  A    between atoms: C_1  and  C_2
REMARK    2  A    between atoms: C_2  and  C_3
REMARK    3  A    between atoms: C_2  and  C_4
REMARK    4  A    between atoms: C_2  and  C_5
REMARK    5  A    between atoms: N_9  and  C_10
REMARK                            x       y       z     vdW  Elec       q    Type
REMARK                         _______ _______ _______ _____ _____    ______ ____
ROOT
ATOM      1  C   UNL     1       0.522   9.857  19.953  0.00  0.00    +0.000 A 
ATOM      2  C   UNL     1      -0.119   9.736  21.174  0.00  0.00    +0.000 A 
ATOM      3  S   UNL     1       0.432   8.343  22.004  0.00  0.00    +0.000 S 
ATOM      4  C   UNL     1       1.451   7.953  20.673  0.00  0.00    +0.000 A 
ATOM      5  N   UNL     1       2.220   6.836  20.698  0.00  0.00    +0.000 N 
ATOM      6  N   UNL     1       1.404   8.822  19.688  0.00  0.00    +0.000 NA
ATOM      7  H   UNL     1       2.186   6.271  21.538  0.00  0.00    +0.000 HD
ENDROOT
BRANCH   5   8
ATOM      8  C   UNL     1       2.581   6.082  19.550  0.00  0.00    +0.000 A 
ATOM      9  C   UNL     1       3.509   6.590  18.627  0.00  0.00    +0.000 A 
ATOM     10  C   UNL     1       3.875   5.861  17.504  0.00  0.00    +0.000 A 
ATOM     11  C   UNL     1       3.321   4.602  17.297  0.00  0.00    +0.000 A 
ATOM     12  C   UNL     1       2.403   4.053  18.175  0.00  0.00    +0.000 A 
ATOM     13  N   UNL     1       1.916   2.833  17.890  0.00  0.00    +0.000 NA
ATOM     14  C   UNL     1       1.022   2.288  18.738  0.00  0.00    +0.000 A 
ATOM     15  C   UNL     1       0.578   2.909  19.885  0.00  0.00    +0.000 A 
ATOM     16  C   UNL     1       1.086   4.171  20.181  0.00  0.00    +0.000 A 
ATOM     17  C   UNL     1       2.017   4.793  19.320  0.00  0.00    +0.000 A 
ENDBRANCH   5   8
BRANCH   1  19
ATOM     18  C   UNL     1       0.105  12.309  19.675  0.00  0.00    +0.000 C 
ATOM     19  C   UNL     1       0.370  10.982  18.939  0.00  0.00    +0.000 C 
ATOM     20  C   UNL     1      -0.800  10.691  17.979  0.00  0.00    +0.000 C 
ATOM     21  C   UNL     1       1.647  11.155  18.086  0.00  0.00    +0.000 C 
ENDBRANCH   1  19
TORSDOF 2
ENDMDL
MODEL 4
REMARK VINA RESULT:      -6.8      0.742      1.019
REMARK  Name = 
REMARK  5 active torsions:
REMARK  status: ('A' for Active; 'I' for Inactive)
REMARK    1  A    between atoms: C_1  and  C_2
REMARK    2  A    between atoms: C_2  and  C_3
REMARK    3  A    between atoms: C_2  and  C_4
REMARK    4  A    between atoms: C_2  and  C_5
REMARK    5  A    between atoms: N_9  and  C_10
REMARK                            x       y       z     vdW  Elec       q    Type
REMARK                         _______ _______ _______ _____ _____    ______ ____
ROOT
ATOM      1  C   UNL     1       0.598  10.393  20.225  0.00  0.00    +0.000 A 
ATOM      2  C   UNL     1      -0.312  10.270  21.260  0.00  0.00    +0.000 A 
ATOM      3  S   UNL     1      -0.140   8.749  22.030  0.00  0.00    +0.000 S 
ATOM      4  C   UNL     1       1.096   8.323  20.910  0.00  0.00    +0.000 A 
ATOM      5  N   UNL     1       1.695   7.108  20.974  0.00  0.00    +0.000 N 
ATOM      6  N   UNL     1       1.381   9.266  20.039  0.00  0.00    +0.000 NA
ATOM      7  H   UNL     1       1.403   6.488  21.720  0.00  0.00    +0.000 HD
ENDROOT
BRANCH   5   8
ATOM      8  C   UNL     1       2.209   6.404  19.853  0.00  0.00    +0.000 A 
ATOM      9  C   UNL     1       2.957   7.075  18.872  0.00  0.00    +0.000 A 
ATOM     10  C   UNL     1       3.470   6.397  17.774  0.00  0.00    +0.000 A 
ATOM     11  C   UNL     1       3.248   5.030  17.650  0.00  0.00    +0.000 A 
ATOM     12  C   UNL     1       2.518   4.320  18.588  0.00  0.00    +0.000 A 
ATOM     13  N   UNL     1       2.350   3.002  18.382  0.00  0.00    +0.000 NA
ATOM     14  C   UNL     1       1.642   2.300  19.289  0.00  0.00    +0.000 A 
ATOM     15  C   UNL     1       1.082   2.854  20.419  0.00  0.00    +0.000 A 
ATOM     16  C   UNL     1       1.261   4.218  20.632  0.00  0.00    +0.000 A 
ATOM     17  C   UNL     1       1.984   5.003  19.708  0.00  0.00    +0.000 A 
ENDBRANCH   5   8
BRANCH   1  19
ATOM     18  C   UNL     1       1.882  11.277  18.266  0.00  0.00    +0.000 C 
ATOM     19  C   UNL     1       0.819  11.606  19.332  0.00  0.00    +0.000 C 
ATOM     20  C   UNL     1       1.291  12.813  20.165  0.00  0.00    +0.000 C 
ATOM     21  C   UNL     1      -0.479  12.018  18.600  0.00  0.00    +0.000 C 
ENDBRANCH   1  19
TORSDOF 2
ENDMDL
MODEL 5
REMARK VINA RESULT:      -6.7      2.589      6.491
REMARK  Name = 
REMARK  5 active torsions:
REMARK  status: ('A' for Active; 'I' for Inactive)
REMARK    1  A    between atoms: C_1  and  C_2
REMARK    2  A    between atoms: C_2  and  C_3
REMARK    3  A    between atoms: C_2  and  C_4
REMARK    4  A    between atoms: C_2  and  C_5
REMARK    5  A    between atoms: N_9  and  C_10
REMARK                            x       y       z     vdW  Elec       q    Type
REMARK                         _______ _______ _______ _____ _____    ______ ____
ROOT
ATOM      1  C   UNL     1       5.233   5.495  18.155  0.00  0.00    +0.000 A 
ATOM      2  C   UNL     1       5.175   4.498  19.112  0.00  0.00    +0.000 A 
ATOM      3  S   UNL     1       3.700   4.586  19.979  0.00  0.00    +0.000 S 
ATOM      4  C   UNL     1       3.249   5.976  19.069  0.00  0.00    +0.000 A 
ATOM      5  N   UNL     1       2.071   6.604  19.309  0.00  0.00    +0.000 N 
ATOM      6  N   UNL     1       4.128   6.330  18.159  0.00  0.00    +0.000 NA
ATOM      7  H   UNL     1       1.470   6.202  20.018  0.00  0.00    +0.000 HD
ENDROOT
BRANCH   5   8
ATOM      8  C   UNL     1       1.852   7.996  19.137  0.00  0.00    +0.000 A 
ATOM      9  C   UNL     1       2.225   8.633  17.942  0.00  0.00    +0.000 A 
ATOM     10  C   UNL     1       2.011   9.993  17.759  0.00  0.00    +0.000 A 
ATOM     11  C   UNL     1       1.408  10.733  18.771  0.00  0.00    +0.000 A 
ATOM     12  C   UNL     1       1.022  10.154  19.968  0.00  0.00    +0.000 A 
ATOM     13  N   UNL     1       0.452  10.949  20.891  0.00  0.00    +0.000 NA
ATOM     14  C   UNL     1       0.070  10.397  22.060  0.00  0.00    +0.000 A 
ATOM     15  C   UNL     1       0.227   9.063  22.364  0.00  0.00    +0.000 A 
ATOM     16  C   UNL     1       0.813   8.241  21.405  0.00  0.00    +0.000 A 
ATOM     17  C   UNL     1       1.242   8.770  20.168  0.00  0.00    +0.000 A 
ENDBRANCH   5   8
BRANCH   1  19
ATOM     18  C   UNL     1       5.739   5.731  15.714  0.00  0.00    +0.000 C 
ATOM     19  C   UNL     1       6.338   5.730  17.134  0.00  0.00    +0.000 C 
ATOM     20  C   UNL     1       7.410   4.627  17.233  0.00  0.00    +0.000 C 
ATOM     21  C   UNL     1       7.039   7.089  17.357  0.00  0.00    +0.000 C 
ENDBRANCH   1  19
TORSDOF 2
ENDMDL
MODEL 6
REMARK VINA RESULT:      -6.7      1.127      2.596
REMARK  Name = 
REMARK  5 active torsions:
REMARK  status: ('A' for Active; 'I' for Inactive)
REMARK    1  A    between atoms: C_1  and  C_2
REMARK    2  A    between atoms: C_2  and  C_3
REMARK    3  A    between atoms: C_2  and  C_4
REMARK    4  A    between atoms: C_2  and  C_5
REMARK    5  A    between atoms: N_9  and  C_10
REMARK                            x       y       z     vdW  Elec       q    Type
REMARK                         _______ _______ _______ _____ _____    ______ ____
ROOT
ATOM      1  C   UNL     1       0.839   9.608  19.840  0.00  0.00    +0.000 A 
ATOM      2  C   UNL     1       0.566   9.982  21.144  0.00  0.00    +0.000 A 
ATOM      3  S   UNL     1       1.062   8.757  22.234  0.00  0.00    +0.000 S 
ATOM      4  C   UNL     1       1.559   7.779  20.908  0.00  0.00    +0.000 A 
ATOM      5  N   UNL     1       2.079   6.544  21.119  0.00  0.00    +0.000 N 
ATOM      6  N   UNL     1       1.395   8.344  19.733  0.00  0.00    +0.000 NA
ATOM      7  H   UNL     1       2.183   6.245  22.081  0.00  0.00    +0.000 HD
ENDROOT
BRANCH   5   8
ATOM      8  C   UNL     1       1.944   5.451  20.222  0.00  0.00    +0.000 A 
ATOM      9  C   UNL     1       0.926   4.501  20.404  0.00  0.00    +0.000 A 
ATOM     10  C   UNL     1       0.780   3.431  19.532  0.00  0.00    +0.000 A 
ATOM     11  C   UNL     1       1.651   3.305  18.454  0.00  0.00    +0.000 A 
ATOM     12  C   UNL     1       2.671   4.212  18.228  0.00  0.00    +0.000 A 
ATOM     13  N   UNL     1       3.467   4.006  17.165  0.00  0.00    +0.000 NA
ATOM     14  C   UNL     1       4.464   4.883  16.934  0.00  0.00    +0.000 A 
ATOM     15  C   UNL     1       4.714   5.984  17.724  0.00  0.00    +0.000 A 
ATOM     16  C   UNL     1       3.885   6.198  18.823  0.00  0.00    +0.000 A 
ATOM     17  C   UNL     1       2.833   5.303  19.117  0.00  0.00    +0.000 A 
ENDBRANCH   5   8
BRANCH   1  19
ATOM     18  C   UNL     1       1.824  10.275  17.638  0.00  0.00    +0.000 C 
ATOM     19  C   UNL     1       0.614  10.431  18.579  0.00  0.00    +0.000 C 
ATOM     20  C   UNL     1       0.432  11.920  18.930  0.00  0.00    +0.000 C 
ATOM     21  C   UNL     1      -0.647   9.969  17.816  0.00  0.00    +0.000 C 
ENDBRANCH   1  19
TORSDOF 2
ENDMDL
MODEL 7
REMARK VINA RESULT:      -6.7      3.761      6.155
REMARK  Name = 
REMARK  5 active torsions:
REMARK  status: ('A' for Active; 'I' for Inactive)
REMARK    1  A    between atoms: C_1  and  C_2
REMARK    2  A    between atoms: C_2  and  C_3
REMARK    3  A    between atoms: C_2  and  C_4
REMARK    4  A    between atoms: C_2  and  C_5
REMARK    5  A    between atoms: N_9  and  C_10
REMARK                            x       y       z     vdW  Elec       q    Type
REMARK                         _______ _______ _______ _____ _____    ______ ____
ROOT
ATOM      1  C   UNL     1       2.064   4.473  19.619  0.00  0.00    +0.000 A 
ATOM      2  C   UNL     1       1.738   5.614  20.331  0.00  0.00    +0.000 A 
ATOM      3  S   UNL     1       2.375   7.004  19.557  0.00  0.00    +0.000 S 
ATOM      4  C   UNL     1       3.092   6.004  18.352  0.00  0.00    +0.000 A 
ATOM      5  N   UNL     1       3.829   6.550  17.354  0.00  0.00    +0.000 N 
ATOM      6  N   UNL     1       2.844   4.722  18.503  0.00  0.00    +0.000 NA
ATOM      7  H   UNL     1       3.909   7.559  17.337  0.00  0.00    +0.000 HD
ENDROOT
BRANCH   5   8
ATOM      8  C   UNL     1       4.925   5.907  16.720  0.00  0.00    +0.000 A 
ATOM      9  C   UNL     1       4.891   5.631  15.343  0.00  0.00    +0.000 A 
ATOM     10  C   UNL     1       5.958   5.008  14.711  0.00  0.00    +0.000 A 
ATOM     11  C   UNL     1       7.084   4.664  15.451  0.00  0.00    +0.000 A 
ATOM     12  C   UNL     1       7.171   4.914  16.810  0.00  0.00    +0.000 A 
ATOM     13  N   UNL     1       8.296   4.540  17.444  0.00  0.00    +0.000 NA
ATOM     14  C   UNL     1       8.392   4.779  18.767  0.00  0.00    +0.000 A 
ATOM     15  C   UNL     1       7.404   5.388  19.509  0.00  0.00    +0.000 A 
ATOM     16  C   UNL     1       6.242   5.778  18.849  0.00  0.00    +0.000 A 
ATOM     17  C   UNL     1       6.084   5.541  17.466  0.00  0.00    +0.000 A 
ENDBRANCH   5   8
BRANCH   1  19
ATOM     18  C   UNL     1       0.424   2.665  19.063  0.00  0.00    +0.000 C 
ATOM     19  C   UNL     1       1.642   3.043  19.927  0.00  0.00    +0.000 C 
ATOM     20  C   UNL     1       1.274   2.896  21.416  0.00  0.00    +0.000 C 
ATOM     21  C   UNL     1       2.775   2.037  19.620  0.00  0.00    +0.000 C 
ENDBRANCH   1  19
TORSDOF 2
ENDMDL
MODEL 8
REMARK VINA RESULT:      -6.6      2.583      6.510
REMARK  Name = 
REMARK  5 active torsions:
REMARK  status: ('A' for Active; 'I' for Inactive)
REMARK    1  A    between atoms: C_1  and  C_2
REMARK    2  A    between atoms: C_2  and  C_3
REMARK    3  A    between atoms: C_2  and  C_4
REMARK    4  A    between atoms: C_2  and  C_5
REMARK    5  A    between atoms: N_9  and  C_10
REMARK                            x       y       z     vdW  Elec       q    Type
REMARK                         _______ _______ _______ _____ _____    ______ ____
ROOT
ATOM      1  C   UNL     1       5.082   5.590  17.955  0.00  0.00    +0.000 A 
ATOM      2  C   UNL     1       5.135   4.617  18.938  0.00  0.00    +0.000 A 
ATOM      3  S   UNL     1       3.759   4.719  19.954  0.00  0.00    +0.000 S 
ATOM      4  C   UNL     1       3.201   6.082  19.062  0.00  0.00    +0.000 A 
ATOM      5  N   UNL     1       2.050   6.709  19.409  0.00  0.00    +0.000 N 
ATOM      6  N   UNL     1       3.977   6.417  18.054  0.00  0.00    +0.000 NA
ATOM      7  H   UNL     1       1.531   6.322  20.187  0.00  0.00    +0.000 HD
ENDROOT
BRANCH   5   8
ATOM      8  C   UNL     1       1.802   8.095  19.225  0.00  0.00    +0.000 A 
ATOM      9  C   UNL     1       2.188   8.736  18.037  0.00  0.00    +0.000 A 
ATOM     10  C   UNL     1       1.946  10.090  17.842  0.00  0.00    +0.000 A 
ATOM     11  C   UNL     1       1.301  10.818  18.836  0.00  0.00    +0.000 A 
ATOM     12  C   UNL     1       0.899  10.235  20.026  0.00  0.00    +0.000 A 
ATOM     13  N   UNL     1       0.288  11.019  20.931  0.00  0.00    +0.000 NA
ATOM     14  C   UNL     1      -0.109  10.463  22.093  0.00  0.00    +0.000 A 
ATOM     15  C   UNL     1       0.072   9.134  22.407  0.00  0.00    +0.000 A 
ATOM     16  C   UNL     1       0.702   8.323  21.466  0.00  0.00    +0.000 A 
ATOM     17  C   UNL     1       1.148   8.857  20.237  0.00  0.00    +0.000 A 
ENDBRANCH   5   8
BRANCH   1  19
ATOM     18  C   UNL     1       7.139   6.829  17.246  0.00  0.00    +0.000 C 
ATOM     19  C   UNL     1       6.071   5.804  16.817  0.00  0.00    +0.000 C 
ATOM     20  C   UNL     1       5.346   6.322  15.560  0.00  0.00    +0.000 C 
ATOM     21  C   UNL     1       6.794   4.492  16.437  0.00  0.00    +0.000 C 
ENDBRANCH   1  19
TORSDOF 2
ENDMDL
MODEL 9
REMARK VINA RESULT:      -6.6      2.028      6.313
REMARK  Name = 
REMARK  5 active torsions:
REMARK  status: ('A' for Active; 'I' for Inactive)
REMARK    1  A    between atoms: C_1  and  C_2
REMARK    2  A    between atoms: C_2  and  C_3
REMARK    3  A    between atoms: C_2  and  C_4
REMARK    4  A    between atoms: C_2  and  C_5
REMARK    5  A    between atoms: N_9  and  C_10
REMARK                            x       y       z     vdW  Elec       q    Type
REMARK                         _______ _______ _______ _____ _____    ______ ____
ROOT
ATOM      1  C   UNL     1       2.625   4.990  18.750  0.00  0.00    +0.000 A 
ATOM      2  C   UNL     1       3.657   4.983  17.828  0.00  0.00    +0.000 A 
ATOM      3  S   UNL     1       4.098   6.586  17.413  0.00  0.00    +0.000 S 
ATOM      4  C   UNL     1       2.858   7.193  18.441  0.00  0.00    +0.000 A 
ATOM      5  N   UNL     1       2.649   8.528  18.554  0.00  0.00    +0.000 N 
ATOM      6  N   UNL     1       2.181   6.261  19.074  0.00  0.00    +0.000 NA
ATOM      7  H   UNL     1       3.269   9.138  18.035  0.00  0.00    +0.000 HD
ENDROOT
BRANCH   5   8
ATOM      8  C   UNL     1       1.387   9.127  18.809  0.00  0.00    +0.000 A 
ATOM      9  C   UNL     1       0.564   9.534  17.746  0.00  0.00    +0.000 A 
ATOM     10  C   UNL     1      -0.675  10.115  17.981  0.00  0.00    +0.000 A 
ATOM     11  C   UNL     1      -1.112  10.285  19.291  0.00  0.00    +0.000 A 
ATOM     12  C   UNL     1      -0.341   9.901  20.375  0.00  0.00    +0.000 A 
ATOM     13  N   UNL     1      -0.843  10.111  21.604  0.00  0.00    +0.000 NA
ATOM     14  C   UNL     1      -0.102   9.741  22.668  0.00  0.00    +0.000 A 
ATOM     15  C   UNL     1       1.141   9.155  22.568  0.00  0.00    +0.000 A 
ATOM     16  C   UNL     1       1.657   8.935  21.294  0.00  0.00    +0.000 A 
ATOM     17  C   UNL     1       0.927   9.315  20.146  0.00  0.00    +0.000 A 
ENDBRANCH   5   8
BRANCH   1  19
ATOM     18  C   UNL     1       1.044   4.260  20.549  0.00  0.00    +0.000 C 
ATOM     19  C   UNL     1       1.983   3.785  19.423  0.00  0.00    +0.000 C 
ATOM     20  C   UNL     1       3.061   2.858  20.018  0.00  0.00    +0.000 C 
ATOM     21  C   UNL     1       1.148   2.953  18.424  0.00  0.00    +0.000 C 
ENDBRANCH   1  19
TORSDOF 2
ENDMDL
