MODEL 1
REMARK VINA RESULT:      -7.1      0.000      0.000
REMARK  Name = 
REMARK  10 active torsions:
REMARK  status: ('A' for Active; 'I' for Inactive)
REMARK    1  A    between atoms: C_1  and  N_2
REMARK    2  A    between atoms: N_2  and  C_3
REMARK    3  A    between atoms: N_2  and  C_4
REMARK    4  A    between atoms: C_4  and  C_5
REMARK    5  A    between atoms: C_9  and  C_10
REMARK    6  A    between atoms: N_15  and  C_16
REMARK    7  A    between atoms: C_16  and  C_17
REMARK    8  A    between atoms: C_21  and  C_22
REMARK    9  A    between atoms: C_26  and  S_27
REMARK   10  A    between atoms: S_27  and  C_28
REMARK                            x       y       z     vdW  Elec       q    Type
REMARK                         _______ _______ _______ _____ _____    ______ ____
ROOT
ATOM      1  C   UNL     1       2.800  15.280  19.421  0.00  0.00    +0.000 A 
ATOM      2  C   UNL     1       3.060  14.457  20.600  0.00  0.00    +0.000 A 
ATOM      3  C   UNL     1       2.312  13.366  20.820  0.00  0.00    +0.000 A 
ATOM      4  N   UNL     1       1.241  13.067  19.969  0.00  0.00    +0.000 N 
ATOM      5  C   UNL     1       0.294  12.045  20.014  0.00  0.00    +0.000 A 
ATOM      6  C   UNL     1      -0.509  12.288  18.893  0.00  0.00    +0.000 A 
ATOM      7  N   UNL     1      -0.067  13.375  18.175  0.00  0.00    +0.000 NA
ATOM      8  C   UNL     1       0.951  13.848  18.852  0.00  0.00    +0.000 A 
ATOM      9  C   UNL     1       1.775  14.978  18.596  0.00  0.00    +0.000 A 
ENDROOT
BRANCH   5  10
ATOM     10  C   UNL     1       0.222  10.997  21.037  0.00  0.00    +0.000 A 
ATOM     11  C   UNL     1      -0.415  11.149  22.246  0.00  0.00    +0.000 A 
ATOM     12  C   UNL     1      -0.430  10.043  23.057  0.00  0.00    +0.000 A 
ATOM     13  N   UNL     1       0.101   8.859  22.709  0.00  0.00    +0.000 NA
ATOM     14  C   UNL     1       0.672   8.791  21.503  0.00  0.00    +0.000 A 
ATOM     15  N   UNL     1       1.154   7.551  21.129  0.00  0.00    +0.000 N 
ATOM     16  N   UNL     1       0.769   9.830  20.665  0.00  0.00    +0.000 NA
ATOM     17  H   UNL     1       1.266   6.980  21.954  0.00  0.00    +0.000 HD
BRANCH  15  18
ATOM     18  C   UNL     1       2.210   7.552  20.144  0.00  0.00    +0.000 C 
BRANCH  18  19
ATOM     19  C   UNL     1       2.066   6.334  19.286  0.00  0.00    +0.000 C 
ATOM     20  C   UNL     1       3.262   5.700  18.618  0.00  0.00    +0.000 C 
ATOM     21  C   UNL     1       2.572   4.991  19.750  0.00  0.00    +0.000 C 
ENDBRANCH  18  19
ENDBRANCH  15  18
ENDBRANCH   5  10
BRANCH   6  22
ATOM     22  C   UNL     1      -1.712  11.569  18.487  0.00  0.00    +0.000 A 
ATOM     23  C   UNL     1      -1.612  10.432  17.671  0.00  0.00    +0.000 A 
ATOM     24  C   UNL     1      -2.759   9.747  17.253  0.00  0.00    +0.000 A 
ATOM     25  C   UNL     1      -4.024  10.184  17.656  0.00  0.00    +0.000 A 
ATOM     26  C   UNL     1      -4.124  11.313  18.470  0.00  0.00    +0.000 A 
ATOM     27  C   UNL     1      -2.984  12.022  18.848  0.00  0.00    +0.000 A 
BRANCH  26  28
ATOM     28  S   UNL     1      -5.715  11.914  18.972  0.00  0.00    +0.000 S 
ATOM     29  C   UNL     1      -6.790  10.526  18.758  0.00  0.00    +0.000 C 
ATOM     30  O   UNL     1      -5.646  12.216  20.397  0.00  0.00    +0.000 OA
ATOM     31  O   UNL     1      -6.110  12.935  18.023  0.00  0.00    +0.000 OA
ENDBRANCH  26  28
ENDBRANCH   6  22
BRANCH   1  32
ATOM     32  C   UNL     1       3.775  16.399  19.123  0.00  0.00    +0.000 C 
BRANCH  32  34
ATOM     33  C   UNL     1       5.884  15.412  18.429  0.00  0.00    +0.000 C 
ATOM     34  N   UNL     1       5.157  16.066  19.523  0.00  0.00    +0.000 NA
ATOM     35  C   UNL     1       5.874  17.274  19.934  0.00  0.00    +0.000 C 
ENDBRANCH  32  34
ENDBRANCH   1  32
TORSDOF 7
ENDMDL
MODEL 2
REMARK VINA RESULT:      -6.9      3.653      7.601
REMARK  Name = 
REMARK  10 active torsions:
REMARK  status: ('A' for Active; 'I' for Inactive)
REMARK    1  A    between atoms: C_1  and  N_2
REMARK    2  A    between atoms: N_2  and  C_3
REMARK    3  A    between atoms: N_2  and  C_4
REMARK    4  A    between atoms: C_4  and  C_5
REMARK    5  A    between atoms: C_9  and  C_10
REMARK    6  A    between atoms: N_15  and  C_16
REMARK    7  A    between atoms: C_16  and  C_17
REMARK    8  A    between atoms: C_21  and  C_22
REMARK    9  A    between atoms: C_26  and  S_27
REMARK   10  A    between atoms: S_27  and  C_28
REMARK                            x       y       z     vdW  Elec       q    Type
REMARK                         _______ _______ _______ _____ _____    ______ ____
ROOT
ATOM      1  C   UNL     1       3.085   6.384  18.145  0.00  0.00    +0.000 A 
ATOM      2  C   UNL     1       2.514   6.175  19.474  0.00  0.00    +0.000 A 
ATOM      3  C   UNL     1       1.848   7.176  20.068  0.00  0.00    +0.000 A 
ATOM      4  N   UNL     1       1.771   8.430  19.453  0.00  0.00    +0.000 N 
ATOM      5  C   UNL     1       1.198   9.627  19.882  0.00  0.00    +0.000 A 
ATOM      6  C   UNL     1       1.453  10.514  18.829  0.00  0.00    +0.000 A 
ATOM      7  N   UNL     1       2.114   9.896  17.792  0.00  0.00    +0.000 NA
ATOM      8  C   UNL     1       2.328   8.668  18.198  0.00  0.00    +0.000 A 
ATOM      9  C   UNL     1       2.995   7.593  17.550  0.00  0.00    +0.000 A 
ENDROOT
BRANCH   5  10
ATOM     10  C   UNL     1       0.508   9.829  21.161  0.00  0.00    +0.000 A 
ATOM     11  C   UNL     1       0.807   9.136  22.310  0.00  0.00    +0.000 A 
ATOM     12  C   UNL     1       0.097   9.496  23.426  0.00  0.00    +0.000 A 
ATOM     13  N   UNL     1      -0.814  10.484  23.442  0.00  0.00    +0.000 NA
ATOM     14  C   UNL     1      -1.018  11.127  22.288  0.00  0.00    +0.000 A 
ATOM     15  N   UNL     1      -1.907  12.185  22.332  0.00  0.00    +0.000 N 
ATOM     16  N   UNL     1      -0.401  10.815  21.142  0.00  0.00    +0.000 NA
ATOM     17  H   UNL     1      -2.479  12.098  23.159  0.00  0.00    +0.000 HD
BRANCH  15  18
ATOM     18  C   UNL     1      -2.546  12.527  21.084  0.00  0.00    +0.000 C 
BRANCH  18  19
ATOM     19  C   UNL     1      -4.011  12.715  21.332  0.00  0.00    +0.000 C 
ATOM     20  C   UNL     1      -4.701  14.015  20.996  0.00  0.00    +0.000 C 
ATOM     21  C   UNL     1      -4.991  12.781  20.188  0.00  0.00    +0.000 C 
ENDBRANCH  18  19
ENDBRANCH  15  18
ENDBRANCH   5  10
BRANCH   6  22
ATOM     22  C   UNL     1       1.144  11.938  18.770  0.00  0.00    +0.000 A 
ATOM     23  C   UNL     1      -0.154  12.366  18.455  0.00  0.00    +0.000 A 
ATOM     24  C   UNL     1      -0.458  13.729  18.370  0.00  0.00    +0.000 A 
ATOM     25  C   UNL     1       0.531  14.686  18.610  0.00  0.00    +0.000 A 
ATOM     26  C   UNL     1       1.823  14.262  18.925  0.00  0.00    +0.000 A 
ATOM     27  C   UNL     1       2.136  12.903  18.964  0.00  0.00    +0.000 A 
BRANCH  26  28
ATOM     28  S   UNL     1       3.111  15.449  19.202  0.00  0.00    +0.000 S 
ATOM     29  C   UNL     1       4.026  15.456  17.689  0.00  0.00    +0.000 C 
ATOM     30  O   UNL     1       2.482  16.757  19.356  0.00  0.00    +0.000 OA
ATOM     31  O   UNL     1       3.969  14.920  20.242  0.00  0.00    +0.000 OA
ENDBRANCH  26  28
ENDBRANCH   6  22
BRANCH   1  32
ATOM     32  C   UNL     1       3.678   5.180  17.444  0.00  0.00    +0.000 C 
BRANCH  32  34
ATOM     33  C   UNL     1       3.729   2.784  17.841  0.00  0.00    +0.000 C 
ATOM     34  N   UNL     1       4.055   4.107  18.385  0.00  0.00    +0.000 NA
ATOM     35  C   UNL     1       5.485   4.174  18.689  0.00  0.00    +0.000 C 
ENDBRANCH  32  34
ENDBRANCH   1  32
TORSDOF 7
ENDMDL
MODEL 3
REMARK VINA RESULT:      -6.9      1.078      1.387
REMARK  Name = 
REMARK  10 active torsions:
REMARK  status: ('A' for Active; 'I' for Inactive)
REMARK    1  A    between atoms: C_1  and  N_2
REMARK    2  A    between atoms: N_2  and  C_3
REMARK    3  A    between atoms: N_2  and  C_4
REMARK    4  A    between atoms: C_4  and  C_5
REMARK    5  A    between atoms: C_9  and  C_10
REMARK    6  A    between atoms: N_15  and  C_16
REMARK    7  A    between atoms: C_16  and  C_17
REMARK    8  A    between atoms: C_21  and  C_22
REMARK    9  A    between atoms: C_26  and  S_27
REMARK   10  A    between atoms: S_27  and  C_28
REMARK                            x       y       z     vdW  Elec       q    Type
REMARK                         _______ _______ _______ _____ _____    ______ ____
ROOT
ATOM      1  C   UNL     1       2.914  15.206  19.213  0.00  0.00    +0.000 A 
ATOM      2  C   UNL     1       3.242  14.268  20.285  0.00  0.00    +0.000 A 
ATOM      3  C   UNL     1       2.381  13.285  20.586  0.00  0.00    +0.000 A 
ATOM      4  N   UNL     1       1.146  13.209  19.931  0.00  0.00    +0.000 N 
ATOM      5  C   UNL     1       0.072  12.336  20.099  0.00  0.00    +0.000 A 
ATOM      6  C   UNL     1      -0.864  12.775  19.156  0.00  0.00    +0.000 A 
ATOM      7  N   UNL     1      -0.388  13.837  18.421  0.00  0.00    +0.000 NA
ATOM      8  C   UNL     1       0.793  14.105  18.923  0.00  0.00    +0.000 A 
ATOM      9  C   UNL     1       1.727  15.119  18.575  0.00  0.00    +0.000 A 
ENDROOT
BRANCH   5  10
ATOM     10  C   UNL     1       0.015  11.236  21.068  0.00  0.00    +0.000 A 
ATOM     11  C   UNL     1      -0.596  11.327  22.296  0.00  0.00    +0.000 A 
ATOM     12  C   UNL     1      -0.601  10.181  23.048  0.00  0.00    +0.000 A 
ATOM     13  N   UNL     1      -0.085   9.015  22.628  0.00  0.00    +0.000 NA
ATOM     14  C   UNL     1       0.461   9.006  21.408  0.00  0.00    +0.000 A 
ATOM     15  N   UNL     1       0.929   7.785  20.960  0.00  0.00    +0.000 N 
ATOM     16  N   UNL     1       0.547  10.087  20.624  0.00  0.00    +0.000 NA
ATOM     17  H   UNL     1       1.053   7.171  21.752  0.00  0.00    +0.000 HD
BRANCH  15  18
ATOM     18  C   UNL     1       1.964   7.833  19.955  0.00  0.00    +0.000 C 
BRANCH  18  19
ATOM     19  C   UNL     1       2.507   6.451  19.762  0.00  0.00    +0.000 C 
ATOM     20  C   UNL     1       2.161   5.638  18.538  0.00  0.00    +0.000 C 
ATOM     21  C   UNL     1       3.557   6.167  18.717  0.00  0.00    +0.000 C 
ENDBRANCH  18  19
ENDBRANCH  15  18
ENDBRANCH   5  10
BRANCH   6  22
ATOM     22  C   UNL     1      -2.216  12.271  18.942  0.00  0.00    +0.000 A 
ATOM     23  C   UNL     1      -2.511  11.501  17.808  0.00  0.00    +0.000 A 
ATOM     24  C   UNL     1      -3.809  11.032  17.577  0.00  0.00    +0.000 A 
ATOM     25  C   UNL     1      -4.831  11.319  18.485  0.00  0.00    +0.000 A 
ATOM     26  C   UNL     1      -4.539  12.083  19.616  0.00  0.00    +0.000 A 
ATOM     27  C   UNL     1      -3.255  12.589  19.822  0.00  0.00    +0.000 A 
BRANCH  26  28
ATOM     28  S   UNL     1      -5.819  12.494  20.772  0.00  0.00    +0.000 S 
ATOM     29  C   UNL     1      -4.948  12.915  22.252  0.00  0.00    +0.000 C 
ATOM     30  O   UNL     1      -6.488  13.695  20.285  0.00  0.00    +0.000 OA
ATOM     31  O   UNL     1      -6.575  11.285  21.027  0.00  0.00    +0.000 OA
ENDBRANCH  26  28
ENDBRANCH   6  22
BRANCH   1  32
ATOM     32  C   UNL     1       3.986  16.190  18.796  0.00  0.00    +0.000 C 
BRANCH  32  34
ATOM     33  C   UNL     1       6.254  16.777  19.441  0.00  0.00    +0.000 C 
ATOM     34  N   UNL     1       4.881  16.557  19.911  0.00  0.00    +0.000 NA
ATOM     35  C   UNL     1       4.393  17.763  20.581  0.00  0.00    +0.000 C 
ENDBRANCH  32  34
ENDBRANCH   1  32
TORSDOF 7
ENDMDL
MODEL 4
REMARK VINA RESULT:      -6.8      1.286      1.717
REMARK  Name = 
REMARK  10 active torsions:
REMARK  status: ('A' for Active; 'I' for Inactive)
REMARK    1  A    between atoms: C_1  and  N_2
REMARK    2  A    between atoms: N_2  and  C_3
REMARK    3  A    between atoms: N_2  and  C_4
REMARK    4  A    between atoms: C_4  and  C_5
REMARK    5  A    between atoms: C_9  and  C_10
REMARK    6  A    between atoms: N_15  and  C_16
REMARK    7  A    between atoms: C_16  and  C_17
REMARK    8  A    between atoms: C_21  and  C_22
REMARK    9  A    between atoms: C_26  and  S_27
REMARK   10  A    between atoms: S_27  and  C_28
REMARK                            x       y       z     vdW  Elec       q    Type
REMARK                         _______ _______ _______ _____ _____    ______ ____
ROOT
ATOM      1  C   UNL     1       2.587  15.357  19.492  0.00  0.00    +0.000 A 
ATOM      2  C   UNL     1       3.154  14.282  20.302  0.00  0.00    +0.000 A 
ATOM      3  C   UNL     1       2.569  13.076  20.298  0.00  0.00    +0.000 A 
ATOM      4  N   UNL     1       1.382  12.874  19.585  0.00  0.00    +0.000 N 
ATOM      5  C   UNL     1       0.561  11.753  19.469  0.00  0.00    +0.000 A 
ATOM      6  C   UNL     1      -0.470  12.180  18.624  0.00  0.00    +0.000 A 
ATOM      7  N   UNL     1      -0.283  13.480  18.211  0.00  0.00    +0.000 NA
ATOM      8  C   UNL     1       0.802  13.887  18.824  0.00  0.00    +0.000 A 
ATOM      9  C   UNL     1       1.449  15.153  18.794  0.00  0.00    +0.000 A 
ENDROOT
BRANCH   5  10
ATOM     10  C   UNL     1       0.794  10.458  20.120  0.00  0.00    +0.000 A 
ATOM     11  C   UNL     1       0.340  10.141  21.378  0.00  0.00    +0.000 A 
ATOM     12  C   UNL     1       0.603   8.864  21.803  0.00  0.00    +0.000 A 
ATOM     13  N   UNL     1       1.230   7.944  21.051  0.00  0.00    +0.000 NA
ATOM     14  C   UNL     1       1.608   8.328  19.828  0.00  0.00    +0.000 A 
ATOM     15  N   UNL     1       2.191   7.355  19.039  0.00  0.00    +0.000 N 
ATOM     16  N   UNL     1       1.430   9.565  19.348  0.00  0.00    +0.000 NA
ATOM     17  H   UNL     1       2.507   6.599  19.630  0.00  0.00    +0.000 HD
BRANCH  15  18
ATOM     18  C   UNL     1       3.069   7.826  17.995  0.00  0.00    +0.000 C 
BRANCH  18  19
ATOM     19  C   UNL     1       3.962   6.700  17.575  0.00  0.00    +0.000 C 
ATOM     20  C   UNL     1       4.697   6.733  16.258  0.00  0.00    +0.000 C 
ATOM     21  C   UNL     1       5.461   6.867  17.546  0.00  0.00    +0.000 C 
ENDBRANCH  18  19
ENDBRANCH  15  18
ENDBRANCH   5  10
BRANCH   6  22
ATOM     22  C   UNL     1      -1.657  11.435  18.221  0.00  0.00    +0.000 A 
ATOM     23  C   UNL     1      -1.530  10.262  17.463  0.00  0.00    +0.000 A 
ATOM     24  C   UNL     1      -2.662   9.551  17.048  0.00  0.00    +0.000 A 
ATOM     25  C   UNL     1      -3.939   9.999  17.395  0.00  0.00    +0.000 A 
ATOM     26  C   UNL     1      -4.066  11.165  18.151  0.00  0.00    +0.000 A 
ATOM     27  C   UNL     1      -2.941  11.898  18.525  0.00  0.00    +0.000 A 
BRANCH  26  28
ATOM     28  S   UNL     1      -5.674  11.779  18.580  0.00  0.00    +0.000 S 
ATOM     29  C   UNL     1      -6.618  10.324  18.923  0.00  0.00    +0.000 C 
ATOM     30  O   UNL     1      -5.543  12.535  19.821  0.00  0.00    +0.000 OA
ATOM     31  O   UNL     1      -6.228  12.403  17.396  0.00  0.00    +0.000 OA
ENDBRANCH  26  28
ENDBRANCH   6  22
BRANCH   1  32
ATOM     32  C   UNL     1       3.374  16.647  19.395  0.00  0.00    +0.000 C 
BRANCH  32  34
ATOM     33  C   UNL     1       4.718  18.039  20.864  0.00  0.00    +0.000 C 
ATOM     34  N   UNL     1       3.422  17.377  20.677  0.00  0.00    +0.000 NA
ATOM     35  C   UNL     1       2.351  18.372  20.738  0.00  0.00    +0.000 C 
ENDBRANCH  32  34
ENDBRANCH   1  32
TORSDOF 7
ENDMDL
MODEL 5
REMARK VINA RESULT:      -6.8      0.901      1.182
REMARK  Name = 
REMARK  10 active torsions:
REMARK  status: ('A' for Active; 'I' for Inactive)
REMARK    1  A    between atoms: C_1  and  N_2
REMARK    2  A    between atoms: N_2  and  C_3
REMARK    3  A    between atoms: N_2  and  C_4
REMARK    4  A    between atoms: C_4  and  C_5
REMARK    5  A    between atoms: C_9  and  C_10
REMARK    6  A    between atoms: N_15  and  C_16
REMARK    7  A    between atoms: C_16  and  C_17
REMARK    8  A    between atoms: C_21  and  C_22
REMARK    9  A    between atoms: C_26  and  S_27
REMARK   10  A    between atoms: S_27  and  C_28
REMARK                            x       y       z     vdW  Elec       q    Type
REMARK                         _______ _______ _______ _____ _____    ______ ____
ROOT
ATOM      1  C   UNL     1       2.721  15.308  19.347  0.00  0.00    +0.000 A 
ATOM      2  C   UNL     1       3.010  14.448  20.491  0.00  0.00    +0.000 A 
ATOM      3  C   UNL     1       2.239  13.375  20.721  0.00  0.00    +0.000 A 
ATOM      4  N   UNL     1       1.121  13.131  19.916  0.00  0.00    +0.000 N 
ATOM      5  C   UNL     1       0.144  12.137  19.981  0.00  0.00    +0.000 A 
ATOM      6  C   UNL     1      -0.703  12.432  18.907  0.00  0.00    +0.000 A 
ATOM      7  N   UNL     1      -0.261  13.523  18.195  0.00  0.00    +0.000 NA
ATOM      8  C   UNL     1       0.802  13.948  18.833  0.00  0.00    +0.000 A 
ATOM      9  C   UNL     1       1.648  15.059  18.565  0.00  0.00    +0.000 A 
ENDROOT
BRANCH   5  10
ATOM     10  C   UNL     1       0.088  11.065  20.981  0.00  0.00    +0.000 A 
ATOM     11  C   UNL     1      -0.542  11.184  22.198  0.00  0.00    +0.000 A 
ATOM     12  C   UNL     1      -0.543  10.060  22.983  0.00  0.00    +0.000 A 
ATOM     13  N   UNL     1      -0.003   8.890  22.606  0.00  0.00    +0.000 NA
ATOM     14  C   UNL     1       0.560   8.853  21.394  0.00  0.00    +0.000 A 
ATOM     15  N   UNL     1       1.052   7.627  20.989  0.00  0.00    +0.000 N 
ATOM     16  N   UNL     1       0.643   9.912  20.580  0.00  0.00    +0.000 NA
ATOM     17  H   UNL     1       1.173   7.038  21.801  0.00  0.00    +0.000 HD
BRANCH  15  18
ATOM     18  C   UNL     1       2.101   7.659  19.998  0.00  0.00    +0.000 C 
BRANCH  18  19
ATOM     19  C   UNL     1       2.475   6.252  19.650  0.00  0.00    +0.000 C 
ATOM     20  C   UNL     1       2.221   5.692  18.272  0.00  0.00    +0.000 C 
ATOM     21  C   UNL     1       3.629   5.960  18.724  0.00  0.00    +0.000 C 
ENDBRANCH  18  19
ENDBRANCH  15  18
ENDBRANCH   5  10
BRANCH   6  22
ATOM     22  C   UNL     1      -1.945  11.760  18.542  0.00  0.00    +0.000 A 
ATOM     23  C   UNL     1      -1.919  10.632  17.710  0.00  0.00    +0.000 A 
ATOM     24  C   UNL     1      -3.105   9.992  17.332  0.00  0.00    +0.000 A 
ATOM     25  C   UNL     1      -4.337  10.468  17.790  0.00  0.00    +0.000 A 
ATOM     26  C   UNL     1      -4.364  11.589  18.620  0.00  0.00    +0.000 A 
ATOM     27  C   UNL     1      -3.185  12.253  18.959  0.00  0.00    +0.000 A 
BRANCH  26  28
ATOM     28  S   UNL     1      -5.911  12.239  19.193  0.00  0.00    +0.000 S 
ATOM     29  C   UNL     1      -6.964  12.166  17.774  0.00  0.00    +0.000 C 
ATOM     30  O   UNL     1      -6.437  11.316  20.193  0.00  0.00    +0.000 OA
ATOM     31  O   UNL     1      -5.699  13.634  19.520  0.00  0.00    +0.000 OA
ENDBRANCH  26  28
ENDBRANCH   6  22
BRANCH   1  32
ATOM     32  C   UNL     1       3.715  16.404  19.029  0.00  0.00    +0.000 C 
BRANCH  32  34
ATOM     33  C   UNL     1       1.975  17.761  20.047  0.00  0.00    +0.000 C 
ATOM     34  N   UNL     1       3.404  17.668  19.725  0.00  0.00    +0.000 NA
ATOM     35  C   UNL     1       4.191  17.781  20.954  0.00  0.00    +0.000 C 
ENDBRANCH  32  34
ENDBRANCH   1  32
TORSDOF 7
ENDMDL
MODEL 6
REMARK VINA RESULT:      -6.8      3.824      7.487
REMARK  Name = 
REMARK  10 active torsions:
REMARK  status: ('A' for Active; 'I' for Inactive)
REMARK    1  A    between atoms: C_1  and  N_2
REMARK    2  A    between atoms: N_2  and  C_3
REMARK    3  A    between atoms: N_2  and  C_4
REMARK    4  A    between atoms: C_4  and  C_5
REMARK    5  A    between atoms: C_9  and  C_10
REMARK    6  A    between atoms: N_15  and  C_16
REMARK    7  A    between atoms: C_16  and  C_17
REMARK    8  A    between atoms: C_21  and  C_22
REMARK    9  A    between atoms: C_26  and  S_27
REMARK   10  A    between atoms: S_27  and  C_28
REMARK                            x       y       z     vdW  Elec       q    Type
REMARK                         _______ _______ _______ _____ _____    ______ ____
ROOT
ATOM      1  C   UNL     1       3.021   6.333  18.172  0.00  0.00    +0.000 A 
ATOM      2  C   UNL     1       2.440   6.145  19.499  0.00  0.00    +0.000 A 
ATOM      3  C   UNL     1       1.792   7.163  20.084  0.00  0.00    +0.000 A 
ATOM      4  N   UNL     1       1.744   8.415  19.460  0.00  0.00    +0.000 N 
ATOM      5  C   UNL     1       1.194   9.626  19.878  0.00  0.00    +0.000 A 
ATOM      6  C   UNL     1       1.472  10.500  18.820  0.00  0.00    +0.000 A 
ATOM      7  N   UNL     1       2.125   9.862  17.790  0.00  0.00    +0.000 NA
ATOM      8  C   UNL     1       2.312   8.633  18.206  0.00  0.00    +0.000 A 
ATOM      9  C   UNL     1       2.959   7.539  17.569  0.00  0.00    +0.000 A 
ENDROOT
BRANCH   5  10
ATOM     10  C   UNL     1       0.502   9.851  21.152  0.00  0.00    +0.000 A 
ATOM     11  C   UNL     1       0.827   9.210  22.324  0.00  0.00    +0.000 A 
ATOM     12  C   UNL     1       0.109   9.587  23.429  0.00  0.00    +0.000 A 
ATOM     13  N   UNL     1      -0.833  10.544  23.414  0.00  0.00    +0.000 NA
ATOM     14  C   UNL     1      -1.062  11.138  22.239  0.00  0.00    +0.000 A 
ATOM     15  N   UNL     1      -1.985  12.167  22.248  0.00  0.00    +0.000 N 
ATOM     16  N   UNL     1      -0.439  10.805  21.102  0.00  0.00    +0.000 NA
ATOM     17  H   UNL     1      -2.552  12.092  23.081  0.00  0.00    +0.000 HD
BRANCH  15  18
ATOM     18  C   UNL     1      -2.639  12.444  20.992  0.00  0.00    +0.000 C 
BRANCH  18  19
ATOM     19  C   UNL     1      -4.074  12.777  21.263  0.00  0.00    +0.000 C 
ATOM     20  C   UNL     1      -4.705  14.031  20.708  0.00  0.00    +0.000 C 
ATOM     21  C   UNL     1      -5.112  12.686  20.172  0.00  0.00    +0.000 C 
ENDBRANCH  18  19
ENDBRANCH  15  18
ENDBRANCH   5  10
BRANCH   6  22
ATOM     22  C   UNL     1       1.193  11.930  18.750  0.00  0.00    +0.000 A 
ATOM     23  C   UNL     1      -0.119  12.384  18.547  0.00  0.00    +0.000 A 
ATOM     24  C   UNL     1      -0.397  13.752  18.453  0.00  0.00    +0.000 A 
ATOM     25  C   UNL     1       0.633  14.689  18.569  0.00  0.00    +0.000 A 
ATOM     26  C   UNL     1       1.939  14.238  18.773  0.00  0.00    +0.000 A 
ATOM     27  C   UNL     1       2.222  12.873  18.821  0.00  0.00    +0.000 A 
BRANCH  26  28
ATOM     28  S   UNL     1       3.275  15.398  18.892  0.00  0.00    +0.000 S 
ATOM     29  C   UNL     1       2.498  16.905  19.395  0.00  0.00    +0.000 C 
ATOM     30  O   UNL     1       4.149  14.958  19.975  0.00  0.00    +0.000 OA
ATOM     31  O   UNL     1       3.801  15.590  17.556  0.00  0.00    +0.000 OA
ENDBRANCH  26  28
ENDBRANCH   6  22
BRANCH   1  32
ATOM     32  C   UNL     1       3.593   5.112  17.482  0.00  0.00    +0.000 C 
BRANCH  32  34
ATOM     33  C   UNL     1       5.776   4.750  18.485  0.00  0.00    +0.000 C 
ATOM     34  N   UNL     1       5.054   5.203  17.291  0.00  0.00    +0.000 NA
ATOM     35  C   UNL     1       5.468   4.406  16.136  0.00  0.00    +0.000 C 
ENDBRANCH  32  34
ENDBRANCH   1  32
TORSDOF 7
ENDMDL
MODEL 7
REMARK VINA RESULT:      -6.8      0.859      1.139
REMARK  Name = 
REMARK  10 active torsions:
REMARK  status: ('A' for Active; 'I' for Inactive)
REMARK    1  A    between atoms: C_1  and  N_2
REMARK    2  A    between atoms: N_2  and  C_3
REMARK    3  A    between atoms: N_2  and  C_4
REMARK    4  A    between atoms: C_4  and  C_5
REMARK    5  A    between atoms: C_9  and  C_10
REMARK    6  A    between atoms: N_15  and  C_16
REMARK    7  A    between atoms: C_16  and  C_17
REMARK    8  A    between atoms: C_21  and  C_22
REMARK    9  A    between atoms: C_26  and  S_27
REMARK   10  A    between atoms: S_27  and  C_28
REMARK                            x       y       z     vdW  Elec       q    Type
REMARK                         _______ _______ _______ _____ _____    ______ ____
ROOT
ATOM      1  C   UNL     1       2.364  15.628  19.652  0.00  0.00    +0.000 A 
ATOM      2  C   UNL     1       2.608  14.814  20.840  0.00  0.00    +0.000 A 
ATOM      3  C   UNL     1       1.931  13.667  21.002  0.00  0.00    +0.000 A 
ATOM      4  N   UNL     1       0.946  13.298  20.080  0.00  0.00    +0.000 N 
ATOM      5  C   UNL     1       0.078  12.206  20.055  0.00  0.00    +0.000 A 
ATOM      6  C   UNL     1      -0.665  12.399  18.884  0.00  0.00    +0.000 A 
ATOM      7  N   UNL     1      -0.261  13.525  18.204  0.00  0.00    +0.000 NA
ATOM      8  C   UNL     1       0.671  14.066  18.951  0.00  0.00    +0.000 A 
ATOM      9  C   UNL     1       1.421  15.259  18.758  0.00  0.00    +0.000 A 
ENDROOT
BRANCH   5  10
ATOM     10  C   UNL     1       0.019  11.143  21.064  0.00  0.00    +0.000 A 
ATOM     11  C   UNL     1      -0.622  11.271  22.274  0.00  0.00    +0.000 A 
ATOM     12  C   UNL     1      -0.623  10.155  23.070  0.00  0.00    +0.000 A 
ATOM     13  N   UNL     1      -0.075   8.983  22.708  0.00  0.00    +0.000 NA
ATOM     14  C   UNL     1       0.499   8.938  21.502  0.00  0.00    +0.000 A 
ATOM     15  N   UNL     1       1.000   7.710  21.113  0.00  0.00    +0.000 N 
ATOM     16  N   UNL     1       0.583   9.989  20.678  0.00  0.00    +0.000 NA
ATOM     17  H   UNL     1       1.118   7.130  21.930  0.00  0.00    +0.000 HD
BRANCH  15  18
ATOM     18  C   UNL     1       2.056   7.739  20.130  0.00  0.00    +0.000 C 
BRANCH  18  19
ATOM     19  C   UNL     1       2.208   6.367  19.549  0.00  0.00    +0.000 C 
ATOM     20  C   UNL     1       2.860   6.153  18.205  0.00  0.00    +0.000 C 
ATOM     21  C   UNL     1       3.560   5.706  19.458  0.00  0.00    +0.000 C 
ENDBRANCH  18  19
ENDBRANCH  15  18
ENDBRANCH   5  10
BRANCH   6  22
ATOM     22  C   UNL     1      -1.779  11.596  18.395  0.00  0.00    +0.000 A 
ATOM     23  C   UNL     1      -1.537  10.447  17.628  0.00  0.00    +0.000 A 
ATOM     24  C   UNL     1      -2.597   9.680  17.131  0.00  0.00    +0.000 A 
ATOM     25  C   UNL     1      -3.918  10.048  17.402  0.00  0.00    +0.000 A 
ATOM     26  C   UNL     1      -4.160  11.190  18.166  0.00  0.00    +0.000 A 
ATOM     27  C   UNL     1      -3.105  11.979  18.623  0.00  0.00    +0.000 A 
BRANCH  26  28
ATOM     28  S   UNL     1      -5.824  11.704  18.501  0.00  0.00    +0.000 S 
ATOM     29  C   UNL     1      -5.705  12.594  20.024  0.00  0.00    +0.000 C 
ATOM     30  O   UNL     1      -6.216  12.645  17.457  0.00  0.00    +0.000 OA
ATOM     31  O   UNL     1      -6.605  10.508  18.742  0.00  0.00    +0.000 OA
ENDBRANCH  26  28
ENDBRANCH   6  22
BRANCH   1  32
ATOM     32  C   UNL     1       3.268  16.821  19.426  0.00  0.00    +0.000 C 
BRANCH  32  34
ATOM     33  C   UNL     1       5.652  16.727  18.971  0.00  0.00    +0.000 C 
ATOM     34  N   UNL     1       4.307  16.559  18.411  0.00  0.00    +0.000 NA
ATOM     35  C   UNL     1       4.165  15.206  17.873  0.00  0.00    +0.000 C 
ENDBRANCH  32  34
ENDBRANCH   1  32
TORSDOF 7
ENDMDL
MODEL 8
REMARK VINA RESULT:      -6.7      1.281      1.681
REMARK  Name = 
REMARK  10 active torsions:
REMARK  status: ('A' for Active; 'I' for Inactive)
REMARK    1  A    between atoms: C_1  and  N_2
REMARK    2  A    between atoms: N_2  and  C_3
REMARK    3  A    between atoms: N_2  and  C_4
REMARK    4  A    between atoms: C_4  and  C_5
REMARK    5  A    between atoms: C_9  and  C_10
REMARK    6  A    between atoms: N_15  and  C_16
REMARK    7  A    between atoms: C_16  and  C_17
REMARK    8  A    between atoms: C_21  and  C_22
REMARK    9  A    between atoms: C_26  and  S_27
REMARK   10  A    between atoms: S_27  and  C_28
REMARK                            x       y       z     vdW  Elec       q    Type
REMARK                         _______ _______ _______ _____ _____    ______ ____
ROOT
ATOM      1  C   UNL     1       2.336  15.573  19.708  0.00  0.00    +0.000 A 
ATOM      2  C   UNL     1       2.933  14.510  20.512  0.00  0.00    +0.000 A 
ATOM      3  C   UNL     1       2.408  13.277  20.468  0.00  0.00    +0.000 A 
ATOM      4  N   UNL     1       1.250  13.034  19.720  0.00  0.00    +0.000 N 
ATOM      5  C   UNL     1       0.488  11.877  19.561  0.00  0.00    +0.000 A 
ATOM      6  C   UNL     1      -0.541  12.273  18.698  0.00  0.00    +0.000 A 
ATOM      7  N   UNL     1      -0.407  13.588  18.316  0.00  0.00    +0.000 NA
ATOM      8  C   UNL     1       0.641  14.034  18.964  0.00  0.00    +0.000 A 
ATOM      9  C   UNL     1       1.227  15.329  18.977  0.00  0.00    +0.000 A 
ENDROOT
BRANCH   5  10
ATOM     10  C   UNL     1       0.767  10.582  20.191  0.00  0.00    +0.000 A 
ATOM     11  C   UNL     1       0.410  10.265  21.481  0.00  0.00    +0.000 A 
ATOM     12  C   UNL     1       0.701   8.988  21.884  0.00  0.00    +0.000 A 
ATOM     13  N   UNL     1       1.266   8.067  21.087  0.00  0.00    +0.000 NA
ATOM     14  C   UNL     1       1.550   8.450  19.838  0.00  0.00    +0.000 A 
ATOM     15  N   UNL     1       2.068   7.475  19.007  0.00  0.00    +0.000 N 
ATOM     16  N   UNL     1       1.339   9.687  19.373  0.00  0.00    +0.000 NA
ATOM     17  H   UNL     1       2.427   6.718  19.571  0.00  0.00    +0.000 HD
BRANCH  15  18
ATOM     18  C   UNL     1       2.865   7.945  17.898  0.00  0.00    +0.000 C 
BRANCH  18  19
ATOM     19  C   UNL     1       4.108   7.113  17.815  0.00  0.00    +0.000 C 
ATOM     20  C   UNL     1       4.076   5.712  17.257  0.00  0.00    +0.000 C 
ATOM     21  C   UNL     1       4.753   6.811  16.486  0.00  0.00    +0.000 C 
ENDBRANCH  18  19
ENDBRANCH  15  18
ENDBRANCH   5  10
BRANCH   6  22
ATOM     22  C   UNL     1      -1.680  11.481  18.249  0.00  0.00    +0.000 A 
ATOM     23  C   UNL     1      -1.484  10.382  17.399  0.00  0.00    +0.000 A 
ATOM     24  C   UNL     1      -2.571   9.628  16.941  0.00  0.00    +0.000 A 
ATOM     25  C   UNL     1      -3.871   9.957  17.335  0.00  0.00    +0.000 A 
ATOM     26  C   UNL     1      -4.066  11.049  18.182  0.00  0.00    +0.000 A 
ATOM     27  C   UNL     1      -2.988  11.827  18.602  0.00  0.00    +0.000 A 
BRANCH  26  28
ATOM     28  S   UNL     1      -5.705  11.514  18.675  0.00  0.00    +0.000 S 
ATOM     29  C   UNL     1      -6.283  12.533  17.349  0.00  0.00    +0.000 C 
ATOM     30  O   UNL     1      -6.520  10.305  18.703  0.00  0.00    +0.000 OA
ATOM     31  O   UNL     1      -5.582  12.345  19.855  0.00  0.00    +0.000 OA
ENDBRANCH  26  28
ENDBRANCH   6  22
BRANCH   1  32
ATOM     32  C   UNL     1       3.062  16.901  19.657  0.00  0.00    +0.000 C 
BRANCH  32  34
ATOM     33  C   UNL     1       5.298  16.393  18.855  0.00  0.00    +0.000 C 
ATOM     34  N   UNL     1       4.000  16.989  18.521  0.00  0.00    +0.000 NA
ATOM     35  C   UNL     1       3.441  16.319  17.345  0.00  0.00    +0.000 C 
ENDBRANCH  32  34
ENDBRANCH   1  32
TORSDOF 7
ENDMDL
MODEL 9
REMARK VINA RESULT:      -6.7      2.212      4.231
REMARK  Name = 
REMARK  10 active torsions:
REMARK  status: ('A' for Active; 'I' for Inactive)
REMARK    1  A    between atoms: C_1  and  N_2
REMARK    2  A    between atoms: N_2  and  C_3
REMARK    3  A    between atoms: N_2  and  C_4
REMARK    4  A    between atoms: C_4  and  C_5
REMARK    5  A    between atoms: C_9  and  C_10
REMARK    6  A    between atoms: N_15  and  C_16
REMARK    7  A    between atoms: C_16  and  C_17
REMARK    8  A    between atoms: C_21  and  C_22
REMARK    9  A    between atoms: C_26  and  S_27
REMARK   10  A    between atoms: S_27  and  C_28
REMARK                            x       y       z     vdW  Elec       q    Type
REMARK                         _______ _______ _______ _____ _____    ______ ____
ROOT
ATOM      1  C   UNL     1       2.998  15.057  19.175  0.00  0.00    +0.000 A 
ATOM      2  C   UNL     1       2.944  14.539  20.540  0.00  0.00    +0.000 A 
ATOM      3  C   UNL     1       2.057  13.581  20.846  0.00  0.00    +0.000 A 
ATOM      4  N   UNL     1       1.141  13.140  19.885  0.00  0.00    +0.000 N 
ATOM      5  C   UNL     1       0.100  12.215  19.967  0.00  0.00    +0.000 A 
ATOM      6  C   UNL     1      -0.447  12.216  18.678  0.00  0.00    +0.000 A 
ATOM      7  N   UNL     1       0.234  13.064  17.836  0.00  0.00    +0.000 NA
ATOM      8  C   UNL     1       1.150  13.633  18.582  0.00  0.00    +0.000 A 
ATOM      9  C   UNL     1       2.120  14.617  18.248  0.00  0.00    +0.000 A 
ENDROOT
BRANCH   5  10
ATOM     10  C   UNL     1      -0.272  11.459  21.168  0.00  0.00    +0.000 A 
ATOM     11  C   UNL     1       0.426  10.370  21.634  0.00  0.00    +0.000 A 
ATOM     12  C   UNL     1      -0.035   9.822  22.803  0.00  0.00    +0.000 A 
ATOM     13  N   UNL     1      -1.076  10.313  23.495  0.00  0.00    +0.000 NA
ATOM     14  C   UNL     1      -1.676  11.394  22.987  0.00  0.00    +0.000 A 
ATOM     15  N   UNL     1      -2.702  11.931  23.741  0.00  0.00    +0.000 N 
ATOM     16  N   UNL     1      -1.320  11.968  21.832  0.00  0.00    +0.000 NA
ATOM     17  H   UNL     1      -3.023  11.236  24.400  0.00  0.00    +0.000 HD
BRANCH  15  18
ATOM     18  C   UNL     1      -3.685  12.701  23.018  0.00  0.00    +0.000 C 
BRANCH  18  19
ATOM     19  C   UNL     1      -4.823  13.013  23.941  0.00  0.00    +0.000 C 
ATOM     20  C   UNL     1      -5.713  14.209  23.710  0.00  0.00    +0.000 C 
ATOM     21  C   UNL     1      -6.253  12.822  23.503  0.00  0.00    +0.000 C 
ENDBRANCH  18  19
ENDBRANCH  15  18
ENDBRANCH   5  10
BRANCH   6  22
ATOM     22  C   UNL     1      -1.620  11.486  18.210  0.00  0.00    +0.000 A 
ATOM     23  C   UNL     1      -1.472  10.400  17.335  0.00  0.00    +0.000 A 
ATOM     24  C   UNL     1      -2.590   9.707  16.857  0.00  0.00    +0.000 A 
ATOM     25  C   UNL     1      -3.875  10.085  17.256  0.00  0.00    +0.000 A 
ATOM     26  C   UNL     1      -4.023  11.164  18.128  0.00  0.00    +0.000 A 
ATOM     27  C   UNL     1      -2.912  11.884  18.568  0.00  0.00    +0.000 A 
BRANCH  26  28
ATOM     28  S   UNL     1      -5.640  11.692  18.629  0.00  0.00    +0.000 S 
ATOM     29  C   UNL     1      -6.229  12.644  17.259  0.00  0.00    +0.000 C 
ATOM     30  O   UNL     1      -6.478  10.504  18.745  0.00  0.00    +0.000 OA
ATOM     31  O   UNL     1      -5.473  12.586  19.756  0.00  0.00    +0.000 OA
ENDBRANCH  26  28
ENDBRANCH   6  22
BRANCH   1  32
ATOM     32  C   UNL     1       4.123  16.011  18.835  0.00  0.00    +0.000 C 
BRANCH  32  34
ATOM     33  C   UNL     1       6.220  15.038  18.088  0.00  0.00    +0.000 C 
ATOM     34  N   UNL     1       5.444  15.497  19.246  0.00  0.00    +0.000 NA
ATOM     35  C   UNL     1       6.194  16.530  19.961  0.00  0.00    +0.000 C 
ENDBRANCH  32  34
ENDBRANCH   1  32
TORSDOF 7
ENDMDL
