MODEL 1
REMARK VINA RESULT:      -7.5      0.000      0.000
REMARK  Name = 
REMARK  6 active torsions:
REMARK  status: ('A' for Active; 'I' for Inactive)
REMARK    1  A    between atoms: C_1  and  C_2
REMARK    2  A    between atoms: N_4  and  C_5
REMARK    3  A    between atoms: C_5  and  C_6
REMARK    4  A    between atoms: N_9  and  C_10
REMARK    5  A    between atoms: N_9  and  C_11
REMARK    6  A    between atoms: C_15  and  N_16
REMARK                            x       y       z     vdW  Elec       q    Type
REMARK                         _______ _______ _______ _____ _____    ______ ____
ROOT
ATOM      1  C   UNL     1       2.004   5.494  17.860  0.00  0.00    +0.000 C 
ATOM      2  C   UNL     1       3.392   4.861  17.965  0.00  0.00    +0.000 C 
ATOM      3  C   UNL     1       4.447   5.778  17.336  0.00  0.00    +0.000 C 
ATOM      4  N   UNL     1       5.709   5.501  18.024  0.00  0.00    +0.000 NA
ATOM      5  C   UNL     1       5.307   5.202  19.409  0.00  0.00    +0.000 C 
ATOM      6  C   UNL     1       3.850   4.639  19.430  0.00  0.00    +0.000 C 
ENDROOT
BRANCH   6   7
ATOM      7  N   UNL     1       3.745   3.237  19.911  0.00  0.00    +0.000 NA
ATOM      8  C   UNL     1       3.616   2.199  18.857  0.00  0.00    +0.000 C 
ATOM      9  C   UNL     1       2.202   2.024  18.265  0.00  0.00    +0.000 C 
ATOM     10  O   UNL     1       1.226   1.789  19.286  0.00  0.00    +0.000 OA
ATOM     11  C   UNL     1       1.244   2.841  20.253  0.00  0.00    +0.000 C 
ATOM     12  C   UNL     1       2.640   3.010  20.876  0.00  0.00    +0.000 C 
ENDBRANCH   6   7
BRANCH   4  13
ATOM     13  C   UNL     1       6.461   4.379  17.418  0.00  0.00    +0.000 C 
BRANCH  13  14
ATOM     14  C   UNL     1       6.763   4.561  15.963  0.00  0.00    +0.000 A 
ATOM     15  N   UNL     1       6.277   3.924  14.929  0.00  0.00    +0.000 NA
ATOM     16  C   UNL     1       6.903   4.517  13.861  0.00  0.00    +0.000 A 
ATOM     17  N   UNL     1       6.610   4.091  12.610  0.00  0.00    +0.000 N 
ATOM     18  C   UNL     1       7.290   4.637  11.457  0.00  0.00    +0.000 C 
ATOM     19  C   UNL     1       5.897   2.846  12.405  0.00  0.00    +0.000 C 
ATOM     20  N   UNL     1       7.748   5.499  14.224  0.00  0.00    +0.000 NA
ATOM     21  O   UNL     1       7.666   5.522  15.616  0.00  0.00    +0.000 OA
ENDBRANCH  13  14
ENDBRANCH   4  13
TORSDOF 3
ENDMDL
MODEL 2
REMARK VINA RESULT:      -7.2      1.069      1.386
REMARK  Name = 
REMARK  6 active torsions:
REMARK  status: ('A' for Active; 'I' for Inactive)
REMARK    1  A    between atoms: C_1  and  C_2
REMARK    2  A    between atoms: N_4  and  C_5
REMARK    3  A    between atoms: C_5  and  C_6
REMARK    4  A    between atoms: N_9  and  C_10
REMARK    5  A    between atoms: N_9  and  C_11
REMARK    6  A    between atoms: C_15  and  N_16
REMARK                            x       y       z     vdW  Elec       q    Type
REMARK                         _______ _______ _______ _____ _____    ______ ____
ROOT
ATOM      1  C   UNL     1       2.870   7.089  17.533  0.00  0.00    +0.000 C 
ATOM      2  C   UNL     1       3.789   5.874  17.664  0.00  0.00    +0.000 C 
ATOM      3  C   UNL     1       5.258   6.306  17.596  0.00  0.00    +0.000 C 
ATOM      4  N   UNL     1       6.022   5.321  18.364  0.00  0.00    +0.000 NA
ATOM      5  C   UNL     1       5.116   4.938  19.461  0.00  0.00    +0.000 C 
ATOM      6  C   UNL     1       3.632   5.136  19.019  0.00  0.00    +0.000 C 
ENDROOT
BRANCH   6   7
ATOM      7  N   UNL     1       2.842   3.879  18.957  0.00  0.00    +0.000 NA
ATOM      8  C   UNL     1       1.368   4.035  19.061  0.00  0.00    +0.000 C 
ATOM      9  C   UNL     1       0.818   4.224  20.490  0.00  0.00    +0.000 C 
ATOM     10  O   UNL     1       1.248   3.175  21.365  0.00  0.00    +0.000 OA
ATOM     11  C   UNL     1       2.674   3.083  21.379  0.00  0.00    +0.000 C 
ATOM     12  C   UNL     1       3.238   2.864  19.965  0.00  0.00    +0.000 C 
ENDBRANCH   6   7
BRANCH   4  13
ATOM     13  C   UNL     1       6.427   4.149  17.555  0.00  0.00    +0.000 C 
BRANCH  13  14
ATOM     14  C   UNL     1       6.766   4.476  16.134  0.00  0.00    +0.000 A 
ATOM     15  N   UNL     1       6.305   3.947  15.029  0.00  0.00    +0.000 NA
ATOM     16  C   UNL     1       6.959   4.643  14.043  0.00  0.00    +0.000 A 
ATOM     17  N   UNL     1       6.696   4.345  12.748  0.00  0.00    +0.000 N 
ATOM     18  C   UNL     1       7.405   5.002  11.672  0.00  0.00    +0.000 C 
ATOM     19  C   UNL     1       5.988   3.129  12.401  0.00  0.00    +0.000 C 
ATOM     20  N   UNL     1       7.795   5.581  14.523  0.00  0.00    +0.000 NA
ATOM     21  O   UNL     1       7.678   5.464  15.907  0.00  0.00    +0.000 OA
ENDBRANCH  13  14
ENDBRANCH   4  13
TORSDOF 3
ENDMDL
MODEL 3
REMARK VINA RESULT:      -7.1      1.200      1.612
REMARK  Name = 
REMARK  6 active torsions:
REMARK  status: ('A' for Active; 'I' for Inactive)
REMARK    1  A    between atoms: C_1  and  C_2
REMARK    2  A    between atoms: N_4  and  C_5
REMARK    3  A    between atoms: C_5  and  C_6
REMARK    4  A    between atoms: N_9  and  C_10
REMARK    5  A    between atoms: N_9  and  C_11
REMARK    6  A    between atoms: C_15  and  N_16
REMARK                            x       y       z     vdW  Elec       q    Type
REMARK                         _______ _______ _______ _____ _____    ______ ____
ROOT
ATOM      1  C   UNL     1       2.604   7.859  17.734  0.00  0.00    +0.000 C 
ATOM      2  C   UNL     1       3.281   6.492  17.833  0.00  0.00    +0.000 C 
ATOM      3  C   UNL     1       4.792   6.626  17.610  0.00  0.00    +0.000 C 
ATOM      4  N   UNL     1       5.424   5.531  18.347  0.00  0.00    +0.000 NA
ATOM      5  C   UNL     1       4.576   5.362  19.540  0.00  0.00    +0.000 C 
ATOM      6  C   UNL     1       3.120   5.834  19.229  0.00  0.00    +0.000 C 
ENDROOT
BRANCH   6   7
ATOM      7  N   UNL     1       2.101   4.755  19.297  0.00  0.00    +0.000 NA
ATOM      8  C   UNL     1       2.476   3.560  20.096  0.00  0.00    +0.000 C 
ATOM      9  C   UNL     1       3.395   2.546  19.384  0.00  0.00    +0.000 C 
ATOM     10  O   UNL     1       2.849   2.127  18.129  0.00  0.00    +0.000 OA
ATOM     11  C   UNL     1       2.592   3.254  17.289  0.00  0.00    +0.000 C 
ATOM     12  C   UNL     1       1.652   4.262  17.971  0.00  0.00    +0.000 C 
ENDBRANCH   6   7
BRANCH   4  13
ATOM     13  C   UNL     1       5.514   4.282  17.558  0.00  0.00    +0.000 C 
BRANCH  13  14
ATOM     14  C   UNL     1       6.131   4.457  16.205  0.00  0.00    +0.000 A 
ATOM     15  N   UNL     1       5.717   4.023  15.042  0.00  0.00    +0.000 NA
ATOM     16  C   UNL     1       6.666   4.490  14.168  0.00  0.00    +0.000 A 
ATOM     17  N   UNL     1       6.530   4.220  12.848  0.00  0.00    +0.000 N 
ATOM     18  C   UNL     1       7.535   4.634  11.894  0.00  0.00    +0.000 C 
ATOM     19  C   UNL     1       5.590   3.214  12.395  0.00  0.00    +0.000 C 
ATOM     20  N   UNL     1       7.636   5.200  14.771  0.00  0.00    +0.000 NA
ATOM     21  O   UNL     1       7.291   5.170  16.122  0.00  0.00    +0.000 OA
ENDBRANCH  13  14
ENDBRANCH   4  13
TORSDOF 3
ENDMDL
MODEL 4
REMARK VINA RESULT:      -7.0      4.294      7.906
REMARK  Name = 
REMARK  6 active torsions:
REMARK  status: ('A' for Active; 'I' for Inactive)
REMARK    1  A    between atoms: C_1  and  C_2
REMARK    2  A    between atoms: N_4  and  C_5
REMARK    3  A    between atoms: C_5  and  C_6
REMARK    4  A    between atoms: N_9  and  C_10
REMARK    5  A    between atoms: N_9  and  C_11
REMARK    6  A    between atoms: C_15  and  N_16
REMARK                            x       y       z     vdW  Elec       q    Type
REMARK                         _______ _______ _______ _____ _____    ______ ____
ROOT
ATOM      1  C   UNL     1       2.783   3.230  17.194  0.00  0.00    +0.000 C 
ATOM      2  C   UNL     1       2.953   4.683  17.641  0.00  0.00    +0.000 C 
ATOM      3  C   UNL     1       2.012   4.996  18.810  0.00  0.00    +0.000 C 
ATOM      4  N   UNL     1       2.649   6.057  19.590  0.00  0.00    +0.000 NA
ATOM      5  C   UNL     1       4.090   5.767  19.484  0.00  0.00    +0.000 C 
ATOM      6  C   UNL     1       4.381   4.997  18.157  0.00  0.00    +0.000 C 
ENDROOT
BRANCH   6   7
ATOM      7  N   UNL     1       5.243   5.736  17.199  0.00  0.00    +0.000 NA
ATOM      8  C   UNL     1       5.386   5.126  15.853  0.00  0.00    +0.000 C 
ATOM      9  C   UNL     1       6.397   3.964  15.753  0.00  0.00    +0.000 C 
ATOM     10  O   UNL     1       7.688   4.344  16.243  0.00  0.00    +0.000 OA
ATOM     11  C   UNL     1       7.597   4.822  17.586  0.00  0.00    +0.000 C 
ATOM     12  C   UNL     1       6.616   6.000  17.699  0.00  0.00    +0.000 C 
ENDBRANCH   6   7
BRANCH   4  13
ATOM     13  C   UNL     1       2.326   7.413  19.090  0.00  0.00    +0.000 C 
BRANCH  13  14
ATOM     14  C   UNL     1       1.533   8.244  20.049  0.00  0.00    +0.000 A 
ATOM     15  N   UNL     1       1.160   9.495  19.950  0.00  0.00    +0.000 NA
ATOM     16  C   UNL     1       0.456   9.713  21.108  0.00  0.00    +0.000 A 
ATOM     17  N   UNL     1      -0.090  10.934  21.322  0.00  0.00    +0.000 N 
ATOM     18  C   UNL     1      -0.785  11.235  22.554  0.00  0.00    +0.000 C 
ATOM     19  C   UNL     1       0.306  12.070  20.515  0.00  0.00    +0.000 C 
ATOM     20  N   UNL     1       0.389   8.627  21.898  0.00  0.00    +0.000 NA
ATOM     21  O   UNL     1       1.111   7.656  21.205  0.00  0.00    +0.000 OA
ENDBRANCH  13  14
ENDBRANCH   4  13
TORSDOF 3
ENDMDL
MODEL 5
REMARK VINA RESULT:      -6.9      1.328      1.783
REMARK  Name = 
REMARK  6 active torsions:
REMARK  status: ('A' for Active; 'I' for Inactive)
REMARK    1  A    between atoms: C_1  and  C_2
REMARK    2  A    between atoms: N_4  and  C_5
REMARK    3  A    between atoms: C_5  and  C_6
REMARK    4  A    between atoms: N_9  and  C_10
REMARK    5  A    between atoms: N_9  and  C_11
REMARK    6  A    between atoms: C_15  and  N_16
REMARK                            x       y       z     vdW  Elec       q    Type
REMARK                         _______ _______ _______ _____ _____    ______ ____
ROOT
ATOM      1  C   UNL     1       2.395   7.959  18.187  0.00  0.00    +0.000 C 
ATOM      2  C   UNL     1       2.994   6.560  18.044  0.00  0.00    +0.000 C 
ATOM      3  C   UNL     1       4.462   6.649  17.609  0.00  0.00    +0.000 C 
ATOM      4  N   UNL     1       5.128   5.453  18.127  0.00  0.00    +0.000 NA
ATOM      5  C   UNL     1       4.454   5.193  19.412  0.00  0.00    +0.000 C 
ATOM      6  C   UNL     1       3.000   5.762  19.375  0.00  0.00    +0.000 C 
ENDROOT
BRANCH   6   7
ATOM      7  N   UNL     1       1.938   4.729  19.488  0.00  0.00    +0.000 NA
ATOM      8  C   UNL     1       1.402   4.498  20.854  0.00  0.00    +0.000 C 
ATOM      9  C   UNL     1       2.268   3.602  21.764  0.00  0.00    +0.000 C 
ATOM     10  O   UNL     1       2.557   2.343  21.147  0.00  0.00    +0.000 OA
ATOM     11  C   UNL     1       3.188   2.536  19.880  0.00  0.00    +0.000 C 
ATOM     12  C   UNL     1       2.324   3.402  18.947  0.00  0.00    +0.000 C 
ENDBRANCH   6   7
BRANCH   4  13
ATOM     13  C   UNL     1       5.024   4.294  17.211  0.00  0.00    +0.000 C 
BRANCH  13  14
ATOM     14  C   UNL     1       5.781   4.459  15.930  0.00  0.00    +0.000 A 
ATOM     15  N   UNL     1       5.522   3.968  14.745  0.00  0.00    +0.000 NA
ATOM     16  C   UNL     1       6.540   4.457  13.965  0.00  0.00    +0.000 A 
ATOM     17  N   UNL     1       6.566   4.139  12.649  0.00  0.00    +0.000 N 
ATOM     18  C   UNL     1       7.651   4.575  11.797  0.00  0.00    +0.000 C 
ATOM     19  C   UNL     1       5.734   3.072  12.132  0.00  0.00    +0.000 C 
ATOM     20  N   UNL     1       7.400   5.235  14.646  0.00  0.00    +0.000 NA
ATOM     21  O   UNL     1       6.907   5.228  15.950  0.00  0.00    +0.000 OA
ENDBRANCH  13  14
ENDBRANCH   4  13
TORSDOF 3
ENDMDL
MODEL 6
REMARK VINA RESULT:      -6.8      4.222      7.647
REMARK  Name = 
REMARK  6 active torsions:
REMARK  status: ('A' for Active; 'I' for Inactive)
REMARK    1  A    between atoms: C_1  and  C_2
REMARK    2  A    between atoms: N_4  and  C_5
REMARK    3  A    between atoms: C_5  and  C_6
REMARK    4  A    between atoms: N_9  and  C_10
REMARK    5  A    between atoms: N_9  and  C_11
REMARK    6  A    between atoms: C_15  and  N_16
REMARK                            x       y       z     vdW  Elec       q    Type
REMARK                         _______ _______ _______ _____ _____    ______ ____
ROOT
ATOM      1  C   UNL     1       2.251   2.838  17.829  0.00  0.00    +0.000 C 
ATOM      2  C   UNL     1       2.586   4.326  17.716  0.00  0.00    +0.000 C 
ATOM      3  C   UNL     1       1.985   5.100  18.895  0.00  0.00    +0.000 C 
ATOM      4  N   UNL     1       2.841   6.267  19.112  0.00  0.00    +0.000 NA
ATOM      5  C   UNL     1       4.195   5.787  18.786  0.00  0.00    +0.000 C 
ATOM      6  C   UNL     1       4.111   4.611  17.762  0.00  0.00    +0.000 C 
ENDROOT
BRANCH   6   7
ATOM      7  N   UNL     1       4.731   4.904  16.444  0.00  0.00    +0.000 NA
ATOM      8  C   UNL     1       5.935   4.105  16.103  0.00  0.00    +0.000 C 
ATOM      9  C   UNL     1       7.254   4.582  16.747  0.00  0.00    +0.000 C 
ATOM     10  O   UNL     1       7.507   5.964  16.473  0.00  0.00    +0.000 OA
ATOM     11  C   UNL     1       6.411   6.773  16.904  0.00  0.00    +0.000 C 
ATOM     12  C   UNL     1       5.092   6.331  16.248  0.00  0.00    +0.000 C 
ENDBRANCH   6   7
BRANCH   4  13
ATOM     13  C   UNL     1       2.456   7.427  18.276  0.00  0.00    +0.000 C 
BRANCH  13  14
ATOM     14  C   UNL     1       1.694   8.484  19.012  0.00  0.00    +0.000 A 
ATOM     15  N   UNL     1       1.487   8.613  20.298  0.00  0.00    +0.000 NA
ATOM     16  C   UNL     1       0.741   9.762  20.390  0.00  0.00    +0.000 A 
ATOM     17  N   UNL     1       0.357  10.196  21.614  0.00  0.00    +0.000 N 
ATOM     18  C   UNL     1      -0.484  11.364  21.761  0.00  0.00    +0.000 C 
ATOM     19  C   UNL     1       0.455   9.327  22.769  0.00  0.00    +0.000 C 
ATOM     20  N   UNL     1       0.501  10.333  19.196  0.00  0.00    +0.000 NA
ATOM     21  O   UNL     1       1.120   9.482  18.281  0.00  0.00    +0.000 OA
ENDBRANCH  13  14
ENDBRANCH   4  13
TORSDOF 3
ENDMDL
MODEL 7
REMARK VINA RESULT:      -6.7      3.959      7.597
REMARK  Name = 
REMARK  6 active torsions:
REMARK  status: ('A' for Active; 'I' for Inactive)
REMARK    1  A    between atoms: C_1  and  C_2
REMARK    2  A    between atoms: N_4  and  C_5
REMARK    3  A    between atoms: C_5  and  C_6
REMARK    4  A    between atoms: N_9  and  C_10
REMARK    5  A    between atoms: N_9  and  C_11
REMARK    6  A    between atoms: C_15  and  N_16
REMARK                            x       y       z     vdW  Elec       q    Type
REMARK                         _______ _______ _______ _____ _____    ______ ____
ROOT
ATOM      1  C   UNL     1       3.024   2.267  18.239  0.00  0.00    +0.000 C 
ATOM      2  C   UNL     1       3.071   3.792  18.148  0.00  0.00    +0.000 C 
ATOM      3  C   UNL     1       2.491   4.422  19.421  0.00  0.00    +0.000 C 
ATOM      4  N   UNL     1       3.144   5.721  19.582  0.00  0.00    +0.000 NA
ATOM      5  C   UNL     1       4.511   5.503  19.079  0.00  0.00    +0.000 C 
ATOM      6  C   UNL     1       4.513   4.350  18.025  0.00  0.00    +0.000 C 
ENDROOT
BRANCH   6   7
ATOM      7  N   UNL     1       4.903   4.776  16.657  0.00  0.00    +0.000 NA
ATOM      8  C   UNL     1       6.062   4.062  16.062  0.00  0.00    +0.000 C 
ATOM      9  C   UNL     1       7.451   4.545  16.528  0.00  0.00    +0.000 C 
ATOM     10  O   UNL     1       7.613   5.954  16.338  0.00  0.00    +0.000 OA
ATOM     11  C   UNL     1       6.576   6.675  17.006  0.00  0.00    +0.000 C 
ATOM     12  C   UNL     1       5.183   6.229  16.531  0.00  0.00    +0.000 C 
ENDBRANCH   6   7
BRANCH   4  13
ATOM     13  C   UNL     1       2.457   6.806  18.846  0.00  0.00    +0.000 C 
BRANCH  13  14
ATOM     14  C   UNL     1       1.764   7.799  19.726  0.00  0.00    +0.000 A 
ATOM     15  N   UNL     1       1.453   9.047  19.484  0.00  0.00    +0.000 NA
ATOM     16  C   UNL     1       0.828   9.452  20.637  0.00  0.00    +0.000 A 
ATOM     17  N   UNL     1       0.360  10.720  20.717  0.00  0.00    +0.000 N 
ATOM     18  C   UNL     1      -0.248  11.216  21.932  0.00  0.00    +0.000 C 
ATOM     19  C   UNL     1       0.770  11.719  19.750  0.00  0.00    +0.000 C 
ATOM     20  N   UNL     1       0.748   8.480  21.564  0.00  0.00    +0.000 NA
ATOM     21  O   UNL     1       1.378   7.389  20.968  0.00  0.00    +0.000 OA
ENDBRANCH  13  14
ENDBRANCH   4  13
TORSDOF 3
ENDMDL
MODEL 8
REMARK VINA RESULT:      -6.6      2.643      3.772
REMARK  Name = 
REMARK  6 active torsions:
REMARK  status: ('A' for Active; 'I' for Inactive)
REMARK    1  A    between atoms: C_1  and  C_2
REMARK    2  A    between atoms: N_4  and  C_5
REMARK    3  A    between atoms: C_5  and  C_6
REMARK    4  A    between atoms: N_9  and  C_10
REMARK    5  A    between atoms: N_9  and  C_11
REMARK    6  A    between atoms: C_15  and  N_16
REMARK                            x       y       z     vdW  Elec       q    Type
REMARK                         _______ _______ _______ _____ _____    ______ ____
ROOT
ATOM      1  C   UNL     1       1.144   4.324  20.633  0.00  0.00    +0.000 C 
ATOM      2  C   UNL     1       2.419   4.661  19.859  0.00  0.00    +0.000 C 
ATOM      3  C   UNL     1       2.885   3.450  19.044  0.00  0.00    +0.000 C 
ATOM      4  N   UNL     1       3.613   3.975  17.888  0.00  0.00    +0.000 NA
ATOM      5  C   UNL     1       2.904   5.223  17.553  0.00  0.00    +0.000 C 
ATOM      6  C   UNL     1       2.222   5.807  18.831  0.00  0.00    +0.000 C 
ENDROOT
BRANCH   6   7
ATOM      7  N   UNL     1       2.753   7.127  19.258  0.00  0.00    +0.000 NA
ATOM      8  C   UNL     1       2.014   7.797  20.358  0.00  0.00    +0.000 C 
ATOM      9  C   UNL     1       0.724   8.533  19.941  0.00  0.00    +0.000 C 
ATOM     10  O   UNL     1       0.968   9.474  18.891  0.00  0.00    +0.000 OA
ATOM     11  C   UNL     1       1.569   8.829  17.766  0.00  0.00    +0.000 C 
ATOM     12  C   UNL     1       2.874   8.115  18.157  0.00  0.00    +0.000 C 
ENDBRANCH   6   7
BRANCH   4  13
ATOM     13  C   UNL     1       5.045   4.218  18.170  0.00  0.00    +0.000 C 
BRANCH  13  14
ATOM     14  C   UNL     1       5.854   4.572  16.961  0.00  0.00    +0.000 A 
ATOM     15  N   UNL     1       5.710   4.177  15.722  0.00  0.00    +0.000 NA
ATOM     16  C   UNL     1       6.720   4.826  15.057  0.00  0.00    +0.000 A 
ATOM     17  N   UNL     1       6.850   4.641  13.722  0.00  0.00    +0.000 N 
ATOM     18  C   UNL     1       7.936   5.250  12.986  0.00  0.00    +0.000 C 
ATOM     19  C   UNL     1       6.151   3.559  13.057  0.00  0.00    +0.000 C 
ATOM     20  N   UNL     1       7.464   5.607  15.860  0.00  0.00    +0.000 NA
ATOM     21  O   UNL     1       6.900   5.432  17.124  0.00  0.00    +0.000 OA
ENDBRANCH  13  14
ENDBRANCH   4  13
TORSDOF 3
ENDMDL
MODEL 9
REMARK VINA RESULT:      -6.6      3.774      7.022
REMARK  Name = 
REMARK  6 active torsions:
REMARK  status: ('A' for Active; 'I' for Inactive)
REMARK    1  A    between atoms: C_1  and  C_2
REMARK    2  A    between atoms: N_4  and  C_5
REMARK    3  A    between atoms: C_5  and  C_6
REMARK    4  A    between atoms: N_9  and  C_10
REMARK    5  A    between atoms: N_9  and  C_11
REMARK    6  A    between atoms: C_15  and  N_16
REMARK                            x       y       z     vdW  Elec       q    Type
REMARK                         _______ _______ _______ _____ _____    ______ ____
ROOT
ATOM      1  C   UNL     1       2.607   2.511  17.521  0.00  0.00    +0.000 C 
ATOM      2  C   UNL     1       3.194   3.923  17.554  0.00  0.00    +0.000 C 
ATOM      3  C   UNL     1       2.361   4.827  18.470  0.00  0.00    +0.000 C 
ATOM      4  N   UNL     1       3.268   5.854  18.985  0.00  0.00    +0.000 NA
ATOM      5  C   UNL     1       4.557   5.155  19.133  0.00  0.00    +0.000 C 
ATOM      6  C   UNL     1       4.637   3.967  18.122  0.00  0.00    +0.000 C 
ENDROOT
BRANCH   6   7
ATOM      7  N   UNL     1       5.706   4.108  17.099  0.00  0.00    +0.000 NA
ATOM      8  C   UNL     1       6.948   4.786  17.550  0.00  0.00    +0.000 C 
ATOM      9  C   UNL     1       6.886   6.327  17.591  0.00  0.00    +0.000 C 
ATOM     10  O   UNL     1       6.475   6.874  16.334  0.00  0.00    +0.000 OA
ATOM     11  C   UNL     1       5.217   6.328  15.933  0.00  0.00    +0.000 C 
ATOM     12  C   UNL     1       5.269   4.793  15.857  0.00  0.00    +0.000 C 
ENDBRANCH   6   7
BRANCH   4  13
ATOM     13  C   UNL     1       3.381   7.025  18.088  0.00  0.00    +0.000 C 
BRANCH  13  14
ATOM     14  C   UNL     1       2.410   8.124  18.393  0.00  0.00    +0.000 A 
ATOM     15  N   UNL     1       1.740   8.356  19.492  0.00  0.00    +0.000 NA
ATOM     16  C   UNL     1       1.026   9.491  19.200  0.00  0.00    +0.000 A 
ATOM     17  N   UNL     1       0.218  10.019  20.150  0.00  0.00    +0.000 N 
ATOM     18  C   UNL     1      -0.604  11.176  19.872  0.00  0.00    +0.000 C 
ATOM     19  C   UNL     1      -0.131   9.252  21.330  0.00  0.00    +0.000 C 
ATOM     20  N   UNL     1       1.254   9.954  17.958  0.00  0.00    +0.000 NA
ATOM     21  O   UNL     1       2.161   9.043  17.417  0.00  0.00    +0.000 OA
ENDBRANCH  13  14
ENDBRANCH   4  13
TORSDOF 3
ENDMDL
