MODEL 1
REMARK VINA RESULT:      -7.3      0.000      0.000
REMARK  Name = 
REMARK  4 active torsions:
REMARK  status: ('A' for Active; 'I' for Inactive)
REMARK    1  A    between atoms: C_1  and  C_2
REMARK    2  A    between atoms: C_3  and  C_4
REMARK    3  A    between atoms: C_11  and  C_12
REMARK    4  A    between atoms: N_19  and  C_20
REMARK                            x       y       z     vdW  Elec       q    Type
REMARK                         _______ _______ _______ _____ _____    ______ ____
ROOT
ATOM      1  C   UNL     1       2.865   5.274  17.833  0.00  0.00    +0.000 C 
ATOM      2  O   UNL     1       1.964   6.027  17.462  0.00  0.00    +0.000 OA
ATOM      3  N   UNL     1       4.195   5.503  17.458  0.00  0.00    +0.000 N 
ATOM      4  C   UNL     1       4.525   6.781  16.819  0.00  0.00    +0.000 C 
ATOM      5  C   UNL     1       5.077   6.603  15.407  0.00  0.00    +0.000 C 
ATOM      6  C   UNL     1       6.197   5.567  15.347  0.00  0.00    +0.000 C 
ATOM      7  C   UNL     1       5.763   4.260  16.003  0.00  0.00    +0.000 C 
ATOM      8  C   UNL     1       5.251   4.465  17.438  0.00  0.00    +0.000 C 
ENDROOT
BRANCH   1  11
ATOM      9  C   UNL     1       2.014   5.371  20.958  0.00  0.00    +0.000 C 
ATOM     10  C   UNL     1       2.197   4.196  20.055  0.00  0.00    +0.000 A 
ATOM     11  C   UNL     1       2.555   4.128  18.705  0.00  0.00    +0.000 A 
ATOM     12  C   UNL     1       2.664   2.735  18.403  0.00  0.00    +0.000 A 
ATOM     13  C   UNL     1       2.289   2.016  19.511  0.00  0.00    +0.000 A 
ATOM     14  N   UNL     1       2.034   2.905  20.516  0.00  0.00    +0.000 N 
ATOM     15  C   UNL     1       1.694   2.521  21.870  0.00  0.00    +0.000 C 
ENDBRANCH   1  11
BRANCH   8  16
ATOM     16  C   UNL     1       6.368   4.769  18.412  0.00  0.00    +0.000 A 
ATOM     17  N   UNL     1       7.710   4.655  18.108  0.00  0.00    +0.000 NA
ATOM     18  C   UNL     1       8.277   5.029  19.225  0.00  0.00    +0.000 A 
ATOM     19  O   UNL     1       7.401   5.339  20.211  0.00  0.00    +0.000 OA
ATOM     20  N   UNL     1       6.123   5.157  19.674  0.00  0.00    +0.000 NA
ENDBRANCH   8  16
TORSDOF 2
ENDMDL
MODEL 2
REMARK VINA RESULT:      -7.3      2.305      3.450
REMARK  Name = 
REMARK  4 active torsions:
REMARK  status: ('A' for Active; 'I' for Inactive)
REMARK    1  A    between atoms: C_1  and  C_2
REMARK    2  A    between atoms: C_3  and  C_4
REMARK    3  A    between atoms: C_11  and  C_12
REMARK    4  A    between atoms: N_19  and  C_20
REMARK                            x       y       z     vdW  Elec       q    Type
REMARK                         _______ _______ _______ _____ _____    ______ ____
ROOT
ATOM      1  C   UNL     1       5.444   4.223  19.009  0.00  0.00    +0.000 C 
ATOM      2  O   UNL     1       5.894   4.011  20.135  0.00  0.00    +0.000 OA
ATOM      3  N   UNL     1       6.171   4.967  18.071  0.00  0.00    +0.000 N 
ATOM      4  C   UNL     1       7.570   5.284  18.372  0.00  0.00    +0.000 C 
ATOM      5  C   UNL     1       7.824   6.786  18.457  0.00  0.00    +0.000 C 
ATOM      6  C   UNL     1       7.258   7.541  17.257  0.00  0.00    +0.000 C 
ATOM      7  C   UNL     1       5.793   7.180  17.032  0.00  0.00    +0.000 C 
ATOM      8  C   UNL     1       5.573   5.664  16.909  0.00  0.00    +0.000 C 
ENDROOT
BRANCH   1  11
ATOM      9  C   UNL     1       2.579   4.825  20.399  0.00  0.00    +0.000 C 
ATOM     10  C   UNL     1       2.912   3.939  19.244  0.00  0.00    +0.000 A 
ATOM     11  C   UNL     1       4.134   3.669  18.622  0.00  0.00    +0.000 A 
ATOM     12  C   UNL     1       3.855   2.675  17.633  0.00  0.00    +0.000 A 
ATOM     13  C   UNL     1       2.501   2.445  17.614  0.00  0.00    +0.000 A 
ATOM     14  N   UNL     1       1.940   3.193  18.610  0.00  0.00    +0.000 N 
ATOM     15  C   UNL     1       0.535   3.150  18.960  0.00  0.00    +0.000 C 
ENDBRANCH   1  11
BRANCH   8  16
ATOM     16  C   UNL     1       6.077   5.113  15.593  0.00  0.00    +0.000 A 
ATOM     17  N   UNL     1       5.430   4.133  14.867  0.00  0.00    +0.000 NA
ATOM     18  C   UNL     1       6.210   4.000  13.827  0.00  0.00    +0.000 A 
ATOM     19  O   UNL     1       7.306   4.796  13.856  0.00  0.00    +0.000 OA
ATOM     20  N   UNL     1       7.226   5.535  15.040  0.00  0.00    +0.000 NA
ENDBRANCH   8  16
TORSDOF 2
ENDMDL
MODEL 3
REMARK VINA RESULT:      -7.1      0.891      1.724
REMARK  Name = 
REMARK  4 active torsions:
REMARK  status: ('A' for Active; 'I' for Inactive)
REMARK    1  A    between atoms: C_1  and  C_2
REMARK    2  A    between atoms: C_3  and  C_4
REMARK    3  A    between atoms: C_11  and  C_12
REMARK    4  A    between atoms: N_19  and  C_20
REMARK                            x       y       z     vdW  Elec       q    Type
REMARK                         _______ _______ _______ _____ _____    ______ ____
ROOT
ATOM      1  C   UNL     1       3.115   6.162  18.054  0.00  0.00    +0.000 C 
ATOM      2  O   UNL     1       2.373   7.046  17.625  0.00  0.00    +0.000 OA
ATOM      3  N   UNL     1       4.392   5.968  17.513  0.00  0.00    +0.000 N 
ATOM      4  C   UNL     1       4.918   6.983  16.595  0.00  0.00    +0.000 C 
ATOM      5  C   UNL     1       5.200   6.423  15.204  0.00  0.00    +0.000 C 
ATOM      6  C   UNL     1       6.022   5.138  15.249  0.00  0.00    +0.000 C 
ATOM      7  C   UNL     1       5.392   4.124  16.200  0.00  0.00    +0.000 C 
ATOM      8  C   UNL     1       5.158   4.703  17.605  0.00  0.00    +0.000 C 
ENDROOT
BRANCH   1  11
ATOM      9  C   UNL     1       1.825   3.196  17.851  0.00  0.00    +0.000 C 
ATOM     10  C   UNL     1       2.113   4.031  19.056  0.00  0.00    +0.000 A 
ATOM     11  C   UNL     1       2.674   5.307  19.170  0.00  0.00    +0.000 A 
ATOM     12  C   UNL     1       2.618   5.632  20.561  0.00  0.00    +0.000 A 
ATOM     13  C   UNL     1       2.129   4.546  21.245  0.00  0.00    +0.000 A 
ATOM     14  N   UNL     1       1.800   3.591  20.325  0.00  0.00    +0.000 N 
ATOM     15  C   UNL     1       1.169   2.331  20.658  0.00  0.00    +0.000 C 
ENDBRANCH   1  11
BRANCH   8  16
ATOM     16  C   UNL     1       6.445   4.872  18.382  0.00  0.00    +0.000 A 
ATOM     17  N   UNL     1       6.532   5.503  19.607  0.00  0.00    +0.000 NA
ATOM     18  C   UNL     1       7.804   5.392  19.884  0.00  0.00    +0.000 A 
ATOM     19  O   UNL     1       8.526   4.769  18.921  0.00  0.00    +0.000 OA
ATOM     20  N   UNL     1       7.622   4.428  17.910  0.00  0.00    +0.000 NA
ENDBRANCH   8  16
TORSDOF 2
ENDMDL
MODEL 4
REMARK VINA RESULT:      -7.0      3.000      5.201
REMARK  Name = 
REMARK  4 active torsions:
REMARK  status: ('A' for Active; 'I' for Inactive)
REMARK    1  A    between atoms: C_1  and  C_2
REMARK    2  A    between atoms: C_3  and  C_4
REMARK    3  A    between atoms: C_11  and  C_12
REMARK    4  A    between atoms: N_19  and  C_20
REMARK                            x       y       z     vdW  Elec       q    Type
REMARK                         _______ _______ _______ _____ _____    ______ ____
ROOT
ATOM      1  C   UNL     1       3.129   6.848  18.747  0.00  0.00    +0.000 C 
ATOM      2  O   UNL     1       4.056   7.379  18.135  0.00  0.00    +0.000 OA
ATOM      3  N   UNL     1       2.998   5.454  18.788  0.00  0.00    +0.000 N 
ATOM      4  C   UNL     1       4.111   4.638  18.291  0.00  0.00    +0.000 C 
ATOM      5  C   UNL     1       3.711   3.765  17.106  0.00  0.00    +0.000 C 
ATOM      6  C   UNL     1       2.429   2.978  17.368  0.00  0.00    +0.000 C 
ATOM      7  C   UNL     1       1.315   3.902  17.850  0.00  0.00    +0.000 C 
ATOM      8  C   UNL     1       1.732   4.739  19.070  0.00  0.00    +0.000 C 
ENDROOT
BRANCH   1  11
ATOM      9  C   UNL     1       1.675   9.540  17.678  0.00  0.00    +0.000 C 
ATOM     10  C   UNL     1       1.545   8.842  18.992  0.00  0.00    +0.000 A 
ATOM     11  C   UNL     1       2.153   7.679  19.474  0.00  0.00    +0.000 A 
ATOM     12  C   UNL     1       1.719   7.548  20.830  0.00  0.00    +0.000 A 
ATOM     13  C   UNL     1       0.814   8.545  21.098  0.00  0.00    +0.000 A 
ATOM     14  N   UNL     1       0.734   9.341  19.991  0.00  0.00    +0.000 N 
ATOM     15  C   UNL     1      -0.055  10.553  19.922  0.00  0.00    +0.000 C 
ENDBRANCH   1  11
BRANCH   8  16
ATOM     16  C   UNL     1       1.813   3.914  20.336  0.00  0.00    +0.000 A 
ATOM     17  N   UNL     1       1.089   2.759  20.553  0.00  0.00    +0.000 NA
ATOM     18  C   UNL     1       1.491   2.402  21.743  0.00  0.00    +0.000 A 
ATOM     19  O   UNL     1       2.386   3.253  22.301  0.00  0.00    +0.000 OA
ATOM     20  N   UNL     1       2.597   4.271  21.366  0.00  0.00    +0.000 NA
ENDBRANCH   8  16
TORSDOF 2
ENDMDL
MODEL 5
REMARK VINA RESULT:      -7.0      2.007      3.677
REMARK  Name = 
REMARK  4 active torsions:
REMARK  status: ('A' for Active; 'I' for Inactive)
REMARK    1  A    between atoms: C_1  and  C_2
REMARK    2  A    between atoms: C_3  and  C_4
REMARK    3  A    between atoms: C_11  and  C_12
REMARK    4  A    between atoms: N_19  and  C_20
REMARK                            x       y       z     vdW  Elec       q    Type
REMARK                         _______ _______ _______ _____ _____    ______ ____
ROOT
ATOM      1  C   UNL     1       2.269   4.708  17.936  0.00  0.00    +0.000 C 
ATOM      2  O   UNL     1       1.335   4.267  17.266  0.00  0.00    +0.000 OA
ATOM      3  N   UNL     1       3.403   3.926  18.195  0.00  0.00    +0.000 N 
ATOM      4  C   UNL     1       3.559   2.668  17.457  0.00  0.00    +0.000 C 
ATOM      5  C   UNL     1       3.589   1.451  18.377  0.00  0.00    +0.000 C 
ATOM      6  C   UNL     1       4.568   1.621  19.536  0.00  0.00    +0.000 C 
ATOM      7  C   UNL     1       4.317   2.936  20.269  0.00  0.00    +0.000 C 
ATOM      8  C   UNL     1       4.335   4.148  19.324  0.00  0.00    +0.000 C 
ENDROOT
BRANCH   1  11
ATOM      9  C   UNL     1       1.473   5.631  20.939  0.00  0.00    +0.000 C 
ATOM     10  C   UNL     1       1.863   6.458  19.758  0.00  0.00    +0.000 A 
ATOM     11  C   UNL     1       2.217   6.085  18.458  0.00  0.00    +0.000 A 
ATOM     12  C   UNL     1       2.398   7.307  17.739  0.00  0.00    +0.000 A 
ATOM     13  C   UNL     1       2.249   8.356  18.614  0.00  0.00    +0.000 A 
ATOM     14  N   UNL     1       1.898   7.836  19.827  0.00  0.00    +0.000 N 
ATOM     15  C   UNL     1       1.566   8.639  20.986  0.00  0.00    +0.000 C 
ENDBRANCH   1  11
BRANCH   8  16
ATOM     16  C   UNL     1       5.730   4.492  18.852  0.00  0.00    +0.000 A 
ATOM     17  N   UNL     1       6.156   4.370  17.544  0.00  0.00    +0.000 NA
ATOM     18  C   UNL     1       7.392   4.788  17.617  0.00  0.00    +0.000 A 
ATOM     19  O   UNL     1       7.783   5.135  18.867  0.00  0.00    +0.000 OA
ATOM     20  N   UNL     1       6.678   4.929  19.697  0.00  0.00    +0.000 NA
ENDBRANCH   8  16
TORSDOF 2
ENDMDL
MODEL 6
REMARK VINA RESULT:      -7.0      1.963      5.655
REMARK  Name = 
REMARK  4 active torsions:
REMARK  status: ('A' for Active; 'I' for Inactive)
REMARK    1  A    between atoms: C_1  and  C_2
REMARK    2  A    between atoms: C_3  and  C_4
REMARK    3  A    between atoms: C_11  and  C_12
REMARK    4  A    between atoms: N_19  and  C_20
REMARK                            x       y       z     vdW  Elec       q    Type
REMARK                         _______ _______ _______ _____ _____    ______ ____
ROOT
ATOM      1  C   UNL     1       4.743   3.581  19.506  0.00  0.00    +0.000 C 
ATOM      2  O   UNL     1       5.199   2.578  20.056  0.00  0.00    +0.000 OA
ATOM      3  N   UNL     1       3.413   3.972  19.708  0.00  0.00    +0.000 N 
ATOM      4  C   UNL     1       2.648   3.305  20.766  0.00  0.00    +0.000 C 
ATOM      5  C   UNL     1       1.429   2.563  20.226  0.00  0.00    +0.000 C 
ATOM      6  C   UNL     1       0.584   3.431  19.297  0.00  0.00    +0.000 C 
ATOM      7  C   UNL     1       1.448   4.061  18.209  0.00  0.00    +0.000 C 
ATOM      8  C   UNL     1       2.644   4.836  18.784  0.00  0.00    +0.000 C 
ENDROOT
BRANCH   1  11
ATOM      9  C   UNL     1       4.931   3.488  16.272  0.00  0.00    +0.000 C 
ATOM     10  C   UNL     1       5.675   4.341  17.247  0.00  0.00    +0.000 A 
ATOM     11  C   UNL     1       5.607   4.405  18.642  0.00  0.00    +0.000 A 
ATOM     12  C   UNL     1       6.617   5.337  19.037  0.00  0.00    +0.000 A 
ATOM     13  C   UNL     1       7.187   5.870  17.906  0.00  0.00    +0.000 A 
ATOM     14  N   UNL     1       6.632   5.242  16.827  0.00  0.00    +0.000 N 
ATOM     15  C   UNL     1       7.043   5.471  15.458  0.00  0.00    +0.000 C 
ENDBRANCH   1  11
BRANCH   8  16
ATOM     16  C   UNL     1       2.230   6.139  19.432  0.00  0.00    +0.000 A 
ATOM     17  N   UNL     1       1.693   6.234  20.701  0.00  0.00    +0.000 NA
ATOM     18  C   UNL     1       1.515   7.522  20.828  0.00  0.00    +0.000 A 
ATOM     19  O   UNL     1       1.870   8.238  19.733  0.00  0.00    +0.000 OA
ATOM     20  N   UNL     1       2.340   7.315  18.794  0.00  0.00    +0.000 NA
ENDBRANCH   8  16
TORSDOF 2
ENDMDL
MODEL 7
REMARK VINA RESULT:      -6.8      1.944      5.592
REMARK  Name = 
REMARK  4 active torsions:
REMARK  status: ('A' for Active; 'I' for Inactive)
REMARK    1  A    between atoms: C_1  and  C_2
REMARK    2  A    between atoms: C_3  and  C_4
REMARK    3  A    between atoms: C_11  and  C_12
REMARK    4  A    between atoms: N_19  and  C_20
REMARK                            x       y       z     vdW  Elec       q    Type
REMARK                         _______ _______ _______ _____ _____    ______ ____
ROOT
ATOM      1  C   UNL     1       4.565   3.245  19.420  0.00  0.00    +0.000 C 
ATOM      2  O   UNL     1       5.145   2.329  20.003  0.00  0.00    +0.000 OA
ATOM      3  N   UNL     1       3.336   3.731  19.884  0.00  0.00    +0.000 N 
ATOM      4  C   UNL     1       2.872   3.294  21.204  0.00  0.00    +0.000 C 
ATOM      5  C   UNL     1       1.551   2.533  21.136  0.00  0.00    +0.000 C 
ATOM      6  C   UNL     1       0.496   3.271  20.317  0.00  0.00    +0.000 C 
ATOM      7  C   UNL     1       1.047   3.662  18.949  0.00  0.00    +0.000 C 
ATOM      8  C   UNL     1       2.355   4.463  19.050  0.00  0.00    +0.000 C 
ENDROOT
BRANCH   1  11
ATOM      9  C   UNL     1       6.838   5.555  19.371  0.00  0.00    +0.000 C 
ATOM     10  C   UNL     1       6.152   4.867  18.236  0.00  0.00    +0.000 A 
ATOM     11  C   UNL     1       5.176   3.866  18.231  0.00  0.00    +0.000 A 
ATOM     12  C   UNL     1       4.832   3.668  16.857  0.00  0.00    +0.000 A 
ATOM     13  C   UNL     1       5.646   4.457  16.084  0.00  0.00    +0.000 A 
ATOM     14  N   UNL     1       6.424   5.201  16.925  0.00  0.00    +0.000 N 
ATOM     15  C   UNL     1       7.352   6.220  16.481  0.00  0.00    +0.000 C 
ENDBRANCH   1  11
BRANCH   8  16
ATOM     16  C   UNL     1       2.131   5.876  19.541  0.00  0.00    +0.000 A 
ATOM     17  N   UNL     1       1.566   6.190  20.761  0.00  0.00    +0.000 NA
ATOM     18  C   UNL     1       1.593   7.496  20.749  0.00  0.00    +0.000 A 
ATOM     19  O   UNL     1       2.101   8.026  19.611  0.00  0.00    +0.000 OA
ATOM     20  N   UNL     1       2.453   6.946  18.796  0.00  0.00    +0.000 NA
ENDBRANCH   8  16
TORSDOF 2
ENDMDL
MODEL 8
REMARK VINA RESULT:      -6.7      2.172      3.601
REMARK  Name = 
REMARK  4 active torsions:
REMARK  status: ('A' for Active; 'I' for Inactive)
REMARK    1  A    between atoms: C_1  and  C_2
REMARK    2  A    between atoms: C_3  and  C_4
REMARK    3  A    between atoms: C_11  and  C_12
REMARK    4  A    between atoms: N_19  and  C_20
REMARK                            x       y       z     vdW  Elec       q    Type
REMARK                         _______ _______ _______ _____ _____    ______ ____
ROOT
ATOM      1  C   UNL     1       5.288   4.721  19.177  0.00  0.00    +0.000 C 
ATOM      2  O   UNL     1       5.708   4.485  20.310  0.00  0.00    +0.000 OA
ATOM      3  N   UNL     1       6.121   5.283  18.202  0.00  0.00    +0.000 N 
ATOM      4  C   UNL     1       7.559   5.361  18.481  0.00  0.00    +0.000 C 
ATOM      5  C   UNL     1       8.073   6.798  18.495  0.00  0.00    +0.000 C 
ATOM      6  C   UNL     1       7.633   7.586  17.263  0.00  0.00    +0.000 C 
ATOM      7  C   UNL     1       6.124   7.478  17.062  0.00  0.00    +0.000 C 
ATOM      8  C   UNL     1       5.640   6.020  17.011  0.00  0.00    +0.000 C 
ENDROOT
BRANCH   1  11
ATOM      9  C   UNL     1       3.816   1.854  19.517  0.00  0.00    +0.000 C 
ATOM     10  C   UNL     1       3.286   3.140  18.974  0.00  0.00    +0.000 A 
ATOM     11  C   UNL     1       3.896   4.389  18.823  0.00  0.00    +0.000 A 
ATOM     12  C   UNL     1       2.933   5.213  18.162  0.00  0.00    +0.000 A 
ATOM     13  C   UNL     1       1.770   4.499  18.019  0.00  0.00    +0.000 A 
ATOM     14  N   UNL     1       1.999   3.236  18.487  0.00  0.00    +0.000 N 
ATOM     15  C   UNL     1       1.031   2.161  18.422  0.00  0.00    +0.000 C 
ENDBRANCH   1  11
BRANCH   8  16
ATOM     16  C   UNL     1       6.022   5.330  15.720  0.00  0.00    +0.000 A 
ATOM     17  N   UNL     1       7.170   5.608  15.005  0.00  0.00    +0.000 NA
ATOM     18  C   UNL     1       7.078   4.776  14.003  0.00  0.00    +0.000 A 
ATOM     19  O   UNL     1       5.954   4.019  14.016  0.00  0.00    +0.000 OA
ATOM     20  N   UNL     1       5.240   4.394  15.158  0.00  0.00    +0.000 NA
ENDBRANCH   8  16
TORSDOF 2
ENDMDL
MODEL 9
REMARK VINA RESULT:      -6.4      2.187      5.649
REMARK  Name = 
REMARK  4 active torsions:
REMARK  status: ('A' for Active; 'I' for Inactive)
REMARK    1  A    between atoms: C_1  and  C_2
REMARK    2  A    between atoms: C_3  and  C_4
REMARK    3  A    between atoms: C_11  and  C_12
REMARK    4  A    between atoms: N_19  and  C_20
REMARK                            x       y       z     vdW  Elec       q    Type
REMARK                         _______ _______ _______ _____ _____    ______ ____
ROOT
ATOM      1  C   UNL     1       4.809   3.950  18.997  0.00  0.00    +0.000 C 
ATOM      2  O   UNL     1       5.472   2.965  19.324  0.00  0.00    +0.000 OA
ATOM      3  N   UNL     1       3.495   4.118  19.452  0.00  0.00    +0.000 N 
ATOM      4  C   UNL     1       3.009   3.227  20.510  0.00  0.00    +0.000 C 
ATOM      5  C   UNL     1       1.817   2.386  20.064  0.00  0.00    +0.000 C 
ATOM      6  C   UNL     1       0.725   3.227  19.406  0.00  0.00    +0.000 C 
ATOM      7  C   UNL     1       1.307   4.099  18.298  0.00  0.00    +0.000 C 
ATOM      8  C   UNL     1       2.479   4.966  18.786  0.00  0.00    +0.000 C 
ENDROOT
BRANCH   1  11
ATOM      9  C   UNL     1       7.445   5.730  19.620  0.00  0.00    +0.000 C 
ATOM     10  C   UNL     1       6.541   5.747  18.431  0.00  0.00    +0.000 A 
ATOM     11  C   UNL     1       5.405   4.987  18.136  0.00  0.00    +0.000 A 
ATOM     12  C   UNL     1       4.902   5.506  16.903  0.00  0.00    +0.000 A 
ATOM     13  C   UNL     1       5.767   6.470  16.447  0.00  0.00    +0.000 A 
ATOM     14  N   UNL     1       6.742   6.630  17.390  0.00  0.00    +0.000 N 
ATOM     15  C   UNL     1       7.792   7.624  17.309  0.00  0.00    +0.000 C 
ENDBRANCH   1  11
BRANCH   8  16
ATOM     16  C   UNL     1       2.025   6.108  19.667  0.00  0.00    +0.000 A 
ATOM     17  N   UNL     1       2.246   7.441  19.380  0.00  0.00    +0.000 NA
ATOM     18  C   UNL     1       1.674   8.039  20.392  0.00  0.00    +0.000 A 
ATOM     19  O   UNL     1       1.139   7.190  21.303  0.00  0.00    +0.000 OA
ATOM     20  N   UNL     1       1.380   5.898  20.826  0.00  0.00    +0.000 NA
ENDBRANCH   8  16
TORSDOF 2
ENDMDL
