MODEL 1
REMARK VINA RESULT:      -7.3      0.000      0.000
REMARK  Name = 
REMARK  2 active torsions:
REMARK  status: ('A' for Active; 'I' for Inactive)
REMARK    1  A    between atoms: C_1  and  C_2
REMARK    2  A    between atoms: N_22  and  O_23
REMARK                            x       y       z     vdW  Elec       q    Type
REMARK                         _______ _______ _______ _____ _____    ______ ____
ROOT
ATOM      1  C   UNL     1       8.853   5.666  13.107  0.00  0.00    +0.000 C 
ATOM      2  C   UNL     1       7.561   5.140  13.646  0.00  0.00    +0.000 A 
ATOM      3  C   UNL     1       6.764   4.340  12.809  0.00  0.00    +0.000 A 
ATOM      4  C   UNL     1       5.475   3.973  13.191  0.00  0.00    +0.000 A 
ATOM      5 CL   UNL     1       4.500   3.006  12.153  0.00  0.00    +0.000 Cl
ATOM      6  C   UNL     1       4.965   4.379  14.418  0.00  0.00    +0.000 A 
ATOM      7  C   UNL     1       5.800   4.982  15.339  0.00  0.00    +0.000 A 
ATOM      8  C   UNL     1       7.065   5.414  14.924  0.00  0.00    +0.000 A 
ATOM      9  N   UNL     1       7.656   6.158  15.951  0.00  0.00    +0.000 N 
ATOM     10  C   UNL     1       6.839   6.226  17.084  0.00  0.00    +0.000 C 
ATOM     11  O   UNL     1       7.052   6.814  18.126  0.00  0.00    +0.000 OA
ATOM     12  C   UNL     1       5.637   5.373  16.753  0.00  0.00    +0.000 C 
ATOM     13  C   UNL     1       4.732   5.012  17.687  0.00  0.00    +0.000 C 
ATOM     14  N   UNL     1       4.561   5.429  19.004  0.00  0.00    +0.000 N 
ATOM     15  C   UNL     1       3.310   5.010  19.471  0.00  0.00    +0.000 A 
ATOM     16  C   UNL     1       2.727   5.210  20.709  0.00  0.00    +0.000 A 
ATOM     17  C   UNL     1       1.490   4.595  20.982  0.00  0.00    +0.000 A 
ATOM     18  C   UNL     1       0.851   3.789  20.026  0.00  0.00    +0.000 A 
ATOM     19  C   UNL     1       1.451   3.563  18.796  0.00  0.00    +0.000 A 
ATOM     20  C   UNL     1       2.677   4.159  18.553  0.00  0.00    +0.000 A 
ATOM     21  C   UNL     1       3.604   4.012  17.421  0.00  0.00    +0.000 C 
ATOM     22  N   UNL     1       3.558   3.173  16.441  0.00  0.00    +0.000 NA
ATOM     23  H   UNL     1       8.548   6.623  15.896  0.00  0.00    +0.000 HD
ATOM     24  H   UNL     1       5.039   6.256  19.344  0.00  0.00    +0.000 HD
ENDROOT
BRANCH  22  25
ATOM     25  O   UNL     1       2.376   2.451  16.339  0.00  0.00    +0.000 OA
ATOM     26  H   UNL     1       1.975   2.833  15.535  0.00  0.00    +0.000 HD
ENDBRANCH  22  25
TORSDOF 1
ENDMDL
MODEL 2
REMARK VINA RESULT:      -7.3      3.893      5.611
REMARK  Name = 
REMARK  2 active torsions:
REMARK  status: ('A' for Active; 'I' for Inactive)
REMARK    1  A    between atoms: C_1  and  C_2
REMARK    2  A    between atoms: N_22  and  O_23
REMARK                            x       y       z     vdW  Elec       q    Type
REMARK                         _______ _______ _______ _____ _____    ______ ____
ROOT
ATOM      1  C   UNL     1       4.620   2.170  17.553  0.00  0.00    +0.000 C 
ATOM      2  C   UNL     1       4.267   3.623  17.563  0.00  0.00    +0.000 A 
ATOM      3  C   UNL     1       4.703   4.423  16.492  0.00  0.00    +0.000 A 
ATOM      4  C   UNL     1       4.560   5.808  16.534  0.00  0.00    +0.000 A 
ATOM      5 CL   UNL     1       5.110   6.782  15.226  0.00  0.00    +0.000 Cl
ATOM      6  C   UNL     1       3.966   6.419  17.631  0.00  0.00    +0.000 A 
ATOM      7  C   UNL     1       3.345   5.642  18.592  0.00  0.00    +0.000 A 
ATOM      8  C   UNL     1       3.556   4.259  18.583  0.00  0.00    +0.000 A 
ATOM      9  N   UNL     1       2.998   3.703  19.739  0.00  0.00    +0.000 N 
ATOM     10  C   UNL     1       2.376   4.669  20.537  0.00  0.00    +0.000 C 
ATOM     11  O   UNL     1       1.825   4.513  21.609  0.00  0.00    +0.000 OA
ATOM     12  C   UNL     1       2.499   5.958  19.759  0.00  0.00    +0.000 C 
ATOM     13  C   UNL     1       1.819   7.072  20.103  0.00  0.00    +0.000 C 
ATOM     14  N   UNL     1       1.066   7.373  21.234  0.00  0.00    +0.000 N 
ATOM     15  C   UNL     1       0.817   8.749  21.282  0.00  0.00    +0.000 A 
ATOM     16  C   UNL     1       0.120   9.479  22.228  0.00  0.00    +0.000 A 
ATOM     17  C   UNL     1      -0.088  10.853  22.003  0.00  0.00    +0.000 A 
ATOM     18  C   UNL     1       0.393  11.483  20.843  0.00  0.00    +0.000 A 
ATOM     19  C   UNL     1       1.065  10.744  19.881  0.00  0.00    +0.000 A 
ATOM     20  C   UNL     1       1.242   9.389  20.110  0.00  0.00    +0.000 A 
ATOM     21  C   UNL     1       1.789   8.336  19.240  0.00  0.00    +0.000 C 
ATOM     22  N   UNL     1       2.105   8.402  17.990  0.00  0.00    +0.000 NA
ATOM     23  H   UNL     1       3.048   2.732  20.003  0.00  0.00    +0.000 HD
ATOM     24  H   UNL     1       1.124   6.783  22.057  0.00  0.00    +0.000 HD
ENDROOT
BRANCH  22  25
ATOM     25  O   UNL     1       2.115   9.683  17.452  0.00  0.00    +0.000 OA
ATOM     26  H   UNL     1       2.199   9.499  16.496  0.00  0.00    +0.000 HD
ENDBRANCH  22  25
TORSDOF 1
ENDMDL
MODEL 3
REMARK VINA RESULT:      -6.9     10.419     12.207
REMARK  Name = 
REMARK  2 active torsions:
REMARK  status: ('A' for Active; 'I' for Inactive)
REMARK    1  A    between atoms: C_1  and  C_2
REMARK    2  A    between atoms: N_22  and  O_23
REMARK                            x       y       z     vdW  Elec       q    Type
REMARK                         _______ _______ _______ _____ _____    ______ ____
ROOT
ATOM      1  C   UNL     1      -2.678  10.333  15.559  0.00  0.00    +0.000 C 
ATOM      2  C   UNL     1      -3.253  10.838  16.844  0.00  0.00    +0.000 A 
ATOM      3  C   UNL     1      -4.627  10.656  17.078  0.00  0.00    +0.000 A 
ATOM      4  C   UNL     1      -5.249  11.260  18.169  0.00  0.00    +0.000 A 
ATOM      5 CL   UNL     1      -6.936  11.045  18.440  0.00  0.00    +0.000 Cl
ATOM      6  C   UNL     1      -4.514  12.039  19.053  0.00  0.00    +0.000 A 
ATOM      7  C   UNL     1      -3.135  12.058  18.962  0.00  0.00    +0.000 A 
ATOM      8  C   UNL     1      -2.524  11.514  17.827  0.00  0.00    +0.000 A 
ATOM      9  N   UNL     1      -1.157  11.810  17.854  0.00  0.00    +0.000 N 
ATOM     10  C   UNL     1      -0.799  12.523  19.004  0.00  0.00    +0.000 C 
ATOM     11  O   UNL     1       0.297  12.948  19.309  0.00  0.00    +0.000 OA
ATOM     12  C   UNL     1      -2.070  12.622  19.814  0.00  0.00    +0.000 C 
ATOM     13  C   UNL     1      -2.073  13.046  21.096  0.00  0.00    +0.000 C 
ATOM     14  N   UNL     1      -1.072  13.624  21.871  0.00  0.00    +0.000 N 
ATOM     15  C   UNL     1      -1.632  14.174  23.029  0.00  0.00    +0.000 A 
ATOM     16  C   UNL     1      -1.011  14.847  24.066  0.00  0.00    +0.000 A 
ATOM     17  C   UNL     1      -1.779  15.219  25.187  0.00  0.00    +0.000 A 
ATOM     18  C   UNL     1      -3.148  14.916  25.265  0.00  0.00    +0.000 A 
ATOM     19  C   UNL     1      -3.763  14.214  24.239  0.00  0.00    +0.000 A 
ATOM     20  C   UNL     1      -2.988  13.839  23.154  0.00  0.00    +0.000 A 
ATOM     21  C   UNL     1      -3.312  12.995  21.994  0.00  0.00    +0.000 C 
ATOM     22  N   UNL     1      -4.366  12.280  21.782  0.00  0.00    +0.000 NA
ATOM     23  H   UNL     1      -0.494  11.574  17.133  0.00  0.00    +0.000 HD
ATOM     24  H   UNL     1      -0.227  13.975  21.434  0.00  0.00    +0.000 HD
ENDROOT
BRANCH  22  25
ATOM     25  O   UNL     1      -5.410  12.491  22.673  0.00  0.00    +0.000 OA
ATOM     26  H   UNL     1      -5.563  11.592  23.021  0.00  0.00    +0.000 HD
ENDBRANCH  22  25
TORSDOF 1
ENDMDL
MODEL 4
REMARK VINA RESULT:      -6.9      6.818      9.547
REMARK  Name = 
REMARK  2 active torsions:
REMARK  status: ('A' for Active; 'I' for Inactive)
REMARK    1  A    between atoms: C_1  and  C_2
REMARK    2  A    between atoms: N_22  and  O_23
REMARK                            x       y       z     vdW  Elec       q    Type
REMARK                         _______ _______ _______ _____ _____    ______ ____
ROOT
ATOM      1  C   UNL     1      -1.940  14.041  22.953  0.00  0.00    +0.000 C 
ATOM      2  C   UNL     1      -1.271  13.277  21.855  0.00  0.00    +0.000 A 
ATOM      3  C   UNL     1      -1.130  13.896  20.601  0.00  0.00    +0.000 A 
ATOM      4  C   UNL     1      -0.680  13.174  19.497  0.00  0.00    +0.000 A 
ATOM      5 CL   UNL     1      -0.524  13.936  17.961  0.00  0.00    +0.000 Cl
ATOM      6  C   UNL     1      -0.348  11.832  19.626  0.00  0.00    +0.000 A 
ATOM      7  C   UNL     1      -0.279  11.262  20.883  0.00  0.00    +0.000 A 
ATOM      8  C   UNL     1      -0.801  11.966  21.974  0.00  0.00    +0.000 A 
ATOM      9  N   UNL     1      -0.800  11.135  23.099  0.00  0.00    +0.000 N 
ATOM     10  C   UNL     1      -0.259   9.876  22.820  0.00  0.00    +0.000 C 
ATOM     11  O   UNL     1      -0.143   8.928  23.571  0.00  0.00    +0.000 OA
ATOM     12  C   UNL     1       0.190   9.954  21.380  0.00  0.00    +0.000 C 
ATOM     13  C   UNL     1       0.968   9.005  20.817  0.00  0.00    +0.000 C 
ATOM     14  N   UNL     1       1.360   7.751  21.279  0.00  0.00    +0.000 N 
ATOM     15  C   UNL     1       1.902   7.010  20.223  0.00  0.00    +0.000 A 
ATOM     16  C   UNL     1       2.407   5.721  20.229  0.00  0.00    +0.000 A 
ATOM     17  C   UNL     1       3.000   5.223  19.053  0.00  0.00    +0.000 A 
ATOM     18  C   UNL     1       3.088   6.008  17.892  0.00  0.00    +0.000 A 
ATOM     19  C   UNL     1       2.611   7.310  17.897  0.00  0.00    +0.000 A 
ATOM     20  C   UNL     1       2.049   7.790  19.069  0.00  0.00    +0.000 A 
ATOM     21  C   UNL     1       1.579   9.139  19.421  0.00  0.00    +0.000 C 
ATOM     22  N   UNL     1       1.713  10.240  18.761  0.00  0.00    +0.000 NA
ATOM     23  H   UNL     1      -1.165  11.380  24.006  0.00  0.00    +0.000 HD
ATOM     24  H   UNL     1       0.898   7.335  22.079  0.00  0.00    +0.000 HD
ENDROOT
BRANCH  22  25
ATOM     25  O   UNL     1       2.187  10.096  17.463  0.00  0.00    +0.000 OA
ATOM     26  H   UNL     1       1.576   9.427  17.099  0.00  0.00    +0.000 HD
ENDBRANCH  22  25
TORSDOF 1
ENDMDL
MODEL 5
REMARK VINA RESULT:      -6.7     10.640     12.470
REMARK  Name = 
REMARK  2 active torsions:
REMARK  status: ('A' for Active; 'I' for Inactive)
REMARK    1  A    between atoms: C_1  and  C_2
REMARK    2  A    between atoms: N_22  and  O_23
REMARK                            x       y       z     vdW  Elec       q    Type
REMARK                         _______ _______ _______ _____ _____    ______ ____
ROOT
ATOM      1  C   UNL     1      -3.826   9.976  14.368  0.00  0.00    +0.000 C 
ATOM      2  C   UNL     1      -3.394  10.380  15.741  0.00  0.00    +0.000 A 
ATOM      3  C   UNL     1      -2.098  10.035  16.163  0.00  0.00    +0.000 A 
ATOM      4  C   UNL     1      -1.706  10.226  17.486  0.00  0.00    +0.000 A 
ATOM      5 CL   UNL     1      -0.122   9.785  17.998  0.00  0.00    +0.000 Cl
ATOM      6  C   UNL     1      -2.587  10.779  18.406  0.00  0.00    +0.000 A 
ATOM      7  C   UNL     1      -3.783  11.316  17.969  0.00  0.00    +0.000 A 
ATOM      8  C   UNL     1      -4.203  11.056  16.660  0.00  0.00    +0.000 A 
ATOM      9  N   UNL     1      -5.509  11.527  16.495  0.00  0.00    +0.000 N 
ATOM     10  C   UNL     1      -5.996  12.138  17.655  0.00  0.00    +0.000 C 
ATOM     11  O   UNL     1      -7.095  12.621  17.842  0.00  0.00    +0.000 OA
ATOM     12  C   UNL     1      -4.841  12.106  18.628  0.00  0.00    +0.000 C 
ATOM     13  C   UNL     1      -4.854  12.805  19.783  0.00  0.00    +0.000 C 
ATOM     14  N   UNL     1      -5.877  13.504  20.417  0.00  0.00    +0.000 N 
ATOM     15  C   UNL     1      -5.499  13.799  21.732  0.00  0.00    +0.000 A 
ATOM     16  C   UNL     1      -6.207  14.468  22.715  0.00  0.00    +0.000 A 
ATOM     17  C   UNL     1      -5.569  14.738  23.941  0.00  0.00    +0.000 A 
ATOM     18  C   UNL     1      -4.240  14.346  24.174  0.00  0.00    +0.000 A 
ATOM     19  C   UNL     1      -3.522  13.704  23.176  0.00  0.00    +0.000 A 
ATOM     20  C   UNL     1      -4.159  13.464  21.970  0.00  0.00    +0.000 A 
ATOM     21  C   UNL     1      -3.637  12.930  20.702  0.00  0.00    +0.000 C 
ATOM     22  N   UNL     1      -2.414  12.687  20.370  0.00  0.00    +0.000 NA
ATOM     23  H   UNL     1      -6.065  11.426  15.660  0.00  0.00    +0.000 HD
ATOM     24  H   UNL     1      -6.840  13.378  20.124  0.00  0.00    +0.000 HD
ENDROOT
BRANCH  22  25
ATOM     25  O   UNL     1      -1.496  12.754  21.409  0.00  0.00    +0.000 OA
ATOM     26  H   UNL     1      -0.760  13.245  20.996  0.00  0.00    +0.000 HD
ENDBRANCH  22  25
TORSDOF 1
ENDMDL
MODEL 6
REMARK VINA RESULT:      -6.6      8.177     10.759
REMARK  Name = 
REMARK  2 active torsions:
REMARK  status: ('A' for Active; 'I' for Inactive)
REMARK    1  A    between atoms: C_1  and  C_2
REMARK    2  A    between atoms: N_22  and  O_23
REMARK                            x       y       z     vdW  Elec       q    Type
REMARK                         _______ _______ _______ _____ _____    ______ ____
ROOT
ATOM      1  C   UNL     1      -2.253  15.554  23.260  0.00  0.00    +0.000 C 
ATOM      2  C   UNL     1      -1.542  14.858  22.144  0.00  0.00    +0.000 A 
ATOM      3  C   UNL     1      -1.262  15.585  20.974  0.00  0.00    +0.000 A 
ATOM      4  C   UNL     1      -0.766  14.945  19.839  0.00  0.00    +0.000 A 
ATOM      5 CL   UNL     1      -0.440  15.841  18.405  0.00  0.00    +0.000 Cl
ATOM      6  C   UNL     1      -0.524  13.578  19.855  0.00  0.00    +0.000 A 
ATOM      7  C   UNL     1      -0.592  12.886  21.049  0.00  0.00    +0.000 A 
ATOM      8  C   UNL     1      -1.160  13.514  22.163  0.00  0.00    +0.000 A 
ATOM      9  N   UNL     1      -1.301  12.579  23.195  0.00  0.00    +0.000 N 
ATOM     10  C   UNL     1      -0.813  11.320  22.830  0.00  0.00    +0.000 C 
ATOM     11  O   UNL     1      -0.814  10.298  23.488  0.00  0.00    +0.000 OA
ATOM     12  C   UNL     1      -0.243  11.507  21.445  0.00  0.00    +0.000 C 
ATOM     13  C   UNL     1       0.522  10.567  20.848  0.00  0.00    +0.000 C 
ATOM     14  N   UNL     1       0.801   9.252  21.208  0.00  0.00    +0.000 N 
ATOM     15  C   UNL     1       1.384   8.582  20.127  0.00  0.00    +0.000 A 
ATOM     16  C   UNL     1       1.810   7.269  20.039  0.00  0.00    +0.000 A 
ATOM     17  C   UNL     1       2.468   6.849  18.867  0.00  0.00    +0.000 A 
ATOM     18  C   UNL     1       2.697   7.735  17.802  0.00  0.00    +0.000 A 
ATOM     19  C   UNL     1       2.297   9.059  17.904  0.00  0.00    +0.000 A 
ATOM     20  C   UNL     1       1.670   9.460  19.072  0.00  0.00    +0.000 A 
ATOM     21  C   UNL     1       1.253  10.796  19.523  0.00  0.00    +0.000 C 
ATOM     22  N   UNL     1       1.504  11.945  18.991  0.00  0.00    +0.000 NA
ATOM     23  H   UNL     1      -1.724  12.758  24.092  0.00  0.00    +0.000 HD
ATOM     24  H   UNL     1       0.251   8.791  21.924  0.00  0.00    +0.000 HD
ENDROOT
BRANCH  22  25
ATOM     25  O   UNL     1       2.074  11.896  17.725  0.00  0.00    +0.000 OA
ATOM     26  H   UNL     1       1.346  11.524  17.191  0.00  0.00    +0.000 HD
ENDBRANCH  22  25
TORSDOF 1
ENDMDL
MODEL 7
REMARK VINA RESULT:      -6.6     11.200     13.044
REMARK  Name = 
REMARK  2 active torsions:
REMARK  status: ('A' for Active; 'I' for Inactive)
REMARK    1  A    between atoms: C_1  and  C_2
REMARK    2  A    between atoms: N_22  and  O_23
REMARK                            x       y       z     vdW  Elec       q    Type
REMARK                         _______ _______ _______ _____ _____    ______ ____
ROOT
ATOM      1  C   UNL     1      -3.035   9.906  14.979  0.00  0.00    +0.000 C 
ATOM      2  C   UNL     1      -2.918  10.515  16.340  0.00  0.00    +0.000 A 
ATOM      3  C   UNL     1      -1.686  10.420  17.011  0.00  0.00    +0.000 A 
ATOM      4  C   UNL     1      -1.570  10.808  18.344  0.00  0.00    +0.000 A 
ATOM      5 CL   UNL     1      -0.062  10.675  19.163  0.00  0.00    +0.000 Cl
ATOM      6  C   UNL     1      -2.670  11.312  19.026  0.00  0.00    +0.000 A 
ATOM      7  C   UNL     1      -3.827  11.609  18.331  0.00  0.00    +0.000 A 
ATOM      8  C   UNL     1      -3.963  11.150  17.016  0.00  0.00    +0.000 A 
ATOM      9  N   UNL     1      -5.269  11.393  16.578  0.00  0.00    +0.000 N 
ATOM     10  C   UNL     1      -6.036  12.041  17.553  0.00  0.00    +0.000 C 
ATOM     11  O   UNL     1      -7.206  12.365  17.491  0.00  0.00    +0.000 OA
ATOM     12  C   UNL     1      -5.084  12.290  18.698  0.00  0.00    +0.000 C 
ATOM     13  C   UNL     1      -5.401  13.097  19.733  0.00  0.00    +0.000 C 
ATOM     14  N   UNL     1      -6.606  13.692  20.094  0.00  0.00    +0.000 N 
ATOM     15  C   UNL     1      -6.517  14.180  21.402  0.00  0.00    +0.000 A 
ATOM     16  C   UNL     1      -7.474  14.831  22.160  0.00  0.00    +0.000 A 
ATOM     17  C   UNL     1      -7.113  15.324  23.428  0.00  0.00    +0.000 A 
ATOM     18  C   UNL     1      -5.808  15.169  23.925  0.00  0.00    +0.000 A 
ATOM     19  C   UNL     1      -4.841  14.544  23.152  0.00  0.00    +0.000 A 
ATOM     20  C   UNL     1      -5.210  14.083  21.899  0.00  0.00    +0.000 A 
ATOM     21  C   UNL     1      -4.399  13.505  20.816  0.00  0.00    +0.000 C 
ATOM     22  N   UNL     1      -3.115  13.421  20.724  0.00  0.00    +0.000 NA
ATOM     23  H   UNL     1      -5.645  11.120  15.684  0.00  0.00    +0.000 HD
ATOM     24  H   UNL     1      -7.473  13.389  19.665  0.00  0.00    +0.000 HD
ENDROOT
BRANCH  22  25
ATOM     25  O   UNL     1      -2.418  13.739  21.883  0.00  0.00    +0.000 OA
ATOM     26  H   UNL     1      -1.626  13.174  21.803  0.00  0.00    +0.000 HD
ENDBRANCH  22  25
TORSDOF 1
ENDMDL
MODEL 8
REMARK VINA RESULT:      -6.5      4.346      6.140
REMARK  Name = 
REMARK  2 active torsions:
REMARK  status: ('A' for Active; 'I' for Inactive)
REMARK    1  A    between atoms: C_1  and  C_2
REMARK    2  A    between atoms: N_22  and  O_23
REMARK                            x       y       z     vdW  Elec       q    Type
REMARK                         _______ _______ _______ _____ _____    ______ ____
ROOT
ATOM      1  C   UNL     1       4.456   1.346  18.264  0.00  0.00    +0.000 C 
ATOM      2  C   UNL     1       3.655   2.464  18.850  0.00  0.00    +0.000 A 
ATOM      3  C   UNL     1       2.828   2.186  19.953  0.00  0.00    +0.000 A 
ATOM      4  C   UNL     1       1.929   3.140  20.426  0.00  0.00    +0.000 A 
ATOM      5 CL   UNL     1       0.909   2.787  21.768  0.00  0.00    +0.000 Cl
ATOM      6  C   UNL     1       1.849   4.389  19.824  0.00  0.00    +0.000 A 
ATOM      7  C   UNL     1       2.792   4.754  18.881  0.00  0.00    +0.000 A 
ATOM      8  C   UNL     1       3.641   3.772  18.359  0.00  0.00    +0.000 A 
ATOM      9  N   UNL     1       4.373   4.316  17.297  0.00  0.00    +0.000 N 
ATOM     10  C   UNL     1       4.071   5.666  17.091  0.00  0.00    +0.000 C 
ATOM     11  O   UNL     1       4.514   6.410  16.238  0.00  0.00    +0.000 OA
ATOM     12  C   UNL     1       3.096   6.021  18.188  0.00  0.00    +0.000 C 
ATOM     13  C   UNL     1       2.749   7.298  18.456  0.00  0.00    +0.000 C 
ATOM     14  N   UNL     1       3.001   8.479  17.764  0.00  0.00    +0.000 N 
ATOM     15  C   UNL     1       2.182   9.499  18.260  0.00  0.00    +0.000 A 
ATOM     16  C   UNL     1       2.095  10.821  17.863  0.00  0.00    +0.000 A 
ATOM     17  C   UNL     1       1.261  11.693  18.590  0.00  0.00    +0.000 A 
ATOM     18  C   UNL     1       0.530  11.242  19.702  0.00  0.00    +0.000 A 
ATOM     19  C   UNL     1       0.642   9.924  20.118  0.00  0.00    +0.000 A 
ATOM     20  C   UNL     1       1.482   9.087  19.403  0.00  0.00    +0.000 A 
ATOM     21  C   UNL     1       1.902   7.702  19.666  0.00  0.00    +0.000 C 
ATOM     22  N   UNL     1       1.695   6.979  20.715  0.00  0.00    +0.000 NA
ATOM     23  H   UNL     1       5.024   3.810  16.717  0.00  0.00    +0.000 HD
ATOM     24  H   UNL     1       3.346   8.448  16.811  0.00  0.00    +0.000 HD
ENDROOT
BRANCH  22  25
ATOM     25  O   UNL     1       0.793   7.510  21.628  0.00  0.00    +0.000 OA
ATOM     26  H   UNL     1      -0.044   7.091  21.351  0.00  0.00    +0.000 HD
ENDBRANCH  22  25
TORSDOF 1
ENDMDL
MODEL 9
REMARK VINA RESULT:      -6.5      9.255     11.081
REMARK  Name = 
REMARK  2 active torsions:
REMARK  status: ('A' for Active; 'I' for Inactive)
REMARK    1  A    between atoms: C_1  and  C_2
REMARK    2  A    between atoms: N_22  and  O_23
REMARK                            x       y       z     vdW  Elec       q    Type
REMARK                         _______ _______ _______ _____ _____    ______ ____
ROOT
ATOM      1  C   UNL     1       1.870   8.718  17.661  0.00  0.00    +0.000 C 
ATOM      2  C   UNL     1       1.091   9.327  18.783  0.00  0.00    +0.000 A 
ATOM      3  C   UNL     1       1.542   9.120  20.098  0.00  0.00    +0.000 A 
ATOM      4  C   UNL     1       0.763   9.509  21.187  0.00  0.00    +0.000 A 
ATOM      5 CL   UNL     1       1.316   9.237  22.795  0.00  0.00    +0.000 Cl
ATOM      6  C   UNL     1      -0.465  10.124  20.987  0.00  0.00    +0.000 A 
ATOM      7  C   UNL     1      -0.829  10.525  19.715  0.00  0.00    +0.000 A 
ATOM      8  C   UNL     1      -0.083  10.068  18.623  0.00  0.00    +0.000 A 
ATOM      9  N   UNL     1      -0.733  10.433  17.439  0.00  0.00    +0.000 N 
ATOM     10  C   UNL     1      -1.901  11.162  17.686  0.00  0.00    +0.000 C 
ATOM     11  O   UNL     1      -2.696  11.598  16.877  0.00  0.00    +0.000 OA
ATOM     12  C   UNL     1      -1.947  11.330  19.186  0.00  0.00    +0.000 C 
ATOM     13  C   UNL     1      -2.811  12.174  19.788  0.00  0.00    +0.000 C 
ATOM     14  N   UNL     1      -3.895  12.888  19.284  0.00  0.00    +0.000 N 
ATOM     15  C   UNL     1      -4.668  13.378  20.342  0.00  0.00    +0.000 A 
ATOM     16  C   UNL     1      -5.831  14.127  20.301  0.00  0.00    +0.000 A 
ATOM     17  C   UNL     1      -6.376  14.596  21.512  0.00  0.00    +0.000 A 
ATOM     18  C   UNL     1      -5.760  14.320  22.743  0.00  0.00    +0.000 A 
ATOM     19  C   UNL     1      -4.578  13.596  22.781  0.00  0.00    +0.000 A 
ATOM     20  C   UNL     1      -4.046  13.160  21.579  0.00  0.00    +0.000 A 
ATOM     21  C   UNL     1      -2.767  12.494  21.284  0.00  0.00    +0.000 C 
ATOM     22  N   UNL     1      -1.765  12.284  22.070  0.00  0.00    +0.000 NA
ATOM     23  H   UNL     1      -0.432  10.188  16.508  0.00  0.00    +0.000 HD
ATOM     24  H   UNL     1      -4.271  12.666  18.369  0.00  0.00    +0.000 HD
ENDROOT
BRANCH  22  25
ATOM     25  O   UNL     1      -2.004  12.545  23.413  0.00  0.00    +0.000 OA
ATOM     26  H   UNL     1      -2.840  13.048  23.375  0.00  0.00    +0.000 HD
ENDBRANCH  22  25
TORSDOF 1
ENDMDL
