MODEL 1
REMARK VINA RESULT:      -8.3      0.000      0.000
REMARK  Name = 
REMARK  5 active torsions:
REMARK  status: ('A' for Active; 'I' for Inactive)
REMARK    1  A    between atoms: S_2  and  C_4
REMARK    2  A    between atoms: S_2  and  C_11
REMARK    3  A    between atoms: N_15  and  C_16
REMARK    4  A    between atoms: C_16  and  C_17
REMARK    5  A    between atoms: C_17  and  C_18
REMARK                            x       y       z     vdW  Elec       q    Type
REMARK                         _______ _______ _______ _____ _____    ______ ____
ROOT
ATOM      1  C   UNL     1       2.239   4.183  18.382  0.00  0.00    +0.000 C 
ATOM      2  F   UNL     1       1.518   3.948  17.230  0.00  0.00    +0.000 F 
ATOM      3  C   UNL     1       1.273   3.975  19.545  0.00  0.00    +0.000 C 
ATOM      4  C   UNL     1       1.814   4.531  20.856  0.00  0.00    +0.000 C 
ATOM      5  N   UNL     1       2.206   5.940  20.772  0.00  0.00    +0.000 NA
ATOM      6  C   UNL     1       3.166   6.169  19.683  0.00  0.00    +0.000 C 
ATOM      7  C   UNL     1       2.702   5.642  18.324  0.00  0.00    +0.000 C 
ENDROOT
BRANCH   1   9
ATOM      8  O   UNL     1       3.318   1.765  17.846  0.00  0.00    +0.000 OA
ATOM      9  S   UNL     1       3.678   3.050  18.414  0.00  0.00    +0.000 S 
ATOM     10  O   UNL     1       4.296   3.097  19.728  0.00  0.00    +0.000 OA
BRANCH   9  11
ATOM     11  C   UNL     1       4.868   3.778  17.297  0.00  0.00    +0.000 A 
ATOM     12  C   UNL     1       4.610   3.786  15.921  0.00  0.00    +0.000 A 
ATOM     13  C   UNL     1       5.564   4.318  15.051  0.00  0.00    +0.000 A 
ATOM     14  C   UNL     1       6.748   4.845  15.561  0.00  0.00    +0.000 A 
ATOM     15  F   UNL     1       7.667   5.339  14.721  0.00  0.00    +0.000 F 
ATOM     16  C   UNL     1       6.993   4.868  16.932  0.00  0.00    +0.000 A 
ATOM     17  C   UNL     1       6.046   4.337  17.808  0.00  0.00    +0.000 A 
ENDBRANCH   9  11
ENDBRANCH   1   9
BRANCH   5  18
ATOM     18  C   UNL     1       1.081   6.898  20.756  0.00  0.00    +0.000 C 
BRANCH  18  19
ATOM     19  C   UNL     1       1.540   8.350  20.529  0.00  0.00    +0.000 C 
BRANCH  19  20
ATOM     20  C   UNL     1       0.753   9.365  21.319  0.00  0.00    +0.000 A 
ATOM     21  C   UNL     1       0.111   9.011  22.513  0.00  0.00    +0.000 A 
ATOM     22  C   UNL     1      -0.674   9.949  23.189  0.00  0.00    +0.000 A 
ATOM     23  C   UNL     1      -0.809  11.236  22.676  0.00  0.00    +0.000 A 
ATOM     24  F   UNL     1      -1.579  12.124  23.318  0.00  0.00    +0.000 F 
ATOM     25  C   UNL     1      -0.162  11.613  21.509  0.00  0.00    +0.000 A 
ATOM     26  C   UNL     1       0.618  10.677  20.843  0.00  0.00    +0.000 A 
ATOM     27  F   UNL     1       1.237  11.038  19.710  0.00  0.00    +0.000 F 
ENDBRANCH  19  20
ENDBRANCH  18  19
ENDBRANCH   5  18
TORSDOF 5
ENDMDL
MODEL 2
REMARK VINA RESULT:      -8.1      1.016      1.418
REMARK  Name = 
REMARK  5 active torsions:
REMARK  status: ('A' for Active; 'I' for Inactive)
REMARK    1  A    between atoms: S_2  and  C_4
REMARK    2  A    between atoms: S_2  and  C_11
REMARK    3  A    between atoms: N_15  and  C_16
REMARK    4  A    between atoms: C_16  and  C_17
REMARK    5  A    between atoms: C_17  and  C_18
REMARK                            x       y       z     vdW  Elec       q    Type
REMARK                         _______ _______ _______ _____ _____    ______ ____
ROOT
ATOM      1  C   UNL     1       2.264   4.345  18.335  0.00  0.00    +0.000 C 
ATOM      2  F   UNL     1       1.441   4.001  17.284  0.00  0.00    +0.000 F 
ATOM      3  C   UNL     1       1.399   4.309  19.591  0.00  0.00    +0.000 C 
ATOM      4  C   UNL     1       2.065   4.996  20.776  0.00  0.00    +0.000 C 
ATOM      5  N   UNL     1       2.483   6.372  20.490  0.00  0.00    +0.000 NA
ATOM      6  C   UNL     1       3.349   6.437  19.305  0.00  0.00    +0.000 C 
ATOM      7  C   UNL     1       2.756   5.771  18.063  0.00  0.00    +0.000 C 
ENDROOT
BRANCH   1   9
ATOM      8  O   UNL     1       3.273   1.887  17.849  0.00  0.00    +0.000 OA
ATOM      9  S   UNL     1       3.673   3.175  18.382  0.00  0.00    +0.000 S 
ATOM     10  O   UNL     1       4.304   3.236  19.690  0.00  0.00    +0.000 OA
BRANCH   9  11
ATOM     11  C   UNL     1       4.872   3.843  17.238  0.00  0.00    +0.000 A 
ATOM     12  C   UNL     1       4.589   3.853  15.868  0.00  0.00    +0.000 A 
ATOM     13  C   UNL     1       5.548   4.337  14.976  0.00  0.00    +0.000 A 
ATOM     14  C   UNL     1       6.763   4.817  15.460  0.00  0.00    +0.000 A 
ATOM     15  F   UNL     1       7.686   5.264  14.599  0.00  0.00    +0.000 F 
ATOM     16  C   UNL     1       7.034   4.839  16.826  0.00  0.00    +0.000 A 
ATOM     17  C   UNL     1       6.082   4.355  17.724  0.00  0.00    +0.000 A 
ENDBRANCH   9  11
ENDBRANCH   1   9
BRANCH   5  18
ATOM     18  C   UNL     1       1.384   7.359  20.453  0.00  0.00    +0.000 C 
BRANCH  18  19
ATOM     19  C   UNL     1       1.383   8.293  21.678  0.00  0.00    +0.000 C 
BRANCH  19  20
ATOM     20  C   UNL     1       0.400   9.432  21.571  0.00  0.00    +0.000 A 
ATOM     21  C   UNL     1       0.106  10.019  20.332  0.00  0.00    +0.000 A 
ATOM     22  C   UNL     1      -0.750  11.121  20.267  0.00  0.00    +0.000 A 
ATOM     23  C   UNL     1      -1.314  11.628  21.434  0.00  0.00    +0.000 A 
ATOM     24  F   UNL     1      -2.117  12.698  21.366  0.00  0.00    +0.000 F 
ATOM     25  C   UNL     1      -1.054  11.048  22.666  0.00  0.00    +0.000 A 
ATOM     26  C   UNL     1      -0.204   9.951  22.724  0.00  0.00    +0.000 A 
ATOM     27  F   UNL     1       0.054   9.394  23.916  0.00  0.00    +0.000 F 
ENDBRANCH  19  20
ENDBRANCH  18  19
ENDBRANCH   5  18
TORSDOF 5
ENDMDL
MODEL 3
REMARK VINA RESULT:      -8.1      1.316      1.632
REMARK  Name = 
REMARK  5 active torsions:
REMARK  status: ('A' for Active; 'I' for Inactive)
REMARK    1  A    between atoms: S_2  and  C_4
REMARK    2  A    between atoms: S_2  and  C_11
REMARK    3  A    between atoms: N_15  and  C_16
REMARK    4  A    between atoms: C_16  and  C_17
REMARK    5  A    between atoms: C_17  and  C_18
REMARK                            x       y       z     vdW  Elec       q    Type
REMARK                         _______ _______ _______ _____ _____    ______ ____
ROOT
ATOM      1  C   UNL     1       2.306   4.192  18.383  0.00  0.00    +0.000 C 
ATOM      2  F   UNL     1       1.606   3.974  17.216  0.00  0.00    +0.000 F 
ATOM      3  C   UNL     1       1.325   3.950  19.527  0.00  0.00    +0.000 C 
ATOM      4  C   UNL     1       1.841   4.483  20.857  0.00  0.00    +0.000 C 
ATOM      5  N   UNL     1       2.221   5.898  20.808  0.00  0.00    +0.000 NA
ATOM      6  C   UNL     1       3.194   6.158  19.739  0.00  0.00    +0.000 C 
ATOM      7  C   UNL     1       2.756   5.656  18.363  0.00  0.00    +0.000 C 
ENDROOT
BRANCH   1   9
ATOM      8  O   UNL     1       3.410   1.788  17.835  0.00  0.00    +0.000 OA
ATOM      9  S   UNL     1       3.756   3.072  18.414  0.00  0.00    +0.000 S 
ATOM     10  O   UNL     1       4.368   3.114  19.731  0.00  0.00    +0.000 OA
BRANCH   9  11
ATOM     11  C   UNL     1       4.944   3.818  17.307  0.00  0.00    +0.000 A 
ATOM     12  C   UNL     1       4.677   3.864  15.934  0.00  0.00    +0.000 A 
ATOM     13  C   UNL     1       5.629   4.411  15.072  0.00  0.00    +0.000 A 
ATOM     14  C   UNL     1       6.821   4.916  15.586  0.00  0.00    +0.000 A 
ATOM     15  F   UNL     1       7.738   5.423  14.752  0.00  0.00    +0.000 F 
ATOM     16  C   UNL     1       7.075   4.901  16.955  0.00  0.00    +0.000 A 
ATOM     17  C   UNL     1       6.130   4.355  17.825  0.00  0.00    +0.000 A 
ENDBRANCH   9  11
ENDBRANCH   1   9
BRANCH   5  18
ATOM     18  C   UNL     1       1.087   6.845  20.795  0.00  0.00    +0.000 C 
BRANCH  18  19
ATOM     19  C   UNL     1       1.496   8.268  21.218  0.00  0.00    +0.000 C 
BRANCH  19  20
ATOM     20  C   UNL     1       0.742   9.356  20.496  0.00  0.00    +0.000 A 
ATOM     21  C   UNL     1      -0.248  10.105  21.147  0.00  0.00    +0.000 A 
ATOM     22  C   UNL     1      -0.985  11.055  20.436  0.00  0.00    +0.000 A 
ATOM     23  C   UNL     1      -0.729  11.261  19.084  0.00  0.00    +0.000 A 
ATOM     24  F   UNL     1      -1.454  12.158  18.405  0.00  0.00    +0.000 F 
ATOM     25  C   UNL     1       0.262  10.546  18.427  0.00  0.00    +0.000 A 
ATOM     26  C   UNL     1       0.992   9.604  19.139  0.00  0.00    +0.000 A 
ATOM     27  F   UNL     1       1.945   8.908  18.503  0.00  0.00    +0.000 F 
ENDBRANCH  19  20
ENDBRANCH  18  19
ENDBRANCH   5  18
TORSDOF 5
ENDMDL
MODEL 4
REMARK VINA RESULT:      -8.0      1.115      1.765
REMARK  Name = 
REMARK  5 active torsions:
REMARK  status: ('A' for Active; 'I' for Inactive)
REMARK    1  A    between atoms: S_2  and  C_4
REMARK    2  A    between atoms: S_2  and  C_11
REMARK    3  A    between atoms: N_15  and  C_16
REMARK    4  A    between atoms: C_16  and  C_17
REMARK    5  A    between atoms: C_17  and  C_18
REMARK                            x       y       z     vdW  Elec       q    Type
REMARK                         _______ _______ _______ _____ _____    ______ ____
ROOT
ATOM      1  C   UNL     1       2.318   4.198  18.330  0.00  0.00    +0.000 C 
ATOM      2  F   UNL     1       1.641   3.967  17.152  0.00  0.00    +0.000 F 
ATOM      3  C   UNL     1       1.323   3.939  19.458  0.00  0.00    +0.000 C 
ATOM      4  C   UNL     1       1.807   4.482  20.796  0.00  0.00    +0.000 C 
ATOM      5  N   UNL     1       2.162   5.903  20.752  0.00  0.00    +0.000 NA
ATOM      6  C   UNL     1       3.148   6.181  19.699  0.00  0.00    +0.000 C 
ATOM      7  C   UNL     1       2.742   5.670  18.316  0.00  0.00    +0.000 C 
ENDROOT
BRANCH   1   9
ATOM      8  O   UNL     1       3.453   1.790  17.871  0.00  0.00    +0.000 OA
ATOM      9  S   UNL     1       3.787   3.104  18.386  0.00  0.00    +0.000 S 
ATOM     10  O   UNL     1       4.420   3.216  19.689  0.00  0.00    +0.000 OA
BRANCH   9  11
ATOM     11  C   UNL     1       4.944   3.819  17.226  0.00  0.00    +0.000 A 
ATOM     12  C   UNL     1       4.649   3.806  15.858  0.00  0.00    +0.000 A 
ATOM     13  C   UNL     1       5.577   4.328  14.955  0.00  0.00    +0.000 A 
ATOM     14  C   UNL     1       6.772   4.868  15.425  0.00  0.00    +0.000 A 
ATOM     15  F   UNL     1       7.667   5.351  14.553  0.00  0.00    +0.000 F 
ATOM     16  C   UNL     1       7.053   4.911  16.788  0.00  0.00    +0.000 A 
ATOM     17  C   UNL     1       6.133   4.390  17.698  0.00  0.00    +0.000 A 
ENDBRANCH   9  11
ENDBRANCH   1   9
BRANCH   5  18
ATOM     18  C   UNL     1       1.012   6.830  20.719  0.00  0.00    +0.000 C 
BRANCH  18  19
ATOM     19  C   UNL     1       1.361   8.230  21.260  0.00  0.00    +0.000 C 
BRANCH  19  20
ATOM     20  C   UNL     1       0.641   9.349  20.551  0.00  0.00    +0.000 A 
ATOM     21  C   UNL     1       0.902   9.638  19.204  0.00  0.00    +0.000 A 
ATOM     22  C   UNL     1       0.278  10.727  18.590  0.00  0.00    +0.000 A 
ATOM     23  C   UNL     1      -0.606  11.518  19.317  0.00  0.00    +0.000 A 
ATOM     24  F   UNL     1      -1.184  12.573  18.727  0.00  0.00    +0.000 F 
ATOM     25  C   UNL     1      -0.895  11.236  20.644  0.00  0.00    +0.000 A 
ATOM     26  C   UNL     1      -0.274  10.151  21.248  0.00  0.00    +0.000 A 
ATOM     27  F   UNL     1      -0.547   9.881  22.532  0.00  0.00    +0.000 F 
ENDBRANCH  19  20
ENDBRANCH  18  19
ENDBRANCH   5  18
TORSDOF 5
ENDMDL
MODEL 5
REMARK VINA RESULT:      -8.0      0.742      1.223
REMARK  Name = 
REMARK  5 active torsions:
REMARK  status: ('A' for Active; 'I' for Inactive)
REMARK    1  A    between atoms: S_2  and  C_4
REMARK    2  A    between atoms: S_2  and  C_11
REMARK    3  A    between atoms: N_15  and  C_16
REMARK    4  A    between atoms: C_16  and  C_17
REMARK    5  A    between atoms: C_17  and  C_18
REMARK                            x       y       z     vdW  Elec       q    Type
REMARK                         _______ _______ _______ _____ _____    ______ ____
ROOT
ATOM      1  C   UNL     1       1.854   3.768  18.856  0.00  0.00    +0.000 C 
ATOM      2  F   UNL     1       0.879   3.243  18.034  0.00  0.00    +0.000 F 
ATOM      3  C   UNL     1       1.252   3.825  20.257  0.00  0.00    +0.000 C 
ATOM      4  C   UNL     1       2.067   4.695  21.205  0.00  0.00    +0.000 C 
ATOM      5  N   UNL     1       2.296   6.050  20.698  0.00  0.00    +0.000 NA
ATOM      6  C   UNL     1       2.910   6.031  19.363  0.00  0.00    +0.000 C 
ATOM      7  C   UNL     1       2.153   5.180  18.343  0.00  0.00    +0.000 C 
ENDROOT
BRANCH   1   9
ATOM      8  O   UNL     1       3.131   1.640  17.788  0.00  0.00    +0.000 OA
ATOM      9  S   UNL     1       3.346   2.711  18.743  0.00  0.00    +0.000 S 
ATOM     10  O   UNL     1       3.805   2.384  20.083  0.00  0.00    +0.000 OA
BRANCH   9  11
ATOM     11  C   UNL     1       4.610   3.762  18.044  0.00  0.00    +0.000 A 
ATOM     12  C   UNL     1       5.579   4.328  18.880  0.00  0.00    +0.000 A 
ATOM     13  C   UNL     1       6.538   5.182  18.332  0.00  0.00    +0.000 A 
ATOM     14  C   UNL     1       6.528   5.448  16.964  0.00  0.00    +0.000 A 
ATOM     15  F   UNL     1       7.439   6.282  16.447  0.00  0.00    +0.000 F 
ATOM     16  C   UNL     1       5.584   4.861  16.126  0.00  0.00    +0.000 A 
ATOM     17  C   UNL     1       4.621   4.007  16.665  0.00  0.00    +0.000 A 
ENDBRANCH   9  11
ENDBRANCH   1   9
BRANCH   5  18
ATOM     18  C   UNL     1       1.126   6.949  20.778  0.00  0.00    +0.000 C 
BRANCH  18  19
ATOM     19  C   UNL     1       1.471   8.407  20.419  0.00  0.00    +0.000 C 
BRANCH  19  20
ATOM     20  C   UNL     1       0.721   9.426  21.240  0.00  0.00    +0.000 A 
ATOM     21  C   UNL     1       0.072   9.063  22.428  0.00  0.00    +0.000 A 
ATOM     22  C   UNL     1      -0.679  10.008  23.131  0.00  0.00    +0.000 A 
ATOM     23  C   UNL     1      -0.773  11.312  22.653  0.00  0.00    +0.000 A 
ATOM     24  F   UNL     1      -1.511  12.207  23.322  0.00  0.00    +0.000 F 
ATOM     25  C   UNL     1      -0.119  11.697  21.492  0.00  0.00    +0.000 A 
ATOM     26  C   UNL     1       0.627  10.754  20.798  0.00  0.00    +0.000 A 
ATOM     27  F   UNL     1       1.253  11.123  19.672  0.00  0.00    +0.000 F 
ENDBRANCH  19  20
ENDBRANCH  18  19
ENDBRANCH   5  18
TORSDOF 5
ENDMDL
MODEL 6
REMARK VINA RESULT:      -7.8      1.187      1.803
REMARK  Name = 
REMARK  5 active torsions:
REMARK  status: ('A' for Active; 'I' for Inactive)
REMARK    1  A    between atoms: S_2  and  C_4
REMARK    2  A    between atoms: S_2  and  C_11
REMARK    3  A    between atoms: N_15  and  C_16
REMARK    4  A    between atoms: C_16  and  C_17
REMARK    5  A    between atoms: C_17  and  C_18
REMARK                            x       y       z     vdW  Elec       q    Type
REMARK                         _______ _______ _______ _____ _____    ______ ____
ROOT
ATOM      1  C   UNL     1       1.818   4.183  18.632  0.00  0.00    +0.000 C 
ATOM      2  F   UNL     1       0.779   3.668  17.886  0.00  0.00    +0.000 F 
ATOM      3  C   UNL     1       1.251   4.475  20.018  0.00  0.00    +0.000 C 
ATOM      4  C   UNL     1       2.170   5.362  20.847  0.00  0.00    +0.000 C 
ATOM      5  N   UNL     1       2.531   6.614  20.176  0.00  0.00    +0.000 NA
ATOM      6  C   UNL     1       3.115   6.366  18.850  0.00  0.00    +0.000 C 
ATOM      7  C   UNL     1       2.254   5.482  17.947  0.00  0.00    +0.000 C 
ENDROOT
BRANCH   1   9
ATOM      8  O   UNL     1       2.851   1.824  17.817  0.00  0.00    +0.000 OA
ATOM      9  S   UNL     1       3.189   2.968  18.642  0.00  0.00    +0.000 S 
ATOM     10  O   UNL     1       3.627   2.750  20.011  0.00  0.00    +0.000 OA
BRANCH   9  11
ATOM     11  C   UNL     1       4.548   3.793  17.827  0.00  0.00    +0.000 A 
ATOM     12  C   UNL     1       5.594   4.322  18.591  0.00  0.00    +0.000 A 
ATOM     13  C   UNL     1       6.631   5.002  17.949  0.00  0.00    +0.000 A 
ATOM     14  C   UNL     1       6.621   5.132  16.562  0.00  0.00    +0.000 A 
ATOM     15  F   UNL     1       7.609   5.800  15.954  0.00  0.00    +0.000 F 
ATOM     16  C   UNL     1       5.598   4.577  15.797  0.00  0.00    +0.000 A 
ATOM     17  C   UNL     1       4.556   3.898  16.430  0.00  0.00    +0.000 A 
ENDBRANCH   9  11
ENDBRANCH   1   9
BRANCH   5  18
ATOM     18  C   UNL     1       1.463   7.634  20.151  0.00  0.00    +0.000 C 
BRANCH  18  19
ATOM     19  C   UNL     1       1.096   8.146  21.557  0.00  0.00    +0.000 C 
BRANCH  19  20
ATOM     20  C   UNL     1       0.220   9.373  21.545  0.00  0.00    +0.000 A 
ATOM     21  C   UNL     1      -0.124  10.005  20.343  0.00  0.00    +0.000 A 
ATOM     22  C   UNL     1      -0.875  11.184  20.363  0.00  0.00    +0.000 A 
ATOM     23  C   UNL     1      -1.286  11.722  21.579  0.00  0.00    +0.000 A 
ATOM     24  F   UNL     1      -1.987  12.862  21.591  0.00  0.00    +0.000 F 
ATOM     25  C   UNL     1      -0.975  11.099  22.779  0.00  0.00    +0.000 A 
ATOM     26  C   UNL     1      -0.231   9.927  22.752  0.00  0.00    +0.000 A 
ATOM     27  F   UNL     1       0.076   9.328  23.912  0.00  0.00    +0.000 F 
ENDBRANCH  19  20
ENDBRANCH  18  19
ENDBRANCH   5  18
TORSDOF 5
ENDMDL
MODEL 7
REMARK VINA RESULT:      -7.8      1.061      2.088
REMARK  Name = 
REMARK  5 active torsions:
REMARK  status: ('A' for Active; 'I' for Inactive)
REMARK    1  A    between atoms: S_2  and  C_4
REMARK    2  A    between atoms: S_2  and  C_11
REMARK    3  A    between atoms: N_15  and  C_16
REMARK    4  A    between atoms: C_16  and  C_17
REMARK    5  A    between atoms: C_17  and  C_18
REMARK                            x       y       z     vdW  Elec       q    Type
REMARK                         _______ _______ _______ _____ _____    ______ ____
ROOT
ATOM      1  C   UNL     1       2.047   4.029  18.568  0.00  0.00    +0.000 C 
ATOM      2  F   UNL     1       1.275   3.670  17.483  0.00  0.00    +0.000 F 
ATOM      3  C   UNL     1       1.151   3.903  19.796  0.00  0.00    +0.000 C 
ATOM      4  C   UNL     1       1.742   4.590  21.020  0.00  0.00    +0.000 C 
ATOM      5  N   UNL     1       2.086   5.996  20.788  0.00  0.00    +0.000 NA
ATOM      6  C   UNL     1       2.979   6.149  19.631  0.00  0.00    +0.000 C 
ATOM      7  C   UNL     1       2.461   5.488  18.354  0.00  0.00    +0.000 C 
ENDROOT
BRANCH   1   9
ATOM      8  O   UNL     1       3.234   1.675  17.975  0.00  0.00    +0.000 OA
ATOM      9  S   UNL     1       3.521   2.941  18.623  0.00  0.00    +0.000 S 
ATOM     10  O   UNL     1       4.067   2.941  19.969  0.00  0.00    +0.000 OA
BRANCH   9  11
ATOM     11  C   UNL     1       4.742   3.760  17.608  0.00  0.00    +0.000 A 
ATOM     12  C   UNL     1       5.883   4.307  18.204  0.00  0.00    +0.000 A 
ATOM     13  C   UNL     1       6.812   4.982  17.410  0.00  0.00    +0.000 A 
ATOM     14  C   UNL     1       6.600   5.091  16.037  0.00  0.00    +0.000 A 
ATOM     15  F   UNL     1       7.484   5.755  15.283  0.00  0.00    +0.000 F 
ATOM     16  C   UNL     1       5.481   4.520  15.436  0.00  0.00    +0.000 A 
ATOM     17  C   UNL     1       4.547   3.844  16.223  0.00  0.00    +0.000 A 
ENDBRANCH   9  11
ENDBRANCH   1   9
BRANCH   5  18
ATOM     18  C   UNL     1       0.933   6.918  20.748  0.00  0.00    +0.000 C 
BRANCH  18  19
ATOM     19  C   UNL     1       1.221   8.261  21.444  0.00  0.00    +0.000 C 
BRANCH  19  20
ATOM     20  C   UNL     1       0.880   9.466  20.603  0.00  0.00    +0.000 A 
ATOM     21  C   UNL     1       1.143   9.484  19.226  0.00  0.00    +0.000 A 
ATOM     22  C   UNL     1       0.886  10.639  18.482  0.00  0.00    +0.000 A 
ATOM     23  C   UNL     1       0.363  11.765  19.110  0.00  0.00    +0.000 A 
ATOM     24  F   UNL     1       0.140  12.874  18.394  0.00  0.00    +0.000 F 
ATOM     25  C   UNL     1       0.074  11.759  20.466  0.00  0.00    +0.000 A 
ATOM     26  C   UNL     1       0.329  10.608  21.200  0.00  0.00    +0.000 A 
ATOM     27  F   UNL     1       0.057  10.604  22.513  0.00  0.00    +0.000 F 
ENDBRANCH  19  20
ENDBRANCH  18  19
ENDBRANCH   5  18
TORSDOF 5
ENDMDL
MODEL 8
REMARK VINA RESULT:      -7.7      0.433      1.030
REMARK  Name = 
REMARK  5 active torsions:
REMARK  status: ('A' for Active; 'I' for Inactive)
REMARK    1  A    between atoms: S_2  and  C_4
REMARK    2  A    between atoms: S_2  and  C_11
REMARK    3  A    between atoms: N_15  and  C_16
REMARK    4  A    between atoms: C_16  and  C_17
REMARK    5  A    between atoms: C_17  and  C_18
REMARK                            x       y       z     vdW  Elec       q    Type
REMARK                         _______ _______ _______ _____ _____    ______ ____
ROOT
ATOM      1  C   UNL     1       2.353   4.474  18.178  0.00  0.00    +0.000 C 
ATOM      2  F   UNL     1       1.610   4.117  17.073  0.00  0.00    +0.000 F 
ATOM      3  C   UNL     1       1.406   4.408  19.374  0.00  0.00    +0.000 C 
ATOM      4  C   UNL     1       1.975   5.103  20.604  0.00  0.00    +0.000 C 
ATOM      5  N   UNL     1       2.377   6.490  20.354  0.00  0.00    +0.000 NA
ATOM      6  C   UNL     1       3.318   6.585  19.230  0.00  0.00    +0.000 C 
ATOM      7  C   UNL     1       2.826   5.913  17.948  0.00  0.00    +0.000 C 
ENDROOT
BRANCH   1   9
ATOM      8  O   UNL     1       3.403   2.001  17.898  0.00  0.00    +0.000 OA
ATOM      9  S   UNL     1       3.784   3.338  18.314  0.00  0.00    +0.000 S 
ATOM     10  O   UNL     1       4.423   3.524  19.606  0.00  0.00    +0.000 OA
BRANCH   9  11
ATOM     11  C   UNL     1       4.961   3.925  17.105  0.00  0.00    +0.000 A 
ATOM     12  C   UNL     1       6.201   4.414  17.529  0.00  0.00    +0.000 A 
ATOM     13  C   UNL     1       7.099   4.911  16.581  0.00  0.00    +0.000 A 
ATOM     14  C   UNL     1       6.757   4.899  15.230  0.00  0.00    +0.000 A 
ATOM     15  F   UNL     1       7.614   5.392  14.327  0.00  0.00    +0.000 F 
ATOM     16  C   UNL     1       5.536   4.383  14.804  0.00  0.00    +0.000 A 
ATOM     17  C   UNL     1       4.632   3.886  15.744  0.00  0.00    +0.000 A 
ENDBRANCH   9  11
ENDBRANCH   1   9
BRANCH   5  18
ATOM     18  C   UNL     1       1.259   7.451  20.249  0.00  0.00    +0.000 C 
BRANCH  18  19
ATOM     19  C   UNL     1       1.715   8.913  20.412  0.00  0.00    +0.000 C 
BRANCH  19  20
ATOM     20  C   UNL     1       0.801   9.740  21.280  0.00  0.00    +0.000 A 
ATOM     21  C   UNL     1       0.245   9.212  22.454  0.00  0.00    +0.000 A 
ATOM     22  C   UNL     1      -0.659   9.971  23.202  0.00  0.00    +0.000 A 
ATOM     23  C   UNL     1      -0.998  11.253  22.783  0.00  0.00    +0.000 A 
ATOM     24  F   UNL     1      -1.881  11.967  23.494  0.00  0.00    +0.000 F 
ATOM     25  C   UNL     1      -0.442  11.803  21.637  0.00  0.00    +0.000 A 
ATOM     26  C   UNL     1       0.457  11.045  20.899  0.00  0.00    +0.000 A 
ATOM     27  F   UNL     1       0.990  11.572  19.788  0.00  0.00    +0.000 F 
ENDBRANCH  19  20
ENDBRANCH  18  19
ENDBRANCH   5  18
TORSDOF 5
ENDMDL
MODEL 9
REMARK VINA RESULT:      -7.7      1.540      2.083
REMARK  Name = 
REMARK  5 active torsions:
REMARK  status: ('A' for Active; 'I' for Inactive)
REMARK    1  A    between atoms: S_2  and  C_4
REMARK    2  A    between atoms: S_2  and  C_11
REMARK    3  A    between atoms: N_15  and  C_16
REMARK    4  A    between atoms: C_16  and  C_17
REMARK    5  A    between atoms: C_17  and  C_18
REMARK                            x       y       z     vdW  Elec       q    Type
REMARK                         _______ _______ _______ _____ _____    ______ ____
ROOT
ATOM      1  C   UNL     1       1.816   3.834  18.820  0.00  0.00    +0.000 C 
ATOM      2  F   UNL     1       0.865   3.348  17.948  0.00  0.00    +0.000 F 
ATOM      3  C   UNL     1       1.166   3.852  20.201  0.00  0.00    +0.000 C 
ATOM      4  C   UNL     1       1.957   4.680  21.205  0.00  0.00    +0.000 C 
ATOM      5  N   UNL     1       2.217   6.049  20.752  0.00  0.00    +0.000 NA
ATOM      6  C   UNL     1       2.877   6.067  19.439  0.00  0.00    +0.000 C 
ATOM      7  C   UNL     1       2.147   5.258  18.366  0.00  0.00    +0.000 C 
ENDROOT
BRANCH   1   9
ATOM      8  O   UNL     1       3.088   1.696  17.765  0.00  0.00    +0.000 OA
ATOM      9  S   UNL     1       3.301   2.764  18.724  0.00  0.00    +0.000 S 
ATOM     10  O   UNL     1       3.741   2.433  20.068  0.00  0.00    +0.000 OA
BRANCH   9  11
ATOM     11  C   UNL     1       4.581   3.806  18.040  0.00  0.00    +0.000 A 
ATOM     12  C   UNL     1       5.588   4.303  18.875  0.00  0.00    +0.000 A 
ATOM     13  C   UNL     1       6.560   5.150  18.341  0.00  0.00    +0.000 A 
ATOM     14  C   UNL     1       6.527   5.477  16.988  0.00  0.00    +0.000 A 
ATOM     15  F   UNL     1       7.452   6.304  16.484  0.00  0.00    +0.000 F 
ATOM     16  C   UNL     1       5.545   4.957  16.148  0.00  0.00    +0.000 A 
ATOM     17  C   UNL     1       4.568   4.111  16.673  0.00  0.00    +0.000 A 
ENDBRANCH   9  11
ENDBRANCH   1   9
BRANCH   5  18
ATOM     18  C   UNL     1       1.054   6.958  20.822  0.00  0.00    +0.000 C 
BRANCH  18  19
ATOM     19  C   UNL     1       1.444   8.392  21.224  0.00  0.00    +0.000 C 
BRANCH  19  20
ATOM     20  C   UNL     1       0.711   9.459  20.451  0.00  0.00    +0.000 A 
ATOM     21  C   UNL     1      -0.262  10.258  21.067  0.00  0.00    +0.000 A 
ATOM     22  C   UNL     1      -0.982  11.189  20.312  0.00  0.00    +0.000 A 
ATOM     23  C   UNL     1      -0.723  11.324  18.952  0.00  0.00    +0.000 A 
ATOM     24  F   UNL     1      -1.431  12.204  18.231  0.00  0.00    +0.000 F 
ATOM     25  C   UNL     1       0.252  10.559  18.328  0.00  0.00    +0.000 A 
ATOM     26  C   UNL     1       0.964   9.638  19.084  0.00  0.00    +0.000 A 
ATOM     27  F   UNL     1       1.902   8.893  18.481  0.00  0.00    +0.000 F 
ENDBRANCH  19  20
ENDBRANCH  18  19
ENDBRANCH   5  18
TORSDOF 5
ENDMDL
