MODEL 1
REMARK VINA RESULT:      -7.5      0.000      0.000
REMARK  Name = 
REMARK  12 active torsions:
REMARK  status: ('A' for Active; 'I' for Inactive)
REMARK    1  A    between atoms: C_2  and  O_3
REMARK    2  A    between atoms: C_2  and  C_4
REMARK    3  A    between atoms: C_4  and  C_5
REMARK    4  A    between atoms: C_5  and  C_6
REMARK    5  A    between atoms: C_6  and  C_7
REMARK    6  A    between atoms: C_7  and  C_8
REMARK    7  A    between atoms: C_8  and  C_9
REMARK    8  A    between atoms: C_9  and  C_10
REMARK    9  A    between atoms: C_10  and  N_11
REMARK   10  A    between atoms: C_13  and  C_14
REMARK   11  A    between atoms: C_20  and  C_21
REMARK   12  A    between atoms: C_27  and  C_28
REMARK                            x       y       z     vdW  Elec       q    Type
REMARK                         _______ _______ _______ _____ _____    ______ ____
ROOT
ATOM      1  N   UNL     1       2.205   8.595  18.711  0.00  0.00    +0.000 N 
ATOM      2  N   UNL     1       2.950   8.053  17.726  0.00  0.00    +0.000 NA
ATOM      3  C   UNL     1       3.115   6.763  18.078  0.00  0.00    +0.000 A 
ATOM      4  C   UNL     1       2.379   6.448  19.305  0.00  0.00    +0.000 A 
ATOM      5  C   UNL     1       1.929   7.713  19.751  0.00  0.00    +0.000 A 
ENDROOT
BRANCH   3   6
ATOM      6  C   UNL     1       3.899   5.858  17.209  0.00  0.00    +0.000 A 
ATOM      7  C   UNL     1       5.002   6.328  16.470  0.00  0.00    +0.000 A 
ATOM      8  C   UNL     1       5.968   5.434  15.988  0.00  0.00    +0.000 A 
ATOM      9  C   UNL     1       5.769   4.064  16.102  0.00  0.00    +0.000 A 
ATOM     10  C   UNL     1       4.590   3.586  16.667  0.00  0.00    +0.000 A 
ATOM     11  C   UNL     1       3.664   4.478  17.226  0.00  0.00    +0.000 A 
ENDBRANCH   3   6
BRANCH   4  12
ATOM     12  C   UNL     1       2.202   5.135  20.034  0.00  0.00    +0.000 A 
ATOM     13  C   UNL     1       0.964   4.520  20.244  0.00  0.00    +0.000 A 
ATOM     14  C   UNL     1       0.828   3.171  20.615  0.00  0.00    +0.000 A 
ATOM     15  C   UNL     1       1.948   2.407  20.884  0.00  0.00    +0.000 A 
ATOM     16  C   UNL     1       3.173   3.043  20.907  0.00  0.00    +0.000 A 
ATOM     17  C   UNL     1       3.264   4.399  20.563  0.00  0.00    +0.000 A 
ENDBRANCH   4  12
BRANCH   5  18
ATOM     18  C   UNL     1       1.231   8.130  21.000  0.00  0.00    +0.000 A 
ATOM     19  C   UNL     1      -0.152   7.931  21.135  0.00  0.00    +0.000 A 
ATOM     20  C   UNL     1      -0.890   8.690  22.056  0.00  0.00    +0.000 A 
ATOM     21  C   UNL     1      -0.237   9.504  22.976  0.00  0.00    +0.000 A 
ATOM     22  C   UNL     1       1.151   9.545  22.988  0.00  0.00    +0.000 A 
ATOM     23  C   UNL     1       1.876   8.896  21.983  0.00  0.00    +0.000 A 
ENDBRANCH   5  18
BRANCH   1  24
ATOM     24  C   UNL     1       1.740   9.978  18.636  0.00  0.00    +0.000 C 
BRANCH  24  25
ATOM     25  C   UNL     1       0.271  10.314  18.361  0.00  0.00    +0.000 C 
BRANCH  25  26
ATOM     26  C   UNL     1      -0.237  11.343  19.402  0.00  0.00    +0.000 C 
BRANCH  26  27
ATOM     27  C   UNL     1      -1.707  11.117  19.757  0.00  0.00    +0.000 C 
BRANCH  27  28
ATOM     28  C   UNL     1      -2.654  12.173  19.162  0.00  0.00    +0.000 C 
BRANCH  28  29
ATOM     29  C   UNL     1      -3.719  11.496  18.294  0.00  0.00    +0.000 C 
BRANCH  29  30
ATOM     30  C   UNL     1      -3.242  10.191  17.671  0.00  0.00    +0.000 C 
BRANCH  30  32
ATOM     31  O   UNL     1      -3.043   9.564  15.334  0.00  0.00    +0.000 OA
ATOM     32  C   UNL     1      -2.863  10.383  16.209  0.00  0.00    +0.000 C 
BRANCH  32  33
ATOM     33  O   UNL     1      -2.283  11.578  15.985  0.00  0.00    +0.000 OA
ATOM     34  H   UNL     1      -2.909  12.291  15.773  0.00  0.00    +0.000 HD
ENDBRANCH  32  33
ENDBRANCH  30  32
ENDBRANCH  29  30
ENDBRANCH  28  29
ENDBRANCH  27  28
ENDBRANCH  26  27
ENDBRANCH  25  26
ENDBRANCH  24  25
ENDBRANCH   1  24
TORSDOF 12
ENDMDL
MODEL 2
REMARK VINA RESULT:      -7.4      0.691      1.047
REMARK  Name = 
REMARK  12 active torsions:
REMARK  status: ('A' for Active; 'I' for Inactive)
REMARK    1  A    between atoms: C_2  and  O_3
REMARK    2  A    between atoms: C_2  and  C_4
REMARK    3  A    between atoms: C_4  and  C_5
REMARK    4  A    between atoms: C_5  and  C_6
REMARK    5  A    between atoms: C_6  and  C_7
REMARK    6  A    between atoms: C_7  and  C_8
REMARK    7  A    between atoms: C_8  and  C_9
REMARK    8  A    between atoms: C_9  and  C_10
REMARK    9  A    between atoms: C_10  and  N_11
REMARK   10  A    between atoms: C_13  and  C_14
REMARK   11  A    between atoms: C_20  and  C_21
REMARK   12  A    between atoms: C_27  and  C_28
REMARK                            x       y       z     vdW  Elec       q    Type
REMARK                         _______ _______ _______ _____ _____    ______ ____
ROOT
ATOM      1  N   UNL     1       2.339   8.580  18.643  0.00  0.00    +0.000 N 
ATOM      2  N   UNL     1       3.115   8.060  17.671  0.00  0.00    +0.000 NA
ATOM      3  C   UNL     1       3.227   6.751  17.972  0.00  0.00    +0.000 A 
ATOM      4  C   UNL     1       2.424   6.405  19.148  0.00  0.00    +0.000 A 
ATOM      5  C   UNL     1       1.989   7.662  19.629  0.00  0.00    +0.000 A 
ENDROOT
BRANCH   3   6
ATOM      6  C   UNL     1       4.026   5.862  17.101  0.00  0.00    +0.000 A 
ATOM      7  C   UNL     1       5.002   6.378  16.226  0.00  0.00    +0.000 A 
ATOM      8  C   UNL     1       6.014   5.551  15.721  0.00  0.00    +0.000 A 
ATOM      9  C   UNL     1       5.976   4.181  15.954  0.00  0.00    +0.000 A 
ATOM     10  C   UNL     1       4.910   3.634  16.663  0.00  0.00    +0.000 A 
ATOM     11  C   UNL     1       3.946   4.471  17.241  0.00  0.00    +0.000 A 
ENDBRANCH   3   6
BRANCH   4  12
ATOM     12  C   UNL     1       2.176   5.067  19.807  0.00  0.00    +0.000 A 
ATOM     13  C   UNL     1       2.780   4.663  21.002  0.00  0.00    +0.000 A 
ATOM     14  C   UNL     1       2.311   3.587  21.776  0.00  0.00    +0.000 A 
ATOM     15  C   UNL     1       1.263   2.809  21.322  0.00  0.00    +0.000 A 
ATOM     16  C   UNL     1       0.792   3.039  20.044  0.00  0.00    +0.000 A 
ATOM     17  C   UNL     1       1.309   4.103  19.290  0.00  0.00    +0.000 A 
ENDBRANCH   4  12
BRANCH   5  18
ATOM     18  C   UNL     1       1.245   8.046  20.862  0.00  0.00    +0.000 A 
ATOM     19  C   UNL     1      -0.146   7.863  20.931  0.00  0.00    +0.000 A 
ATOM     20  C   UNL     1      -0.912   8.599  21.847  0.00  0.00    +0.000 A 
ATOM     21  C   UNL     1      -0.288   9.371  22.822  0.00  0.00    +0.000 A 
ATOM     22  C   UNL     1       1.099   9.390  22.894  0.00  0.00    +0.000 A 
ATOM     23  C   UNL     1       1.857   8.767  21.898  0.00  0.00    +0.000 A 
ENDBRANCH   5  18
BRANCH   1  24
ATOM     24  C   UNL     1       1.918   9.979  18.609  0.00  0.00    +0.000 C 
BRANCH  24  25
ATOM     25  C   UNL     1       0.461  10.368  18.342  0.00  0.00    +0.000 C 
BRANCH  25  26
ATOM     26  C   UNL     1       0.031  11.494  19.315  0.00  0.00    +0.000 C 
BRANCH  26  27
ATOM     27  C   UNL     1      -1.122  12.326  18.750  0.00  0.00    +0.000 C 
BRANCH  27  28
ATOM     28  C   UNL     1      -2.512  11.799  19.143  0.00  0.00    +0.000 C 
BRANCH  28  29
ATOM     29  C   UNL     1      -3.156  11.075  17.957  0.00  0.00    +0.000 C 
BRANCH  29  30
ATOM     30  C   UNL     1      -2.475  11.382  16.629  0.00  0.00    +0.000 C 
BRANCH  30  32
ATOM     31  O   UNL     1      -2.670  10.256  14.487  0.00  0.00    +0.000 OA
ATOM     32  C   UNL     1      -3.207  10.724  15.468  0.00  0.00    +0.000 C 
BRANCH  32  33
ATOM     33  O   UNL     1      -4.543  10.724  15.641  0.00  0.00    +0.000 OA
ATOM     34  H   UNL     1      -5.040  10.328  14.905  0.00  0.00    +0.000 HD
ENDBRANCH  32  33
ENDBRANCH  30  32
ENDBRANCH  29  30
ENDBRANCH  28  29
ENDBRANCH  27  28
ENDBRANCH  26  27
ENDBRANCH  25  26
ENDBRANCH  24  25
ENDBRANCH   1  24
TORSDOF 12
ENDMDL
MODEL 3
REMARK VINA RESULT:      -7.2      2.175      2.862
REMARK  Name = 
REMARK  12 active torsions:
REMARK  status: ('A' for Active; 'I' for Inactive)
REMARK    1  A    between atoms: C_2  and  O_3
REMARK    2  A    between atoms: C_2  and  C_4
REMARK    3  A    between atoms: C_4  and  C_5
REMARK    4  A    between atoms: C_5  and  C_6
REMARK    5  A    between atoms: C_6  and  C_7
REMARK    6  A    between atoms: C_7  and  C_8
REMARK    7  A    between atoms: C_8  and  C_9
REMARK    8  A    between atoms: C_9  and  C_10
REMARK    9  A    between atoms: C_10  and  N_11
REMARK   10  A    between atoms: C_13  and  C_14
REMARK   11  A    between atoms: C_20  and  C_21
REMARK   12  A    between atoms: C_27  and  C_28
REMARK                            x       y       z     vdW  Elec       q    Type
REMARK                         _______ _______ _______ _____ _____    ______ ____
ROOT
ATOM      1  N   UNL     1       2.264   8.641  18.735  0.00  0.00    +0.000 N 
ATOM      2  N   UNL     1       3.028   8.138  17.745  0.00  0.00    +0.000 NA
ATOM      3  C   UNL     1       3.153   6.827  18.029  0.00  0.00    +0.000 A 
ATOM      4  C   UNL     1       2.371   6.462  19.213  0.00  0.00    +0.000 A 
ATOM      5  C   UNL     1       1.935   7.710  19.715  0.00  0.00    +0.000 A 
ENDROOT
BRANCH   3   6
ATOM      6  C   UNL     1       3.945   5.953  17.136  0.00  0.00    +0.000 A 
ATOM      7  C   UNL     1       4.937   6.481  16.288  0.00  0.00    +0.000 A 
ATOM      8  C   UNL     1       5.940   5.654  15.764  0.00  0.00    +0.000 A 
ATOM      9  C   UNL     1       5.876   4.278  15.950  0.00  0.00    +0.000 A 
ATOM     10  C   UNL     1       4.795   3.726  16.631  0.00  0.00    +0.000 A 
ATOM     11  C   UNL     1       3.839   4.560  17.229  0.00  0.00    +0.000 A 
ENDBRANCH   3   6
BRANCH   4  12
ATOM     12  C   UNL     1       2.142   5.115  19.860  0.00  0.00    +0.000 A 
ATOM     13  C   UNL     1       2.760   4.704  21.046  0.00  0.00    +0.000 A 
ATOM     14  C   UNL     1       2.308   3.615  21.812  0.00  0.00    +0.000 A 
ATOM     15  C   UNL     1       1.264   2.831  21.359  0.00  0.00    +0.000 A 
ATOM     16  C   UNL     1       0.780   3.070  20.087  0.00  0.00    +0.000 A 
ATOM     17  C   UNL     1       1.280   4.147  19.340  0.00  0.00    +0.000 A 
ENDBRANCH   4  12
BRANCH   5  18
ATOM     18  C   UNL     1       1.206   8.074  20.963  0.00  0.00    +0.000 A 
ATOM     19  C   UNL     1      -0.192   7.964  21.021  0.00  0.00    +0.000 A 
ATOM     20  C   UNL     1      -0.922   8.696  21.969  0.00  0.00    +0.000 A 
ATOM     21  C   UNL     1      -0.262   9.385  22.982  0.00  0.00    +0.000 A 
ATOM     22  C   UNL     1       1.124   9.325  23.058  0.00  0.00    +0.000 A 
ATOM     23  C   UNL     1       1.852   8.710  22.034  0.00  0.00    +0.000 A 
ENDBRANCH   5  18
BRANCH   1  24
ATOM     24  C   UNL     1       1.833  10.038  18.724  0.00  0.00    +0.000 C 
BRANCH  24  25
ATOM     25  C   UNL     1       0.371  10.420  18.469  0.00  0.00    +0.000 C 
BRANCH  25  26
ATOM     26  C   UNL     1       0.060  11.783  19.138  0.00  0.00    +0.000 C 
BRANCH  26  27
ATOM     27  C   UNL     1       0.686  11.891  20.530  0.00  0.00    +0.000 C 
BRANCH  27  28
ATOM     28  C   UNL     1       0.107  13.035  21.379  0.00  0.00    +0.000 C 
BRANCH  28  29
ATOM     29  C   UNL     1      -1.403  12.847  21.555  0.00  0.00    +0.000 C 
BRANCH  29  30
ATOM     30  C   UNL     1      -1.778  12.263  22.912  0.00  0.00    +0.000 C 
BRANCH  30  32
ATOM     31  O   UNL     1      -3.835  12.134  24.193  0.00  0.00    +0.000 OA
ATOM     32  C   UNL     1      -3.285  12.283  23.124  0.00  0.00    +0.000 C 
BRANCH  32  33
ATOM     33  O   UNL     1      -3.960  12.477  21.974  0.00  0.00    +0.000 OA
ATOM     34  H   UNL     1      -4.876  12.779  22.095  0.00  0.00    +0.000 HD
ENDBRANCH  32  33
ENDBRANCH  30  32
ENDBRANCH  29  30
ENDBRANCH  28  29
ENDBRANCH  27  28
ENDBRANCH  26  27
ENDBRANCH  25  26
ENDBRANCH  24  25
ENDBRANCH   1  24
TORSDOF 12
ENDMDL
MODEL 4
REMARK VINA RESULT:      -7.1      1.619      2.255
REMARK  Name = 
REMARK  12 active torsions:
REMARK  status: ('A' for Active; 'I' for Inactive)
REMARK    1  A    between atoms: C_2  and  O_3
REMARK    2  A    between atoms: C_2  and  C_4
REMARK    3  A    between atoms: C_4  and  C_5
REMARK    4  A    between atoms: C_5  and  C_6
REMARK    5  A    between atoms: C_6  and  C_7
REMARK    6  A    between atoms: C_7  and  C_8
REMARK    7  A    between atoms: C_8  and  C_9
REMARK    8  A    between atoms: C_9  and  C_10
REMARK    9  A    between atoms: C_10  and  N_11
REMARK   10  A    between atoms: C_13  and  C_14
REMARK   11  A    between atoms: C_20  and  C_21
REMARK   12  A    between atoms: C_27  and  C_28
REMARK                            x       y       z     vdW  Elec       q    Type
REMARK                         _______ _______ _______ _____ _____    ______ ____
ROOT
ATOM      1  N   UNL     1       2.295   8.581  18.675  0.00  0.00    +0.000 N 
ATOM      2  N   UNL     1       3.068   8.069  17.696  0.00  0.00    +0.000 NA
ATOM      3  C   UNL     1       3.194   6.761  17.994  0.00  0.00    +0.000 A 
ATOM      4  C   UNL     1       2.403   6.406  19.175  0.00  0.00    +0.000 A 
ATOM      5  C   UNL     1       1.960   7.658  19.662  0.00  0.00    +0.000 A 
ENDROOT
BRANCH   3   6
ATOM      6  C   UNL     1       3.994   5.880  17.115  0.00  0.00    +0.000 A 
ATOM      7  C   UNL     1       4.981   6.403  16.258  0.00  0.00    +0.000 A 
ATOM      8  C   UNL     1       5.992   5.577  15.749  0.00  0.00    +0.000 A 
ATOM      9  C   UNL     1       5.941   4.204  15.958  0.00  0.00    +0.000 A 
ATOM     10  C   UNL     1       4.865   3.653  16.649  0.00  0.00    +0.000 A 
ATOM     11  C   UNL     1       3.902   4.488  17.232  0.00  0.00    +0.000 A 
ENDBRANCH   3   6
BRANCH   4  12
ATOM     12  C   UNL     1       2.171   5.065  19.835  0.00  0.00    +0.000 A 
ATOM     13  C   UNL     1       2.783   4.667  21.027  0.00  0.00    +0.000 A 
ATOM     14  C   UNL     1       2.327   3.585  21.802  0.00  0.00    +0.000 A 
ATOM     15  C   UNL     1       1.287   2.796  21.350  0.00  0.00    +0.000 A 
ATOM     16  C   UNL     1       0.811   3.021  20.073  0.00  0.00    +0.000 A 
ATOM     17  C   UNL     1       1.314   4.091  19.318  0.00  0.00    +0.000 A 
ENDBRANCH   4  12
BRANCH   5  18
ATOM     18  C   UNL     1       1.222   8.034  20.900  0.00  0.00    +0.000 A 
ATOM     19  C   UNL     1      -0.168   7.848  20.976  0.00  0.00    +0.000 A 
ATOM     20  C   UNL     1      -0.931   8.578  21.900  0.00  0.00    +0.000 A 
ATOM     21  C   UNL     1      -0.303   9.345  22.877  0.00  0.00    +0.000 A 
ATOM     22  C   UNL     1       1.084   9.366  22.941  0.00  0.00    +0.000 A 
ATOM     23  C   UNL     1       1.838   8.750  21.937  0.00  0.00    +0.000 A 
ENDBRANCH   5  18
BRANCH   1  24
ATOM     24  C   UNL     1       1.861   9.976  18.646  0.00  0.00    +0.000 C 
BRANCH  24  25
ATOM     25  C   UNL     1       0.480  10.372  18.116  0.00  0.00    +0.000 C 
BRANCH  25  26
ATOM     26  C   UNL     1      -0.319  11.104  19.223  0.00  0.00    +0.000 C 
BRANCH  26  27
ATOM     27  C   UNL     1       0.602  11.844  20.196  0.00  0.00    +0.000 C 
BRANCH  27  28
ATOM     28  C   UNL     1      -0.150  12.741  21.193  0.00  0.00    +0.000 C 
BRANCH  28  29
ATOM     29  C   UNL     1      -1.597  12.262  21.346  0.00  0.00    +0.000 C 
BRANCH  29  30
ATOM     30  C   UNL     1      -2.599  13.406  21.436  0.00  0.00    +0.000 C 
BRANCH  30  32
ATOM     31  O   UNL     1      -4.971  13.305  20.928  0.00  0.00    +0.000 OA
ATOM     32  C   UNL     1      -3.824  13.135  20.574  0.00  0.00    +0.000 C 
BRANCH  32  33
ATOM     33  O   UNL     1      -3.497  12.666  19.354  0.00  0.00    +0.000 OA
ATOM     34  H   UNL     1      -2.982  11.842  19.369  0.00  0.00    +0.000 HD
ENDBRANCH  32  33
ENDBRANCH  30  32
ENDBRANCH  29  30
ENDBRANCH  28  29
ENDBRANCH  27  28
ENDBRANCH  26  27
ENDBRANCH  25  26
ENDBRANCH  24  25
ENDBRANCH   1  24
TORSDOF 12
ENDMDL
MODEL 5
REMARK VINA RESULT:      -7.1      0.855      1.000
REMARK  Name = 
REMARK  12 active torsions:
REMARK  status: ('A' for Active; 'I' for Inactive)
REMARK    1  A    between atoms: C_2  and  O_3
REMARK    2  A    between atoms: C_2  and  C_4
REMARK    3  A    between atoms: C_4  and  C_5
REMARK    4  A    between atoms: C_5  and  C_6
REMARK    5  A    between atoms: C_6  and  C_7
REMARK    6  A    between atoms: C_7  and  C_8
REMARK    7  A    between atoms: C_8  and  C_9
REMARK    8  A    between atoms: C_9  and  C_10
REMARK    9  A    between atoms: C_10  and  N_11
REMARK   10  A    between atoms: C_13  and  C_14
REMARK   11  A    between atoms: C_20  and  C_21
REMARK   12  A    between atoms: C_27  and  C_28
REMARK                            x       y       z     vdW  Elec       q    Type
REMARK                         _______ _______ _______ _____ _____    ______ ____
ROOT
ATOM      1  N   UNL     1       2.182   8.547  18.354  0.00  0.00    +0.000 N 
ATOM      2  N   UNL     1       3.029   8.112  17.400  0.00  0.00    +0.000 NA
ATOM      3  C   UNL     1       3.486   6.926  17.849  0.00  0.00    +0.000 A 
ATOM      4  C   UNL     1       2.843   6.552  19.111  0.00  0.00    +0.000 A 
ATOM      5  C   UNL     1       2.116   7.713  19.466  0.00  0.00    +0.000 A 
ENDROOT
BRANCH   3   6
ATOM      6  C   UNL     1       4.454   6.157  17.038  0.00  0.00    +0.000 A 
ATOM      7  C   UNL     1       5.761   6.631  16.815  0.00  0.00    +0.000 A 
ATOM      8  C   UNL     1       6.778   5.752  16.416  0.00  0.00    +0.000 A 
ATOM      9  C   UNL     1       6.474   4.437  16.086  0.00  0.00    +0.000 A 
ATOM     10  C   UNL     1       5.150   4.008  16.124  0.00  0.00    +0.000 A 
ATOM     11  C   UNL     1       4.147   4.860  16.606  0.00  0.00    +0.000 A 
ENDBRANCH   3   6
BRANCH   4  12
ATOM     12  C   UNL     1       2.972   5.296  19.943  0.00  0.00    +0.000 A 
ATOM     13  C   UNL     1       2.104   4.959  20.986  0.00  0.00    +0.000 A 
ATOM     14  C   UNL     1       2.019   3.665  21.529  0.00  0.00    +0.000 A 
ATOM     15  C   UNL     1       2.883   2.674  21.103  0.00  0.00    +0.000 A 
ATOM     16  C   UNL     1       3.901   3.030  20.240  0.00  0.00    +0.000 A 
ATOM     17  C   UNL     1       3.971   4.341  19.745  0.00  0.00    +0.000 A 
ENDBRANCH   4  12
BRANCH   5  18
ATOM     18  C   UNL     1       1.344   8.060  20.692  0.00  0.00    +0.000 A 
ATOM     19  C   UNL     1      -0.028   7.768  20.767  0.00  0.00    +0.000 A 
ATOM     20  C   UNL     1      -0.850   8.458  21.670  0.00  0.00    +0.000 A 
ATOM     21  C   UNL     1      -0.290   9.297  22.628  0.00  0.00    +0.000 A 
ATOM     22  C   UNL     1       1.091   9.429  22.697  0.00  0.00    +0.000 A 
ATOM     23  C   UNL     1       1.897   8.848  21.712  0.00  0.00    +0.000 A 
ENDBRANCH   5  18
BRANCH   1  24
ATOM     24  C   UNL     1       1.414   9.778  18.181  0.00  0.00    +0.000 C 
BRANCH  24  25
ATOM     25  C   UNL     1       2.013  11.148  18.516  0.00  0.00    +0.000 C 
BRANCH  25  26
ATOM     26  C   UNL     1       1.083  11.902  19.499  0.00  0.00    +0.000 C 
BRANCH  26  27
ATOM     27  C   UNL     1      -0.289  12.183  18.884  0.00  0.00    +0.000 C 
BRANCH  27  28
ATOM     28  C   UNL     1      -1.420  11.333  19.488  0.00  0.00    +0.000 C 
BRANCH  28  29
ATOM     29  C   UNL     1      -2.563  11.184  18.479  0.00  0.00    +0.000 C 
BRANCH  29  30
ATOM     30  C   UNL     1      -2.192  10.320  17.280  0.00  0.00    +0.000 C 
BRANCH  30  32
ATOM     31  O   UNL     1      -2.558  10.452  14.884  0.00  0.00    +0.000 OA
ATOM     32  C   UNL     1      -2.801  10.868  15.996  0.00  0.00    +0.000 C 
BRANCH  32  33
ATOM     33  O   UNL     1      -3.646  11.891  16.227  0.00  0.00    +0.000 OA
ATOM     34  H   UNL     1      -3.795  12.466  15.458  0.00  0.00    +0.000 HD
ENDBRANCH  32  33
ENDBRANCH  30  32
ENDBRANCH  29  30
ENDBRANCH  28  29
ENDBRANCH  27  28
ENDBRANCH  26  27
ENDBRANCH  25  26
ENDBRANCH  24  25
ENDBRANCH   1  24
TORSDOF 12
ENDMDL
MODEL 6
REMARK VINA RESULT:      -7.1      3.178      7.766
REMARK  Name = 
REMARK  12 active torsions:
REMARK  status: ('A' for Active; 'I' for Inactive)
REMARK    1  A    between atoms: C_2  and  O_3
REMARK    2  A    between atoms: C_2  and  C_4
REMARK    3  A    between atoms: C_4  and  C_5
REMARK    4  A    between atoms: C_5  and  C_6
REMARK    5  A    between atoms: C_6  and  C_7
REMARK    6  A    between atoms: C_7  and  C_8
REMARK    7  A    between atoms: C_8  and  C_9
REMARK    8  A    between atoms: C_9  and  C_10
REMARK    9  A    between atoms: C_10  and  N_11
REMARK   10  A    between atoms: C_13  and  C_14
REMARK   11  A    between atoms: C_20  and  C_21
REMARK   12  A    between atoms: C_27  and  C_28
REMARK                            x       y       z     vdW  Elec       q    Type
REMARK                         _______ _______ _______ _____ _____    ______ ____
ROOT
ATOM      1  N   UNL     1       2.877   7.342  17.779  0.00  0.00    +0.000 N 
ATOM      2  N   UNL     1       2.693   8.621  17.395  0.00  0.00    +0.000 NA
ATOM      3  C   UNL     1       1.991   9.191  18.394  0.00  0.00    +0.000 A 
ATOM      4  C   UNL     1       1.783   8.253  19.500  0.00  0.00    +0.000 A 
ATOM      5  C   UNL     1       2.251   7.024  18.980  0.00  0.00    +0.000 A 
ENDROOT
BRANCH   3   6
ATOM      6  C   UNL     1       1.605  10.616  18.302  0.00  0.00    +0.000 A 
ATOM      7  C   UNL     1       0.326  11.055  18.695  0.00  0.00    +0.000 A 
ATOM      8  C   UNL     1       0.098  12.405  18.995  0.00  0.00    +0.000 A 
ATOM      9  C   UNL     1       1.090  13.349  18.759  0.00  0.00    +0.000 A 
ATOM     10  C   UNL     1       2.297  12.950  18.194  0.00  0.00    +0.000 A 
ATOM     11  C   UNL     1       2.557  11.590  17.976  0.00  0.00    +0.000 A 
ENDBRANCH   3   6
BRANCH   4  12
ATOM     12  C   UNL     1       1.129   8.455  20.849  0.00  0.00    +0.000 A 
ATOM     13  C   UNL     1       1.814   8.886  21.990  0.00  0.00    +0.000 A 
ATOM     14  C   UNL     1       1.165   9.386  23.133  0.00  0.00    +0.000 A 
ATOM     15  C   UNL     1      -0.215   9.382  23.207  0.00  0.00    +0.000 A 
ATOM     16  C   UNL     1      -0.915   8.756  22.195  0.00  0.00    +0.000 A 
ATOM     17  C   UNL     1      -0.230   8.239  21.086  0.00  0.00    +0.000 A 
ENDBRANCH   4  12
BRANCH   5  18
ATOM     18  C   UNL     1       2.215   5.639  19.530  0.00  0.00    +0.000 A 
ATOM     19  C   UNL     1       1.582   4.612  18.812  0.00  0.00    +0.000 A 
ATOM     20  C   UNL     1       1.143   3.454  19.471  0.00  0.00    +0.000 A 
ATOM     21  C   UNL     1       1.499   3.224  20.796  0.00  0.00    +0.000 A 
ATOM     22  C   UNL     1       2.309   4.141  21.455  0.00  0.00    +0.000 A 
ATOM     23  C   UNL     1       2.628   5.356  20.840  0.00  0.00    +0.000 A 
ENDBRANCH   5  18
BRANCH   1  24
ATOM     24  C   UNL     1       3.682   6.420  16.980  0.00  0.00    +0.000 C 
BRANCH  24  25
ATOM     25  C   UNL     1       5.050   5.929  17.465  0.00  0.00    +0.000 C 
BRANCH  25  26
ATOM     26  C   UNL     1       5.080   4.381  17.472  0.00  0.00    +0.000 C 
BRANCH  26  27
ATOM     27  C   UNL     1       6.088   3.825  16.465  0.00  0.00    +0.000 C 
BRANCH  27  28
ATOM     28  C   UNL     1       6.397   4.790  15.307  0.00  0.00    +0.000 C 
BRANCH  28  29
ATOM     29  C   UNL     1       5.563   4.420  14.077  0.00  0.00    +0.000 C 
BRANCH  29  30
ATOM     30  C   UNL     1       6.381   3.750  12.980  0.00  0.00    +0.000 C 
BRANCH  30  32
ATOM     31  O   UNL     1       4.407   3.333  11.630  0.00  0.00    +0.000 OA
ATOM     32  C   UNL     1       5.489   2.961  12.031  0.00  0.00    +0.000 C 
BRANCH  32  33
ATOM     33  O   UNL     1       6.031   1.778  11.685  0.00  0.00    +0.000 OA
ATOM     34  H   UNL     1       6.985   1.710  11.860  0.00  0.00    +0.000 HD
ENDBRANCH  32  33
ENDBRANCH  30  32
ENDBRANCH  29  30
ENDBRANCH  28  29
ENDBRANCH  27  28
ENDBRANCH  26  27
ENDBRANCH  25  26
ENDBRANCH  24  25
ENDBRANCH   1  24
TORSDOF 12
ENDMDL
MODEL 7
REMARK VINA RESULT:      -7.0      3.085      7.694
REMARK  Name = 
REMARK  12 active torsions:
REMARK  status: ('A' for Active; 'I' for Inactive)
REMARK    1  A    between atoms: C_2  and  O_3
REMARK    2  A    between atoms: C_2  and  C_4
REMARK    3  A    between atoms: C_4  and  C_5
REMARK    4  A    between atoms: C_5  and  C_6
REMARK    5  A    between atoms: C_6  and  C_7
REMARK    6  A    between atoms: C_7  and  C_8
REMARK    7  A    between atoms: C_8  and  C_9
REMARK    8  A    between atoms: C_9  and  C_10
REMARK    9  A    between atoms: C_10  and  N_11
REMARK   10  A    between atoms: C_13  and  C_14
REMARK   11  A    between atoms: C_20  and  C_21
REMARK   12  A    between atoms: C_27  and  C_28
REMARK                            x       y       z     vdW  Elec       q    Type
REMARK                         _______ _______ _______ _____ _____    ______ ____
ROOT
ATOM      1  N   UNL     1       2.865   7.135  18.007  0.00  0.00    +0.000 N 
ATOM      2  N   UNL     1       2.605   8.367  17.523  0.00  0.00    +0.000 NA
ATOM      3  C   UNL     1       1.905   8.986  18.494  0.00  0.00    +0.000 A 
ATOM      4  C   UNL     1       1.778   8.137  19.682  0.00  0.00    +0.000 A 
ATOM      5  C   UNL     1       2.293   6.892  19.252  0.00  0.00    +0.000 A 
ENDROOT
BRANCH   3   6
ATOM      6  C   UNL     1       1.444  10.378  18.296  0.00  0.00    +0.000 A 
ATOM      7  C   UNL     1       0.094  10.734  18.475  0.00  0.00    +0.000 A 
ATOM      8  C   UNL     1      -0.267  12.071  18.690  0.00  0.00    +0.000 A 
ATOM      9  C   UNL     1       0.685  13.077  18.574  0.00  0.00    +0.000 A 
ATOM     10  C   UNL     1       1.989  12.751  18.211  0.00  0.00    +0.000 A 
ATOM     11  C   UNL     1       2.369  11.407  18.083  0.00  0.00    +0.000 A 
ENDBRANCH   3   6
BRANCH   4  12
ATOM     12  C   UNL     1       1.155   8.423  21.030  0.00  0.00    +0.000 A 
ATOM     13  C   UNL     1       1.886   8.784  22.166  0.00  0.00    +0.000 A 
ATOM     14  C   UNL     1       1.301   9.363  23.306  0.00  0.00    +0.000 A 
ATOM     15  C   UNL     1      -0.071   9.514  23.383  0.00  0.00    +0.000 A 
ATOM     16  C   UNL     1      -0.839   8.961  22.377  0.00  0.00    +0.000 A 
ATOM     17  C   UNL     1      -0.219   8.362  21.272  0.00  0.00    +0.000 A 
ENDBRANCH   4  12
BRANCH   5  18
ATOM     18  C   UNL     1       2.344   5.560  19.917  0.00  0.00    +0.000 A 
ATOM     19  C   UNL     1       3.539   4.824  19.931  0.00  0.00    +0.000 A 
ATOM     20  C   UNL     1       3.514   3.436  20.131  0.00  0.00    +0.000 A 
ATOM     21  C   UNL     1       2.334   2.803  20.508  0.00  0.00    +0.000 A 
ATOM     22  C   UNL     1       1.185   3.560  20.704  0.00  0.00    +0.000 A 
ATOM     23  C   UNL     1       1.181   4.918  20.372  0.00  0.00    +0.000 A 
ENDBRANCH   5  18
BRANCH   1  24
ATOM     24  C   UNL     1       3.693   6.189  17.263  0.00  0.00    +0.000 C 
BRANCH  24  25
ATOM     25  C   UNL     1       4.767   6.667  16.281  0.00  0.00    +0.000 C 
BRANCH  25  26
ATOM     26  C   UNL     1       5.551   5.452  15.726  0.00  0.00    +0.000 C 
BRANCH  26  27
ATOM     27  C   UNL     1       5.868   4.430  16.819  0.00  0.00    +0.000 C 
BRANCH  27  28
ATOM     28  C   UNL     1       7.181   4.718  17.568  0.00  0.00    +0.000 C 
BRANCH  28  29
ATOM     29  C   UNL     1       6.967   5.835  18.595  0.00  0.00    +0.000 C 
BRANCH  29  30
ATOM     30  C   UNL     1       8.237   6.622  18.894  0.00  0.00    +0.000 C 
BRANCH  30  32
ATOM     31  O   UNL     1       8.661   9.004  18.692  0.00  0.00    +0.000 OA
ATOM     32  C   UNL     1       8.214   7.984  18.213  0.00  0.00    +0.000 C 
BRANCH  32  33
ATOM     33  O   UNL     1       7.625   7.941  17.003  0.00  0.00    +0.000 OA
ATOM     34  H   UNL     1       7.109   8.734  16.782  0.00  0.00    +0.000 HD
ENDBRANCH  32  33
ENDBRANCH  30  32
ENDBRANCH  29  30
ENDBRANCH  28  29
ENDBRANCH  27  28
ENDBRANCH  26  27
ENDBRANCH  25  26
ENDBRANCH  24  25
ENDBRANCH   1  24
TORSDOF 12
ENDMDL
MODEL 8
REMARK VINA RESULT:      -7.0      2.535      3.290
REMARK  Name = 
REMARK  12 active torsions:
REMARK  status: ('A' for Active; 'I' for Inactive)
REMARK    1  A    between atoms: C_2  and  O_3
REMARK    2  A    between atoms: C_2  and  C_4
REMARK    3  A    between atoms: C_4  and  C_5
REMARK    4  A    between atoms: C_5  and  C_6
REMARK    5  A    between atoms: C_6  and  C_7
REMARK    6  A    between atoms: C_7  and  C_8
REMARK    7  A    between atoms: C_8  and  C_9
REMARK    8  A    between atoms: C_9  and  C_10
REMARK    9  A    between atoms: C_10  and  N_11
REMARK   10  A    between atoms: C_13  and  C_14
REMARK   11  A    between atoms: C_20  and  C_21
REMARK   12  A    between atoms: C_27  and  C_28
REMARK                            x       y       z     vdW  Elec       q    Type
REMARK                         _______ _______ _______ _____ _____    ______ ____
ROOT
ATOM      1  N   UNL     1       2.336   8.626  18.739  0.00  0.00    +0.000 N 
ATOM      2  N   UNL     1       3.168   8.133  17.800  0.00  0.00    +0.000 NA
ATOM      3  C   UNL     1       3.297   6.824  18.096  0.00  0.00    +0.000 A 
ATOM      4  C   UNL     1       2.449   6.450  19.231  0.00  0.00    +0.000 A 
ATOM      5  C   UNL     1       1.963   7.692  19.701  0.00  0.00    +0.000 A 
ENDROOT
BRANCH   3   6
ATOM      6  C   UNL     1       4.156   5.962  17.255  0.00  0.00    +0.000 A 
ATOM      7  C   UNL     1       4.102   4.558  17.354  0.00  0.00    +0.000 A 
ATOM      8  C   UNL     1       4.586   3.752  16.314  0.00  0.00    +0.000 A 
ATOM      9  C   UNL     1       5.263   4.326  15.245  0.00  0.00    +0.000 A 
ATOM     10  C   UNL     1       5.485   5.701  15.230  0.00  0.00    +0.000 A 
ATOM     11  C   UNL     1       4.926   6.515  16.225  0.00  0.00    +0.000 A 
ENDBRANCH   3   6
BRANCH   4  12
ATOM     12  C   UNL     1       2.203   5.101  19.868  0.00  0.00    +0.000 A 
ATOM     13  C   UNL     1       2.818   4.672  21.048  0.00  0.00    +0.000 A 
ATOM     14  C   UNL     1       2.352   3.583  21.807  0.00  0.00    +0.000 A 
ATOM     15  C   UNL     1       1.297   2.818  21.349  0.00  0.00    +0.000 A 
ATOM     16  C   UNL     1       0.814   3.073  20.081  0.00  0.00    +0.000 A 
ATOM     17  C   UNL     1       1.327   4.149  19.341  0.00  0.00    +0.000 A 
ENDBRANCH   4  12
BRANCH   5  18
ATOM     18  C   UNL     1       1.154   8.047  20.901  0.00  0.00    +0.000 A 
ATOM     19  C   UNL     1      -0.233   7.826  20.906  0.00  0.00    +0.000 A 
ATOM     20  C   UNL     1      -1.059   8.535  21.791  0.00  0.00    +0.000 A 
ATOM     21  C   UNL     1      -0.502   9.317  22.797  0.00  0.00    +0.000 A 
ATOM     22  C   UNL     1       0.880   9.374  22.931  0.00  0.00    +0.000 A 
ATOM     23  C   UNL     1       1.699   8.778  21.967  0.00  0.00    +0.000 A 
ENDBRANCH   5  18
BRANCH   1  24
ATOM     24  C   UNL     1       1.884  10.015  18.697  0.00  0.00    +0.000 C 
BRANCH  24  25
ATOM     25  C   UNL     1       0.413  10.369  18.455  0.00  0.00    +0.000 C 
BRANCH  25  26
ATOM     26  C   UNL     1      -0.014  11.518  19.403  0.00  0.00    +0.000 C 
BRANCH  26  27
ATOM     27  C   UNL     1      -1.531  11.570  19.588  0.00  0.00    +0.000 C 
BRANCH  27  28
ATOM     28  C   UNL     1      -1.979  12.475  20.748  0.00  0.00    +0.000 C 
BRANCH  28  29
ATOM     29  C   UNL     1      -0.832  12.658  21.746  0.00  0.00    +0.000 C 
BRANCH  29  30
ATOM     30  C   UNL     1      -1.312  12.857  23.178  0.00  0.00    +0.000 C 
BRANCH  30  32
ATOM     31  O   UNL     1      -2.354  14.921  23.919  0.00  0.00    +0.000 OA
ATOM     32  C   UNL     1      -1.362  14.335  23.542  0.00  0.00    +0.000 C 
BRANCH  32  33
ATOM     33  O   UNL     1      -0.169  14.940  23.389  0.00  0.00    +0.000 OA
ATOM     34  H   UNL     1      -0.035  15.710  23.967  0.00  0.00    +0.000 HD
ENDBRANCH  32  33
ENDBRANCH  30  32
ENDBRANCH  29  30
ENDBRANCH  28  29
ENDBRANCH  27  28
ENDBRANCH  26  27
ENDBRANCH  25  26
ENDBRANCH  24  25
ENDBRANCH   1  24
TORSDOF 12
ENDMDL
MODEL 9
REMARK VINA RESULT:      -6.9      1.147      1.490
REMARK  Name = 
REMARK  12 active torsions:
REMARK  status: ('A' for Active; 'I' for Inactive)
REMARK    1  A    between atoms: C_2  and  O_3
REMARK    2  A    between atoms: C_2  and  C_4
REMARK    3  A    between atoms: C_4  and  C_5
REMARK    4  A    between atoms: C_5  and  C_6
REMARK    5  A    between atoms: C_6  and  C_7
REMARK    6  A    between atoms: C_7  and  C_8
REMARK    7  A    between atoms: C_8  and  C_9
REMARK    8  A    between atoms: C_9  and  C_10
REMARK    9  A    between atoms: C_10  and  N_11
REMARK   10  A    between atoms: C_13  and  C_14
REMARK   11  A    between atoms: C_20  and  C_21
REMARK   12  A    between atoms: C_27  and  C_28
REMARK                            x       y       z     vdW  Elec       q    Type
REMARK                         _______ _______ _______ _____ _____    ______ ____
ROOT
ATOM      1  N   UNL     1       2.176   8.679  18.903  0.00  0.00    +0.000 N 
ATOM      2  N   UNL     1       2.923   8.121  17.929  0.00  0.00    +0.000 NA
ATOM      3  C   UNL     1       2.978   6.810  18.236  0.00  0.00    +0.000 A 
ATOM      4  C   UNL     1       2.168   6.505  19.417  0.00  0.00    +0.000 A 
ATOM      5  C   UNL     1       1.791   7.782  19.895  0.00  0.00    +0.000 A 
ENDROOT
BRANCH   3   6
ATOM      6  C   UNL     1       3.732   5.882  17.364  0.00  0.00    +0.000 A 
ATOM      7  C   UNL     1       4.759   6.345  16.519  0.00  0.00    +0.000 A 
ATOM      8  C   UNL     1       5.723   5.458  16.019  0.00  0.00    +0.000 A 
ATOM      9  C   UNL     1       5.586   4.091  16.226  0.00  0.00    +0.000 A 
ATOM     10  C   UNL     1       4.470   3.606  16.903  0.00  0.00    +0.000 A 
ATOM     11  C   UNL     1       3.554   4.498  17.478  0.00  0.00    +0.000 A 
ENDBRANCH   3   6
BRANCH   4  12
ATOM     12  C   UNL     1       1.864   5.182  20.084  0.00  0.00    +0.000 A 
ATOM     13  C   UNL     1       0.952   4.248  19.584  0.00  0.00    +0.000 A 
ATOM     14  C   UNL     1       0.914   2.907  20.006  0.00  0.00    +0.000 A 
ATOM     15  C   UNL     1       1.738   2.476  21.028  0.00  0.00    +0.000 A 
ATOM     16  C   UNL     1       2.488   3.423  21.697  0.00  0.00    +0.000 A 
ATOM     17  C   UNL     1       2.474   4.758  21.267  0.00  0.00    +0.000 A 
ENDBRANCH   4  12
BRANCH   5  18
ATOM     18  C   UNL     1       1.071   8.204  21.130  0.00  0.00    +0.000 A 
ATOM     19  C   UNL     1      -0.327   8.097  21.201  0.00  0.00    +0.000 A 
ATOM     20  C   UNL     1      -1.050   8.873  22.120  0.00  0.00    +0.000 A 
ATOM     21  C   UNL     1      -0.383   9.607  23.095  0.00  0.00    +0.000 A 
ATOM     22  C   UNL     1       1.003   9.550  23.165  0.00  0.00    +0.000 A 
ATOM     23  C   UNL     1       1.724   8.888  22.166  0.00  0.00    +0.000 A 
ENDBRANCH   5  18
BRANCH   1  24
ATOM     24  C   UNL     1       1.817  10.095  18.865  0.00  0.00    +0.000 C 
BRANCH  24  25
ATOM     25  C   UNL     1       0.371  10.546  18.638  0.00  0.00    +0.000 C 
BRANCH  25  26
ATOM     26  C   UNL     1      -0.379   9.498  17.779  0.00  0.00    +0.000 C 
BRANCH  26  27
ATOM     27  C   UNL     1      -1.639  10.081  17.138  0.00  0.00    +0.000 C 
BRANCH  27  28
ATOM     28  C   UNL     1      -2.937   9.685  17.861  0.00  0.00    +0.000 C 
BRANCH  28  29
ATOM     29  C   UNL     1      -3.644  10.934  18.397  0.00  0.00    +0.000 C 
BRANCH  29  30
ATOM     30  C   UNL     1      -5.143  10.935  18.128  0.00  0.00    +0.000 C 
BRANCH  30  32
ATOM     31  O   UNL     1      -6.590  12.627  17.162  0.00  0.00    +0.000 OA
ATOM     32  C   UNL     1      -5.529  12.042  17.157  0.00  0.00    +0.000 C 
BRANCH  32  33
ATOM     33  O   UNL     1      -4.553  12.303  16.266  0.00  0.00    +0.000 OA
ATOM     34  H   UNL     1      -4.870  12.666  15.422  0.00  0.00    +0.000 HD
ENDBRANCH  32  33
ENDBRANCH  30  32
ENDBRANCH  29  30
ENDBRANCH  28  29
ENDBRANCH  27  28
ENDBRANCH  26  27
ENDBRANCH  25  26
ENDBRANCH  24  25
ENDBRANCH   1  24
TORSDOF 12
ENDMDL
