MODEL 1
REMARK VINA RESULT:      -8.6      0.000      0.000
REMARK  Name = 
REMARK  7 active torsions:
REMARK  status: ('A' for Active; 'I' for Inactive)
REMARK    1  A    between atoms: C_1  and  C_2
REMARK    2  A    between atoms: C_6  and  C_7
REMARK    3  A    between atoms: N_9  and  C_10
REMARK    4  A    between atoms: N_13  and  C_14
REMARK    5  A    between atoms: C_14  and  C_15
REMARK    6  A    between atoms: C_16  and  C_17
REMARK    7  A    between atoms: C_20  and  C_21
REMARK                            x       y       z     vdW  Elec       q    Type
REMARK                         _______ _______ _______ _____ _____    ______ ____
ROOT
ATOM      1  C   UNL     1       1.816   8.035  19.732  0.00  0.00    +0.000 C 
ATOM      2  O   UNL     1       2.113   8.476  18.628  0.00  0.00    +0.000 OA
ATOM      3  N   UNL     1       2.122   6.777  20.213  0.00  0.00    +0.000 N 
ATOM      4  H   UNL     1       1.732   6.475  21.096  0.00  0.00    +0.000 HD
ENDROOT
BRANCH   1  10
ATOM      5  C   UNL     1      -2.630  13.334  22.298  0.00  0.00    +0.000 C 
ATOM      6  C   UNL     1      -1.745  12.180  22.019  0.00  0.00    +0.000 A 
ATOM      7  N   UNL     1      -1.372  11.745  20.833  0.00  0.00    +0.000 NA
ATOM      8  C   UNL     1      -0.536  10.685  21.074  0.00  0.00    +0.000 A 
ATOM      9  C   UNL     1       0.150   9.877  20.161  0.00  0.00    +0.000 A 
ATOM     10  C   UNL     1       0.999   8.874  20.659  0.00  0.00    +0.000 A 
ATOM     11  C   UNL     1       1.102   8.653  22.042  0.00  0.00    +0.000 A 
ATOM     12  C   UNL     1       0.403   9.443  22.965  0.00  0.00    +0.000 A 
ATOM     13  C   UNL     1      -0.396  10.458  22.438  0.00  0.00    +0.000 A 
ATOM     14  N   UNL     1      -1.189  11.416  23.018  0.00  0.00    +0.000 N 
ATOM     15  H   UNL     1      -1.330  11.549  24.009  0.00  0.00    +0.000 HD
ENDBRANCH   1  10
BRANCH   3  16
ATOM     16  C   UNL     1       2.836   5.821  19.517  0.00  0.00    +0.000 A 
ATOM     17  C   UNL     1       2.456   4.596  18.931  0.00  0.00    +0.000 A 
ATOM     18  N   UNL     1       3.496   3.937  18.405  0.00  0.00    +0.000 NA
ATOM     19  N   UNL     1       4.544   4.754  18.645  0.00  0.00    +0.000 N 
ATOM     20  C   UNL     1       4.186   5.914  19.279  0.00  0.00    +0.000 A 
BRANCH  19  21
ATOM     21  C   UNL     1       5.907   4.279  18.428  0.00  0.00    +0.000 C 
BRANCH  21  22
ATOM     22  C   UNL     1       6.585   4.983  17.312  0.00  0.00    +0.000 A 
ATOM     23  C   UNL     1       6.531   4.714  15.916  0.00  0.00    +0.000 A 
ATOM     24  C   UNL     1       5.826   3.634  15.186  0.00  0.00    +0.000 C 
ATOM     25  N   UNL     1       7.231   5.615  15.216  0.00  0.00    +0.000 NA
ATOM     26  O   UNL     1       7.772   6.479  16.146  0.00  0.00    +0.000 OA
ATOM     27  C   UNL     1       7.389   6.101  17.392  0.00  0.00    +0.000 A 
ATOM     28  C   UNL     1       7.885   6.929  18.510  0.00  0.00    +0.000 C 
ENDBRANCH  21  22
ENDBRANCH  19  21
ENDBRANCH   3  16
TORSDOF 4
ENDMDL
MODEL 2
REMARK VINA RESULT:      -8.4      1.342      1.909
REMARK  Name = 
REMARK  7 active torsions:
REMARK  status: ('A' for Active; 'I' for Inactive)
REMARK    1  A    between atoms: C_1  and  C_2
REMARK    2  A    between atoms: C_6  and  C_7
REMARK    3  A    between atoms: N_9  and  C_10
REMARK    4  A    between atoms: N_13  and  C_14
REMARK    5  A    between atoms: C_14  and  C_15
REMARK    6  A    between atoms: C_16  and  C_17
REMARK    7  A    between atoms: C_20  and  C_21
REMARK                            x       y       z     vdW  Elec       q    Type
REMARK                         _______ _______ _______ _____ _____    ______ ____
ROOT
ATOM      1  C   UNL     1       1.939   6.941  20.141  0.00  0.00    +0.000 C 
ATOM      2  O   UNL     1       1.564   6.050  20.894  0.00  0.00    +0.000 OA
ATOM      3  N   UNL     1       2.890   6.816  19.146  0.00  0.00    +0.000 N 
ATOM      4  H   UNL     1       3.205   7.642  18.656  0.00  0.00    +0.000 HD
ENDROOT
BRANCH   1  10
ATOM      5  C   UNL     1      -1.251  12.892  23.112  0.00  0.00    +0.000 C 
ATOM      6  C   UNL     1      -0.570  11.846  22.315  0.00  0.00    +0.000 A 
ATOM      7  N   UNL     1      -0.140  10.682  22.754  0.00  0.00    +0.000 NA
ATOM      8  C   UNL     1       0.389  10.048  21.659  0.00  0.00    +0.000 A 
ATOM      9  C   UNL     1       0.965   8.775  21.568  0.00  0.00    +0.000 A 
ATOM     10  C   UNL     1       1.392   8.320  20.309  0.00  0.00    +0.000 A 
ATOM     11  C   UNL     1       1.298   9.154  19.183  0.00  0.00    +0.000 A 
ATOM     12  C   UNL     1       0.744  10.439  19.267  0.00  0.00    +0.000 A 
ATOM     13  C   UNL     1       0.288  10.841  20.523  0.00  0.00    +0.000 A 
ATOM     14  N   UNL     1      -0.313  11.990  20.972  0.00  0.00    +0.000 N 
ATOM     15  H   UNL     1      -0.544  12.797  20.411  0.00  0.00    +0.000 HD
ENDBRANCH   1  10
BRANCH   3  16
ATOM     16  C   UNL     1       3.555   5.646  18.836  0.00  0.00    +0.000 A 
ATOM     17  C   UNL     1       4.166   4.663  19.641  0.00  0.00    +0.000 A 
ATOM     18  N   UNL     1       4.767   3.711  18.916  0.00  0.00    +0.000 NA
ATOM     19  N   UNL     1       4.526   4.083  17.640  0.00  0.00    +0.000 N 
ATOM     20  C   UNL     1       3.770   5.220  17.547  0.00  0.00    +0.000 A 
BRANCH  19  21
ATOM     21  C   UNL     1       5.222   3.421  16.541  0.00  0.00    +0.000 C 
BRANCH  21  22
ATOM     22  C   UNL     1       6.190   4.314  15.860  0.00  0.00    +0.000 A 
ATOM     23  C   UNL     1       6.419   4.495  14.467  0.00  0.00    +0.000 A 
ATOM     24  C   UNL     1       5.794   3.815  13.308  0.00  0.00    +0.000 C 
ATOM     25  N   UNL     1       7.336   5.444  14.241  0.00  0.00    +0.000 NA
ATOM     26  O   UNL     1       7.737   5.887  15.485  0.00  0.00    +0.000 OA
ATOM     27  C   UNL     1       7.058   5.213  16.447  0.00  0.00    +0.000 A 
ATOM     28  C   UNL     1       7.371   5.572  17.844  0.00  0.00    +0.000 C 
ENDBRANCH  21  22
ENDBRANCH  19  21
ENDBRANCH   3  16
TORSDOF 4
ENDMDL
MODEL 3
REMARK VINA RESULT:      -8.3      0.438      1.594
REMARK  Name = 
REMARK  7 active torsions:
REMARK  status: ('A' for Active; 'I' for Inactive)
REMARK    1  A    between atoms: C_1  and  C_2
REMARK    2  A    between atoms: C_6  and  C_7
REMARK    3  A    between atoms: N_9  and  C_10
REMARK    4  A    between atoms: N_13  and  C_14
REMARK    5  A    between atoms: C_14  and  C_15
REMARK    6  A    between atoms: C_16  and  C_17
REMARK    7  A    between atoms: C_20  and  C_21
REMARK                            x       y       z     vdW  Elec       q    Type
REMARK                         _______ _______ _______ _____ _____    ______ ____
ROOT
ATOM      1  C   UNL     1       1.720   7.981  19.774  0.00  0.00    +0.000 C 
ATOM      2  O   UNL     1       1.976   8.369  18.641  0.00  0.00    +0.000 OA
ATOM      3  N   UNL     1       2.044   6.746  20.303  0.00  0.00    +0.000 N 
ATOM      4  H   UNL     1       1.687   6.487  21.212  0.00  0.00    +0.000 HD
ENDROOT
BRANCH   1  10
ATOM      5  C   UNL     1      -2.538  13.466  22.264  0.00  0.00    +0.000 C 
ATOM      6  C   UNL     1      -1.692  12.280  22.002  0.00  0.00    +0.000 A 
ATOM      7  N   UNL     1      -1.343  11.810  20.823  0.00  0.00    +0.000 NA
ATOM      8  C   UNL     1      -0.538  10.730  21.080  0.00  0.00    +0.000 A 
ATOM      9  C   UNL     1       0.115   9.882  20.178  0.00  0.00    +0.000 A 
ATOM     10  C   UNL     1       0.937   8.864  20.690  0.00  0.00    +0.000 A 
ATOM     11  C   UNL     1       1.045   8.668  22.077  0.00  0.00    +0.000 A 
ATOM     12  C   UNL     1       0.377   9.498  22.988  0.00  0.00    +0.000 A 
ATOM     13  C   UNL     1      -0.394  10.527  22.446  0.00  0.00    +0.000 A 
ATOM     14  N   UNL     1      -1.152  11.520  23.013  0.00  0.00    +0.000 N 
ATOM     15  H   UNL     1      -1.281  11.678  24.002  0.00  0.00    +0.000 HD
ENDBRANCH   1  10
BRANCH   3  16
ATOM     16  C   UNL     1       2.732   5.758  19.627  0.00  0.00    +0.000 A 
ATOM     17  C   UNL     1       2.352   4.477  19.179  0.00  0.00    +0.000 A 
ATOM     18  N   UNL     1       3.368   3.808  18.619  0.00  0.00    +0.000 NA
ATOM     19  N   UNL     1       4.400   4.675  18.698  0.00  0.00    +0.000 N 
ATOM     20  C   UNL     1       4.053   5.872  19.264  0.00  0.00    +0.000 A 
BRANCH  19  21
ATOM     21  C   UNL     1       5.757   4.227  18.401  0.00  0.00    +0.000 C 
BRANCH  21  22
ATOM     22  C   UNL     1       6.417   5.056  17.364  0.00  0.00    +0.000 A 
ATOM     23  C   UNL     1       7.372   6.100  17.522  0.00  0.00    +0.000 A 
ATOM     24  C   UNL     1       7.941   6.684  18.760  0.00  0.00    +0.000 C 
ATOM     25  N   UNL     1       7.785   6.569  16.339  0.00  0.00    +0.000 NA
ATOM     26  O   UNL     1       7.091   5.853  15.385  0.00  0.00    +0.000 OA
ATOM     27  C   UNL     1       6.277   4.955  15.995  0.00  0.00    +0.000 A 
ATOM     28  C   UNL     1       5.460   4.102  15.109  0.00  0.00    +0.000 C 
ENDBRANCH  21  22
ENDBRANCH  19  21
ENDBRANCH   3  16
TORSDOF 4
ENDMDL
MODEL 4
REMARK VINA RESULT:      -8.2      1.148      1.616
REMARK  Name = 
REMARK  7 active torsions:
REMARK  status: ('A' for Active; 'I' for Inactive)
REMARK    1  A    between atoms: C_1  and  C_2
REMARK    2  A    between atoms: C_6  and  C_7
REMARK    3  A    between atoms: N_9  and  C_10
REMARK    4  A    between atoms: N_13  and  C_14
REMARK    5  A    between atoms: C_14  and  C_15
REMARK    6  A    between atoms: C_16  and  C_17
REMARK    7  A    between atoms: C_20  and  C_21
REMARK                            x       y       z     vdW  Elec       q    Type
REMARK                         _______ _______ _______ _____ _____    ______ ____
ROOT
ATOM      1  C   UNL     1       1.569   7.597  20.101  0.00  0.00    +0.000 C 
ATOM      2  O   UNL     1       1.539   6.769  21.003  0.00  0.00    +0.000 OA
ATOM      3  N   UNL     1       2.074   7.395  18.830  0.00  0.00    +0.000 N 
ATOM      4  H   UNL     1       2.151   8.180  18.197  0.00  0.00    +0.000 HD
ENDROOT
BRANCH   1  10
ATOM      5  C   UNL     1      -1.499  13.426  23.420  0.00  0.00    +0.000 C 
ATOM      6  C   UNL     1      -0.824  12.420  22.570  0.00  0.00    +0.000 A 
ATOM      7  N   UNL     1      -0.475  11.201  22.925  0.00  0.00    +0.000 NA
ATOM      8  C   UNL     1       0.084  10.637  21.807  0.00  0.00    +0.000 A 
ATOM      9  C   UNL     1       0.603   9.348  21.633  0.00  0.00    +0.000 A 
ATOM     10  C   UNL     1       1.078   8.983  20.362  0.00  0.00    +0.000 A 
ATOM     11  C   UNL     1       1.088   9.915  19.312  0.00  0.00    +0.000 A 
ATOM     12  C   UNL     1       0.591  11.215  19.481  0.00  0.00    +0.000 A 
ATOM     13  C   UNL     1       0.085  11.530  20.743  0.00  0.00    +0.000 A 
ATOM     14  N   UNL     1      -0.486  12.665  21.260  0.00  0.00    +0.000 N 
ATOM     15  H   UNL     1      -0.646  13.529  20.762  0.00  0.00    +0.000 HD
ENDBRANCH   1  10
BRANCH   3  16
ATOM     16  C   UNL     1       2.612   6.206  18.378  0.00  0.00    +0.000 A 
ATOM     17  C   UNL     1       2.050   4.928  18.179  0.00  0.00    +0.000 A 
ATOM     18  N   UNL     1       2.959   4.027  17.786  0.00  0.00    +0.000 NA
ATOM     19  N   UNL     1       4.105   4.738  17.720  0.00  0.00    +0.000 N 
ATOM     20  C   UNL     1       3.934   6.060  18.033  0.00  0.00    +0.000 A 
BRANCH  19  21
ATOM     21  C   UNL     1       5.383   4.054  17.551  0.00  0.00    +0.000 C 
BRANCH  21  22
ATOM     22  C   UNL     1       6.309   4.790  16.657  0.00  0.00    +0.000 A 
ATOM     23  C   UNL     1       6.474   4.682  15.248  0.00  0.00    +0.000 A 
ATOM     24  C   UNL     1       5.805   3.777  14.283  0.00  0.00    +0.000 C 
ATOM     25  N   UNL     1       7.369   5.565  14.790  0.00  0.00    +0.000 NA
ATOM     26  O   UNL     1       7.821   6.254  15.897  0.00  0.00    +0.000 OA
ATOM     27  C   UNL     1       7.192   5.791  17.007  0.00  0.00    +0.000 A 
ATOM     28  C   UNL     1       7.564   6.429  18.285  0.00  0.00    +0.000 C 
ENDBRANCH  21  22
ENDBRANCH  19  21
ENDBRANCH   3  16
TORSDOF 4
ENDMDL
MODEL 5
REMARK VINA RESULT:      -8.1      1.242      1.961
REMARK  Name = 
REMARK  7 active torsions:
REMARK  status: ('A' for Active; 'I' for Inactive)
REMARK    1  A    between atoms: C_1  and  C_2
REMARK    2  A    between atoms: C_6  and  C_7
REMARK    3  A    between atoms: N_9  and  C_10
REMARK    4  A    between atoms: N_13  and  C_14
REMARK    5  A    between atoms: C_14  and  C_15
REMARK    6  A    between atoms: C_16  and  C_17
REMARK    7  A    between atoms: C_20  and  C_21
REMARK                            x       y       z     vdW  Elec       q    Type
REMARK                         _______ _______ _______ _____ _____    ______ ____
ROOT
ATOM      1  C   UNL     1       2.514   7.736  18.625  0.00  0.00    +0.000 C 
ATOM      2  O   UNL     1       3.332   8.022  17.760  0.00  0.00    +0.000 OA
ATOM      3  N   UNL     1       2.353   6.496  19.212  0.00  0.00    +0.000 N 
ATOM      4  H   UNL     1       1.572   6.340  19.836  0.00  0.00    +0.000 HD
ENDROOT
BRANCH   1  10
ATOM      5  C   UNL     1      -1.797  11.859  22.966  0.00  0.00    +0.000 C 
ATOM      6  C   UNL     1      -1.009  11.185  21.909  0.00  0.00    +0.000 A 
ATOM      7  N   UNL     1      -0.055  10.295  22.089  0.00  0.00    +0.000 NA
ATOM      8  C   UNL     1       0.356   9.936  20.830  0.00  0.00    +0.000 A 
ATOM      9  C   UNL     1       1.334   9.008  20.452  0.00  0.00    +0.000 A 
ATOM     10  C   UNL     1       1.540   8.772  19.083  0.00  0.00    +0.000 A 
ATOM     11  C   UNL     1       0.822   9.500  18.120  0.00  0.00    +0.000 A 
ATOM     12  C   UNL     1      -0.145  10.447  18.488  0.00  0.00    +0.000 A 
ATOM     13  C   UNL     1      -0.356  10.624  19.856  0.00  0.00    +0.000 A 
ATOM     14  N   UNL     1      -1.209  11.426  20.570  0.00  0.00    +0.000 N 
ATOM     15  H   UNL     1      -1.883  12.071  20.182  0.00  0.00    +0.000 HD
ENDBRANCH   1  10
BRANCH   3  16
ATOM     16  C   UNL     1       3.114   5.382  18.918  0.00  0.00    +0.000 A 
ATOM     17  C   UNL     1       3.774   4.444  19.737  0.00  0.00    +0.000 A 
ATOM     18  N   UNL     1       4.469   3.545  19.027  0.00  0.00    +0.000 NA
ATOM     19  N   UNL     1       4.238   3.905  17.746  0.00  0.00    +0.000 N 
ATOM     20  C   UNL     1       3.400   4.982  17.635  0.00  0.00    +0.000 A 
BRANCH  19  21
ATOM     21  C   UNL     1       5.015   3.305  16.667  0.00  0.00    +0.000 C 
BRANCH  21  22
ATOM     22  C   UNL     1       6.037   4.230  16.118  0.00  0.00    +0.000 A 
ATOM     23  C   UNL     1       6.343   4.528  14.761  0.00  0.00    +0.000 A 
ATOM     24  C   UNL     1       5.766   3.969  13.515  0.00  0.00    +0.000 C 
ATOM     25  N   UNL     1       7.291   5.468  14.668  0.00  0.00    +0.000 NA
ATOM     26  O   UNL     1       7.635   5.789  15.965  0.00  0.00    +0.000 OA
ATOM     27  C   UNL     1       6.891   5.050  16.827  0.00  0.00    +0.000 A 
ATOM     28  C   UNL     1       7.138   5.275  18.265  0.00  0.00    +0.000 C 
ENDBRANCH  21  22
ENDBRANCH  19  21
ENDBRANCH   3  16
TORSDOF 4
ENDMDL
MODEL 6
REMARK VINA RESULT:      -8.1      1.312      2.329
REMARK  Name = 
REMARK  7 active torsions:
REMARK  status: ('A' for Active; 'I' for Inactive)
REMARK    1  A    between atoms: C_1  and  C_2
REMARK    2  A    between atoms: C_6  and  C_7
REMARK    3  A    between atoms: N_9  and  C_10
REMARK    4  A    between atoms: N_13  and  C_14
REMARK    5  A    between atoms: C_14  and  C_15
REMARK    6  A    between atoms: C_16  and  C_17
REMARK    7  A    between atoms: C_20  and  C_21
REMARK                            x       y       z     vdW  Elec       q    Type
REMARK                         _______ _______ _______ _____ _____    ______ ____
ROOT
ATOM      1  C   UNL     1       1.679   7.204  20.346  0.00  0.00    +0.000 C 
ATOM      2  O   UNL     1       1.280   6.329  21.105  0.00  0.00    +0.000 OA
ATOM      3  N   UNL     1       2.630   7.047  19.356  0.00  0.00    +0.000 N 
ATOM      4  H   UNL     1       2.967   7.861  18.860  0.00  0.00    +0.000 HD
ENDROOT
BRANCH   1  10
ATOM      5  C   UNL     1      -1.450  13.233  23.223  0.00  0.00    +0.000 C 
ATOM      6  C   UNL     1      -0.769  12.171  22.447  0.00  0.00    +0.000 A 
ATOM      7  N   UNL     1      -0.388  10.994  22.896  0.00  0.00    +0.000 NA
ATOM      8  C   UNL     1       0.162  10.348  21.819  0.00  0.00    +0.000 A 
ATOM      9  C   UNL     1       0.705   9.060  21.744  0.00  0.00    +0.000 A 
ATOM     10  C   UNL     1       1.165   8.598  20.500  0.00  0.00    +0.000 A 
ATOM     11  C   UNL     1       1.136   9.437  19.375  0.00  0.00    +0.000 A 
ATOM     12  C   UNL     1       0.615  10.737  19.443  0.00  0.00    +0.000 A 
ATOM     13  C   UNL     1       0.125  11.148  20.684  0.00  0.00    +0.000 A 
ATOM     14  N   UNL     1      -0.459  12.312  21.115  0.00  0.00    +0.000 N 
ATOM     15  H   UNL     1      -0.647  13.127  20.549  0.00  0.00    +0.000 HD
ENDBRANCH   1  10
BRANCH   3  16
ATOM     16  C   UNL     1       3.267   5.858  19.059  0.00  0.00    +0.000 A 
ATOM     17  C   UNL     1       3.791   4.835  19.876  0.00  0.00    +0.000 A 
ATOM     18  N   UNL     1       4.398   3.876  19.166  0.00  0.00    +0.000 NA
ATOM     19  N   UNL     1       4.248   4.283  17.887  0.00  0.00    +0.000 N 
ATOM     20  C   UNL     1       3.543   5.451  17.775  0.00  0.00    +0.000 A 
BRANCH  19  21
ATOM     21  C   UNL     1       4.983   3.617  16.816  0.00  0.00    +0.000 C 
BRANCH  21  22
ATOM     22  C   UNL     1       5.961   4.514  16.154  0.00  0.00    +0.000 A 
ATOM     23  C   UNL     1       6.891   5.418  16.739  0.00  0.00    +0.000 A 
ATOM     24  C   UNL     1       7.115   5.755  18.165  0.00  0.00    +0.000 C 
ATOM     25  N   UNL     1       7.654   6.006  15.810  0.00  0.00    +0.000 NA
ATOM     26  O   UNL     1       7.221   5.511  14.596  0.00  0.00    +0.000 OA
ATOM     27  C   UNL     1       6.214   4.626  14.802  0.00  0.00    +0.000 A 
ATOM     28  C   UNL     1       5.636   3.999  13.597  0.00  0.00    +0.000 C 
ENDBRANCH  21  22
ENDBRANCH  19  21
ENDBRANCH   3  16
TORSDOF 4
ENDMDL
MODEL 7
REMARK VINA RESULT:      -8.0      0.913      1.562
REMARK  Name = 
REMARK  7 active torsions:
REMARK  status: ('A' for Active; 'I' for Inactive)
REMARK    1  A    between atoms: C_1  and  C_2
REMARK    2  A    between atoms: C_6  and  C_7
REMARK    3  A    between atoms: N_9  and  C_10
REMARK    4  A    between atoms: N_13  and  C_14
REMARK    5  A    between atoms: C_14  and  C_15
REMARK    6  A    between atoms: C_16  and  C_17
REMARK    7  A    between atoms: C_20  and  C_21
REMARK                            x       y       z     vdW  Elec       q    Type
REMARK                         _______ _______ _______ _____ _____    ______ ____
ROOT
ATOM      1  C   UNL     1       1.939   8.291  18.750  0.00  0.00    +0.000 C 
ATOM      2  O   UNL     1       2.423   8.391  17.629  0.00  0.00    +0.000 OA
ATOM      3  N   UNL     1       2.107   7.225  19.614  0.00  0.00    +0.000 N 
ATOM      4  H   UNL     1       1.572   7.194  20.472  0.00  0.00    +0.000 HD
ENDROOT
BRANCH   1  10
ATOM      5  C   UNL     1      -1.724  12.790  23.305  0.00  0.00    +0.000 C 
ATOM      6  C   UNL     1      -1.095  12.023  22.206  0.00  0.00    +0.000 A 
ATOM      7  N   UNL     1      -0.114  11.153  22.319  0.00  0.00    +0.000 NA
ATOM      8  C   UNL     1       0.108  10.681  21.050  0.00  0.00    +0.000 A 
ATOM      9  C   UNL     1       1.031   9.723  20.613  0.00  0.00    +0.000 A 
ATOM     10  C   UNL     1       1.031   9.364  19.255  0.00  0.00    +0.000 A 
ATOM     11  C   UNL     1       0.167  10.001  18.351  0.00  0.00    +0.000 A 
ATOM     12  C   UNL     1      -0.746  10.978  18.774  0.00  0.00    +0.000 A 
ATOM     13  C   UNL     1      -0.751  11.278  20.137  0.00  0.00    +0.000 A 
ATOM     14  N   UNL     1      -1.498  12.142  20.897  0.00  0.00    +0.000 N 
ATOM     15  H   UNL     1      -2.231  12.749  20.559  0.00  0.00    +0.000 HD
ENDBRANCH   1  10
BRANCH   3  16
ATOM     16  C   UNL     1       2.871   6.107  19.345  0.00  0.00    +0.000 A 
ATOM     17  C   UNL     1       2.608   4.728  19.468  0.00  0.00    +0.000 A 
ATOM     18  N   UNL     1       3.671   3.975  19.157  0.00  0.00    +0.000 NA
ATOM     19  N   UNL     1       4.614   4.880  18.819  0.00  0.00    +0.000 N 
ATOM     20  C   UNL     1       4.165   6.172  18.883  0.00  0.00    +0.000 A 
BRANCH  19  21
ATOM     21  C   UNL     1       6.000   4.460  18.640  0.00  0.00    +0.000 C 
BRANCH  21  22
ATOM     22  C   UNL     1       6.636   5.086  17.456  0.00  0.00    +0.000 A 
ATOM     23  C   UNL     1       6.535   4.723  16.084  0.00  0.00    +0.000 A 
ATOM     24  C   UNL     1       5.808   3.595  15.454  0.00  0.00    +0.000 C 
ATOM     25  N   UNL     1       7.207   5.575  15.301  0.00  0.00    +0.000 NA
ATOM     26  O   UNL     1       7.778   6.501  16.150  0.00  0.00    +0.000 OA
ATOM     27  C   UNL     1       7.440   6.208  17.432  0.00  0.00    +0.000 A 
ATOM     28  C   UNL     1       7.972   7.110  18.472  0.00  0.00    +0.000 C 
ENDBRANCH  21  22
ENDBRANCH  19  21
ENDBRANCH   3  16
TORSDOF 4
ENDMDL
MODEL 8
REMARK VINA RESULT:      -8.0      1.701      2.025
REMARK  Name = 
REMARK  7 active torsions:
REMARK  status: ('A' for Active; 'I' for Inactive)
REMARK    1  A    between atoms: C_1  and  C_2
REMARK    2  A    between atoms: C_6  and  C_7
REMARK    3  A    between atoms: N_9  and  C_10
REMARK    4  A    between atoms: N_13  and  C_14
REMARK    5  A    between atoms: C_14  and  C_15
REMARK    6  A    between atoms: C_16  and  C_17
REMARK    7  A    between atoms: C_20  and  C_21
REMARK                            x       y       z     vdW  Elec       q    Type
REMARK                         _______ _______ _______ _____ _____    ______ ____
ROOT
ATOM      1  C   UNL     1       1.934   6.901  20.149  0.00  0.00    +0.000 C 
ATOM      2  O   UNL     1       1.521   5.992  20.858  0.00  0.00    +0.000 OA
ATOM      3  N   UNL     1       2.916   6.795  19.183  0.00  0.00    +0.000 N 
ATOM      4  H   UNL     1       3.260   7.633  18.732  0.00  0.00    +0.000 HD
ENDROOT
BRANCH   1  10
ATOM      5  C   UNL     1       0.051  13.921  18.888  0.00  0.00    +0.000 C 
ATOM      6  C   UNL     1       0.315  12.545  19.365  0.00  0.00    +0.000 A 
ATOM      7  N   UNL     1       0.741  11.532  18.640  0.00  0.00    +0.000 NA
ATOM      8  C   UNL     1       0.868  10.482  19.512  0.00  0.00    +0.000 A 
ATOM      9  C   UNL     1       1.304   9.175  19.263  0.00  0.00    +0.000 A 
ATOM     10  C   UNL     1       1.399   8.282  20.344  0.00  0.00    +0.000 A 
ATOM     11  C   UNL     1       1.005   8.681  21.632  0.00  0.00    +0.000 A 
ATOM     12  C   UNL     1       0.547   9.981  21.889  0.00  0.00    +0.000 A 
ATOM     13  C   UNL     1       0.507  10.854  20.801  0.00  0.00    +0.000 A 
ATOM     14  N   UNL     1       0.143  12.171  20.677  0.00  0.00    +0.000 N 
ATOM     15  H   UNL     1      -0.179  12.771  21.423  0.00  0.00    +0.000 HD
ENDBRANCH   1  10
BRANCH   3  16
ATOM     16  C   UNL     1       3.575   5.627  18.857  0.00  0.00    +0.000 A 
ATOM     17  C   UNL     1       4.193   4.636  19.647  0.00  0.00    +0.000 A 
ATOM     18  N   UNL     1       4.785   3.689  18.909  0.00  0.00    +0.000 NA
ATOM     19  N   UNL     1       4.531   4.071  17.639  0.00  0.00    +0.000 N 
ATOM     20  C   UNL     1       3.776   5.211  17.562  0.00  0.00    +0.000 A 
BRANCH  19  21
ATOM     21  C   UNL     1       5.214   3.417  16.527  0.00  0.00    +0.000 C 
BRANCH  21  22
ATOM     22  C   UNL     1       6.181   4.312  15.847  0.00  0.00    +0.000 A 
ATOM     23  C   UNL     1       6.409   4.494  14.454  0.00  0.00    +0.000 A 
ATOM     24  C   UNL     1       5.785   3.814  13.294  0.00  0.00    +0.000 C 
ATOM     25  N   UNL     1       7.325   5.444  14.228  0.00  0.00    +0.000 NA
ATOM     26  O   UNL     1       7.726   5.886  15.472  0.00  0.00    +0.000 OA
ATOM     27  C   UNL     1       7.048   5.211  16.434  0.00  0.00    +0.000 A 
ATOM     28  C   UNL     1       7.361   5.568  17.831  0.00  0.00    +0.000 C 
ENDBRANCH  21  22
ENDBRANCH  19  21
ENDBRANCH   3  16
TORSDOF 4
ENDMDL
MODEL 9
REMARK VINA RESULT:      -7.9      1.249      2.369
REMARK  Name = 
REMARK  7 active torsions:
REMARK  status: ('A' for Active; 'I' for Inactive)
REMARK    1  A    between atoms: C_1  and  C_2
REMARK    2  A    between atoms: C_6  and  C_7
REMARK    3  A    between atoms: N_9  and  C_10
REMARK    4  A    between atoms: N_13  and  C_14
REMARK    5  A    between atoms: C_14  and  C_15
REMARK    6  A    between atoms: C_16  and  C_17
REMARK    7  A    between atoms: C_20  and  C_21
REMARK                            x       y       z     vdW  Elec       q    Type
REMARK                         _______ _______ _______ _____ _____    ______ ____
ROOT
ATOM      1  C   UNL     1       2.328   7.831  18.637  0.00  0.00    +0.000 C 
ATOM      2  O   UNL     1       2.909   7.975  17.568  0.00  0.00    +0.000 OA
ATOM      3  N   UNL     1       2.350   6.696  19.426  0.00  0.00    +0.000 N 
ATOM      4  H   UNL     1       1.745   6.643  20.234  0.00  0.00    +0.000 HD
ENDROOT
BRANCH   1  10
ATOM      5  C   UNL     1      -1.885  11.910  23.112  0.00  0.00    +0.000 C 
ATOM      6  C   UNL     1      -1.070  11.280  22.048  0.00  0.00    +0.000 A 
ATOM      7  N   UNL     1      -0.281  10.235  22.180  0.00  0.00    +0.000 NA
ATOM      8  C   UNL     1       0.234  10.001  20.931  0.00  0.00    +0.000 A 
ATOM      9  C   UNL     1       1.113   8.995  20.512  0.00  0.00    +0.000 A 
ATOM     10  C   UNL     1       1.458   8.930  19.151  0.00  0.00    +0.000 A 
ATOM     11  C   UNL     1       0.977   9.893  18.249  0.00  0.00    +0.000 A 
ATOM     12  C   UNL     1       0.113  10.917  18.662  0.00  0.00    +0.000 A 
ATOM     13  C   UNL     1      -0.245  10.925  20.011  0.00  0.00    +0.000 A 
ATOM     14  N   UNL     1      -1.062  11.740  20.752  0.00  0.00    +0.000 N 
ATOM     15  H   UNL     1      -1.584  12.533  20.405  0.00  0.00    +0.000 HD
ENDBRANCH   1  10
BRANCH   3  16
ATOM     16  C   UNL     1       3.055   5.547  19.130  0.00  0.00    +0.000 A 
ATOM     17  C   UNL     1       3.546   4.502  19.941  0.00  0.00    +0.000 A 
ATOM     18  N   UNL     1       4.248   3.601  19.243  0.00  0.00    +0.000 NA
ATOM     19  N   UNL     1       4.193   4.066  17.976  0.00  0.00    +0.000 N 
ATOM     20  C   UNL     1       3.456   5.214  17.858  0.00  0.00    +0.000 A 
BRANCH  19  21
ATOM     21  C   UNL     1       5.043   3.480  16.944  0.00  0.00    +0.000 C 
BRANCH  21  22
ATOM     22  C   UNL     1       6.007   4.455  16.380  0.00  0.00    +0.000 A 
ATOM     23  C   UNL     1       6.880   5.351  17.058  0.00  0.00    +0.000 A 
ATOM     24  C   UNL     1       7.040   5.600  18.511  0.00  0.00    +0.000 C 
ATOM     25  N   UNL     1       7.651   6.029  16.199  0.00  0.00    +0.000 NA
ATOM     26  O   UNL     1       7.281   5.601  14.940  0.00  0.00    +0.000 OA
ATOM     27  C   UNL     1       6.302   4.667  15.048  0.00  0.00    +0.000 A 
ATOM     28  C   UNL     1       5.793   4.102  13.784  0.00  0.00    +0.000 C 
ENDBRANCH  21  22
ENDBRANCH  19  21
ENDBRANCH   3  16
TORSDOF 4
ENDMDL
