MODEL 1
REMARK VINA RESULT:      -8.3      0.000      0.000
REMARK  Name = 
REMARK  8 active torsions:
REMARK  status: ('A' for Active; 'I' for Inactive)
REMARK    1  A    between atoms: N_1  and  S_2
REMARK    2  A    between atoms: S_2  and  C_5
REMARK    3  A    between atoms: C_8  and  N_9
REMARK    4  A    between atoms: N_9  and  S_10
REMARK    5  A    between atoms: S_10  and  C_13
REMARK    6  A    between atoms: C_13  and  C_14
REMARK    7  A    between atoms: C_14  and  N_15
REMARK    8  A    between atoms: N_18  and  C_19
REMARK                            x       y       z     vdW  Elec       q    Type
REMARK                         _______ _______ _______ _____ _____    ______ ____
ROOT
ATOM      1  S   UNL     1       6.682   5.881  16.483  0.00  0.00    +0.000 S 
ATOM      2  O   UNL     1       7.653   5.692  15.425  0.00  0.00    +0.000 OA
ATOM      3  O   UNL     1       5.504   6.693  16.276  0.00  0.00    +0.000 OA
ENDROOT
BRANCH   1   4
ATOM      4  N   UNL     1       6.237   4.318  16.951  0.00  0.00    +0.000 N 
ATOM      5  H   UNL     1       6.411   3.678  16.172  0.00  0.00    +0.000 HD
BRANCH   4   9
ATOM      6  C   UNL     1       2.585   3.660  18.930  0.00  0.00    +0.000 A 
ATOM      7  C   UNL     1       2.658   3.454  17.550  0.00  0.00    +0.000 A 
ATOM      8  C   UNL     1       3.866   3.693  16.884  0.00  0.00    +0.000 A 
ATOM      9  C   UNL     1       4.982   4.136  17.600  0.00  0.00    +0.000 A 
ATOM     10  C   UNL     1       4.891   4.377  18.970  0.00  0.00    +0.000 A 
ATOM     11  C   UNL     1       3.690   4.137  19.641  0.00  0.00    +0.000 A 
BRANCH   6  12
ATOM     12  S   UNL     1       1.096   3.270  19.804  0.00  0.00    +0.000 S 
ATOM     13  O   UNL     1       0.279   2.411  18.981  0.00  0.00    +0.000 OA
ATOM     14  O   UNL     1       0.580   4.469  20.434  0.00  0.00    +0.000 OA
BRANCH  12  15
ATOM     15  N   UNL     1       1.667   2.323  21.068  0.00  0.00    +0.000 NA
ATOM     16  H   UNL     1       0.920   2.181  21.749  0.00  0.00    +0.000 HD
ATOM     17  H   UNL     1       2.508   2.738  21.469  0.00  0.00    +0.000 HD
ENDBRANCH  12  15
ENDBRANCH   6  12
ENDBRANCH   4   9
ENDBRANCH   1   4
BRANCH   1  18
ATOM     18  C   UNL     1       7.541   6.462  17.933  0.00  0.00    +0.000 C 
BRANCH  18  19
ATOM     19  C   UNL     1       7.993   7.908  17.737  0.00  0.00    +0.000 C 
BRANCH  19  20
ATOM     20  N   UNL     1       8.737   8.451  18.880  0.00  0.00    +0.000 N 
ATOM     21  C   UNL     1       8.920   9.815  18.936  0.00  0.00    +0.000 C 
ATOM     22  O   UNL     1       8.523  10.540  18.036  0.00  0.00    +0.000 OA
ATOM     23  N   UNL     1       9.613  10.227  20.048  0.00  0.00    +0.000 N 
ATOM     24  H   UNL     1       8.551   8.021  19.774  0.00  0.00    +0.000 HD
ATOM     25  H   UNL     1      10.144   9.525  20.554  0.00  0.00    +0.000 HD
BRANCH  23  26
ATOM     26  C   UNL     1       9.932  11.581  20.331  0.00  0.00    +0.000 A 
ATOM     27  C   UNL     1      10.975  12.259  19.693  0.00  0.00    +0.000 A 
ATOM     28  C   UNL     1      11.296  13.575  20.045  0.00  0.00    +0.000 A 
ATOM     29  C   UNL     1      10.557  14.222  21.021  0.00  0.00    +0.000 A 
ATOM     30  F   UNL     1      10.872  15.479  21.357  0.00  0.00    +0.000 F 
ATOM     31  C   UNL     1       9.493  13.585  21.649  0.00  0.00    +0.000 A 
ATOM     32  C   UNL     1       9.187  12.272  21.298  0.00  0.00    +0.000 A 
ATOM     33  F   UNL     1       8.172  11.655  21.922  0.00  0.00    +0.000 F 
ENDBRANCH  23  26
ENDBRANCH  19  20
ENDBRANCH  18  19
ENDBRANCH   1  18
TORSDOF 8
ENDMDL
MODEL 2
REMARK VINA RESULT:      -8.2      1.551      1.949
REMARK  Name = 
REMARK  8 active torsions:
REMARK  status: ('A' for Active; 'I' for Inactive)
REMARK    1  A    between atoms: N_1  and  S_2
REMARK    2  A    between atoms: S_2  and  C_5
REMARK    3  A    between atoms: C_8  and  N_9
REMARK    4  A    between atoms: N_9  and  S_10
REMARK    5  A    between atoms: S_10  and  C_13
REMARK    6  A    between atoms: C_13  and  C_14
REMARK    7  A    between atoms: C_14  and  N_15
REMARK    8  A    between atoms: N_18  and  C_19
REMARK                            x       y       z     vdW  Elec       q    Type
REMARK                         _______ _______ _______ _____ _____    ______ ____
ROOT
ATOM      1  S   UNL     1       7.236   4.988  16.618  0.00  0.00    +0.000 S 
ATOM      2  O   UNL     1       8.186   4.351  17.506  0.00  0.00    +0.000 OA
ATOM      3  O   UNL     1       7.632   5.439  15.302  0.00  0.00    +0.000 OA
ENDROOT
BRANCH   1   4
ATOM      4  N   UNL     1       5.953   3.892  16.495  0.00  0.00    +0.000 N 
ATOM      5  H   UNL     1       5.608   3.893  15.532  0.00  0.00    +0.000 HD
BRANCH   4   9
ATOM      6  C   UNL     1       2.931   3.851  19.420  0.00  0.00    +0.000 A 
ATOM      7  C   UNL     1       2.650   4.383  18.158  0.00  0.00    +0.000 A 
ATOM      8  C   UNL     1       3.659   4.418  17.189  0.00  0.00    +0.000 A 
ATOM      9  C   UNL     1       4.933   3.927  17.490  0.00  0.00    +0.000 A 
ATOM     10  C   UNL     1       5.218   3.435  18.763  0.00  0.00    +0.000 A 
ATOM     11  C   UNL     1       4.214   3.393  19.733  0.00  0.00    +0.000 A 
BRANCH   6  12
ATOM     12  S   UNL     1       1.641   3.708  20.624  0.00  0.00    +0.000 S 
ATOM     13  O   UNL     1       2.228   3.415  21.909  0.00  0.00    +0.000 OA
ATOM     14  O   UNL     1       0.550   2.932  20.069  0.00  0.00    +0.000 OA
BRANCH  12  15
ATOM     15  N   UNL     1       1.062   5.282  20.708  0.00  0.00    +0.000 NA
ATOM     16  H   UNL     1       0.436   5.455  19.920  0.00  0.00    +0.000 HD
ATOM     17  H   UNL     1       1.838   5.942  20.762  0.00  0.00    +0.000 HD
ENDBRANCH  12  15
ENDBRANCH   6  12
ENDBRANCH   4   9
ENDBRANCH   1   4
BRANCH   1  18
ATOM     18  C   UNL     1       6.472   6.342  17.491  0.00  0.00    +0.000 C 
BRANCH  18  19
ATOM     19  C   UNL     1       7.199   7.649  17.180  0.00  0.00    +0.000 C 
BRANCH  19  20
ATOM     20  N   UNL     1       8.224   8.001  18.169  0.00  0.00    +0.000 N 
ATOM     21  C   UNL     1       8.456   9.339  18.404  0.00  0.00    +0.000 C 
ATOM     22  O   UNL     1       7.866  10.200  17.768  0.00  0.00    +0.000 OA
ATOM     23  N   UNL     1       9.420   9.566  19.354  0.00  0.00    +0.000 N 
ATOM     24  H   UNL     1       8.259   7.424  18.996  0.00  0.00    +0.000 HD
ATOM     25  H   UNL     1      10.041   8.796  19.583  0.00  0.00    +0.000 HD
BRANCH  23  26
ATOM     26  C   UNL     1       9.842  10.858  19.768  0.00  0.00    +0.000 A 
ATOM     27  C   UNL     1       9.422  11.438  20.969  0.00  0.00    +0.000 A 
ATOM     28  C   UNL     1       9.812  12.739  21.311  0.00  0.00    +0.000 A 
ATOM     29  C   UNL     1      10.642  13.449  20.461  0.00  0.00    +0.000 A 
ATOM     30  F   UNL     1      11.008  14.694  20.791  0.00  0.00    +0.000 F 
ATOM     31  C   UNL     1      11.102  12.885  19.277  0.00  0.00    +0.000 A 
ATOM     32  C   UNL     1      10.701  11.594  18.941  0.00  0.00    +0.000 A 
ATOM     33  F   UNL     1      11.131  11.063  17.786  0.00  0.00    +0.000 F 
ENDBRANCH  23  26
ENDBRANCH  19  20
ENDBRANCH  18  19
ENDBRANCH   1  18
TORSDOF 8
ENDMDL
MODEL 3
REMARK VINA RESULT:      -7.9      1.167      1.366
REMARK  Name = 
REMARK  8 active torsions:
REMARK  status: ('A' for Active; 'I' for Inactive)
REMARK    1  A    between atoms: N_1  and  S_2
REMARK    2  A    between atoms: S_2  and  C_5
REMARK    3  A    between atoms: C_8  and  N_9
REMARK    4  A    between atoms: N_9  and  S_10
REMARK    5  A    between atoms: S_10  and  C_13
REMARK    6  A    between atoms: C_13  and  C_14
REMARK    7  A    between atoms: C_14  and  N_15
REMARK    8  A    between atoms: N_18  and  C_19
REMARK                            x       y       z     vdW  Elec       q    Type
REMARK                         _______ _______ _______ _____ _____    ______ ____
ROOT
ATOM      1  S   UNL     1       7.294   5.114  16.639  0.00  0.00    +0.000 S 
ATOM      2  O   UNL     1       8.123   4.111  17.274  0.00  0.00    +0.000 OA
ATOM      3  O   UNL     1       7.716   5.768  15.421  0.00  0.00    +0.000 OA
ENDROOT
BRANCH   1   4
ATOM      4  N   UNL     1       5.797   4.361  16.407  0.00  0.00    +0.000 N 
ATOM      5  H   UNL     1       5.401   4.680  15.519  0.00  0.00    +0.000 HD
BRANCH   4   9
ATOM      6  C   UNL     1       3.049   4.141  19.583  0.00  0.00    +0.000 A 
ATOM      7  C   UNL     1       2.710   4.868  18.438  0.00  0.00    +0.000 A 
ATOM      8  C   UNL     1       3.631   4.961  17.388  0.00  0.00    +0.000 A 
ATOM      9  C   UNL     1       4.876   4.334  17.493  0.00  0.00    +0.000 A 
ATOM     10  C   UNL     1       5.223   3.644  18.653  0.00  0.00    +0.000 A 
ATOM     11  C   UNL     1       4.307   3.543  19.703  0.00  0.00    +0.000 A 
BRANCH   6  12
ATOM     12  S   UNL     1       1.861   3.929  20.878  0.00  0.00    +0.000 S 
ATOM     13  O   UNL     1       1.005   5.089  20.926  0.00  0.00    +0.000 OA
ATOM     14  O   UNL     1       2.523   3.397  22.053  0.00  0.00    +0.000 OA
BRANCH  12  15
ATOM     15  N   UNL     1       0.924   2.665  20.292  0.00  0.00    +0.000 NA
ATOM     16  H   UNL     1       1.423   1.783  20.426  0.00  0.00    +0.000 HD
ATOM     17  H   UNL     1       0.662   2.838  19.322  0.00  0.00    +0.000 HD
ENDBRANCH  12  15
ENDBRANCH   6  12
ENDBRANCH   4   9
ENDBRANCH   1   4
BRANCH   1  18
ATOM     18  C   UNL     1       6.888   6.356  17.853  0.00  0.00    +0.000 C 
BRANCH  18  19
ATOM     19  C   UNL     1       7.535   7.689  17.482  0.00  0.00    +0.000 C 
BRANCH  19  20
ATOM     20  N   UNL     1       8.444   8.208  18.512  0.00  0.00    +0.000 N 
ATOM     21  C   UNL     1       8.748   9.551  18.481  0.00  0.00    +0.000 C 
ATOM     22  O   UNL     1       8.319  10.273  17.592  0.00  0.00    +0.000 OA
ATOM     23  N   UNL     1       9.591   9.943  19.491  0.00  0.00    +0.000 N 
ATOM     24  H   UNL     1       8.321   7.833  19.441  0.00  0.00    +0.000 HD
ATOM     25  H   UNL     1      10.112   9.216  19.972  0.00  0.00    +0.000 HD
BRANCH  23  26
ATOM     26  C   UNL     1      10.055  11.273  19.671  0.00  0.00    +0.000 A 
ATOM     27  C   UNL     1      11.141  11.795  18.963  0.00  0.00    +0.000 A 
ATOM     28  C   UNL     1      11.605  13.091  19.215  0.00  0.00    +0.000 A 
ATOM     29  C   UNL     1      10.966  13.875  20.160  0.00  0.00    +0.000 A 
ATOM     30  F   UNL     1      11.417  15.112  20.400  0.00  0.00    +0.000 F 
ATOM     31  C   UNL     1       9.863  13.394  20.856  0.00  0.00    +0.000 A 
ATOM     32  C   UNL     1       9.414  12.100  20.605  0.00  0.00    +0.000 A 
ATOM     33  F   UNL     1       8.361  11.634  21.295  0.00  0.00    +0.000 F 
ENDBRANCH  23  26
ENDBRANCH  19  20
ENDBRANCH  18  19
ENDBRANCH   1  18
TORSDOF 8
ENDMDL
MODEL 4
REMARK VINA RESULT:      -7.9      4.536      6.953
REMARK  Name = 
REMARK  8 active torsions:
REMARK  status: ('A' for Active; 'I' for Inactive)
REMARK    1  A    between atoms: N_1  and  S_2
REMARK    2  A    between atoms: S_2  and  C_5
REMARK    3  A    between atoms: C_8  and  N_9
REMARK    4  A    between atoms: N_9  and  S_10
REMARK    5  A    between atoms: S_10  and  C_13
REMARK    6  A    between atoms: C_13  and  C_14
REMARK    7  A    between atoms: C_14  and  N_15
REMARK    8  A    between atoms: N_18  and  C_19
REMARK                            x       y       z     vdW  Elec       q    Type
REMARK                         _______ _______ _______ _____ _____    ______ ____
ROOT
ATOM      1  S   UNL     1       1.655   3.654  19.221  0.00  0.00    +0.000 S 
ATOM      2  O   UNL     1       0.546   3.743  20.148  0.00  0.00    +0.000 OA
ATOM      3  O   UNL     1       1.444   3.750  17.794  0.00  0.00    +0.000 OA
ENDROOT
BRANCH   1   4
ATOM      4  N   UNL     1       2.746   4.843  19.730  0.00  0.00    +0.000 N 
ATOM      5  H   UNL     1       3.063   4.617  20.676  0.00  0.00    +0.000 HD
BRANCH   4   9
ATOM      6  C   UNL     1       1.585   8.841  19.134  0.00  0.00    +0.000 A 
ATOM      7  C   UNL     1       2.223   8.155  18.097  0.00  0.00    +0.000 A 
ATOM      8  C   UNL     1       2.630   6.832  18.298  0.00  0.00    +0.000 A 
ATOM      9  C   UNL     1       2.400   6.210  19.530  0.00  0.00    +0.000 A 
ATOM     10  C   UNL     1       1.799   6.912  20.573  0.00  0.00    +0.000 A 
ATOM     11  C   UNL     1       1.386   8.232  20.376  0.00  0.00    +0.000 A 
BRANCH   6  12
ATOM     12  S   UNL     1       0.974  10.481  18.864  0.00  0.00    +0.000 S 
ATOM     13  O   UNL     1       2.000  11.265  18.221  0.00  0.00    +0.000 OA
ATOM     14  O   UNL     1       0.274  10.932  20.050  0.00  0.00    +0.000 OA
BRANCH  12  15
ATOM     15  N   UNL     1      -0.226  10.225  17.718  0.00  0.00    +0.000 NA
ATOM     16  H   UNL     1      -1.128  10.512  18.102  0.00  0.00    +0.000 HD
ATOM     17  H   UNL     1      -0.212   9.255  17.400  0.00  0.00    +0.000 HD
ENDBRANCH  12  15
ENDBRANCH   6  12
ENDBRANCH   4   9
ENDBRANCH   1   4
BRANCH   1  18
ATOM     18  C   UNL     1       2.560   2.159  19.574  0.00  0.00    +0.000 C 
BRANCH  18  19
ATOM     19  C   UNL     1       3.327   1.699  18.334  0.00  0.00    +0.000 C 
BRANCH  19  20
ATOM     20  N   UNL     1       3.878   2.804  17.542  0.00  0.00    +0.000 N 
ATOM     21  C   UNL     1       4.838   3.599  18.130  0.00  0.00    +0.000 C 
ATOM     22  O   UNL     1       5.175   3.422  19.291  0.00  0.00    +0.000 OA
ATOM     23  N   UNL     1       5.302   4.594  17.305  0.00  0.00    +0.000 N 
ATOM     24  H   UNL     1       4.045   2.609  16.565  0.00  0.00    +0.000 HD
ATOM     25  H   UNL     1       4.741   4.826  16.492  0.00  0.00    +0.000 HD
BRANCH  23  26
ATOM     26  C   UNL     1       6.288   5.545  17.681  0.00  0.00    +0.000 A 
ATOM     27  C   UNL     1       7.250   5.285  18.662  0.00  0.00    +0.000 A 
ATOM     28  C   UNL     1       8.166   6.272  19.046  0.00  0.00    +0.000 A 
ATOM     29  C   UNL     1       8.133   7.512  18.431  0.00  0.00    +0.000 A 
ATOM     30  F   UNL     1       9.008   8.453  18.806  0.00  0.00    +0.000 F 
ATOM     31  C   UNL     1       7.209   7.787  17.430  0.00  0.00    +0.000 A 
ATOM     32  C   UNL     1       6.296   6.802  17.061  0.00  0.00    +0.000 A 
ATOM     33  F   UNL     1       5.393   7.081  16.109  0.00  0.00    +0.000 F 
ENDBRANCH  23  26
ENDBRANCH  19  20
ENDBRANCH  18  19
ENDBRANCH   1  18
TORSDOF 8
ENDMDL
MODEL 5
REMARK VINA RESULT:      -7.8      1.708      2.019
REMARK  Name = 
REMARK  8 active torsions:
REMARK  status: ('A' for Active; 'I' for Inactive)
REMARK    1  A    between atoms: N_1  and  S_2
REMARK    2  A    between atoms: S_2  and  C_5
REMARK    3  A    between atoms: C_8  and  N_9
REMARK    4  A    between atoms: N_9  and  S_10
REMARK    5  A    between atoms: S_10  and  C_13
REMARK    6  A    between atoms: C_13  and  C_14
REMARK    7  A    between atoms: C_14  and  N_15
REMARK    8  A    between atoms: N_18  and  C_19
REMARK                            x       y       z     vdW  Elec       q    Type
REMARK                         _______ _______ _______ _____ _____    ______ ____
ROOT
ATOM      1  S   UNL     1       6.733   5.863  16.713  0.00  0.00    +0.000 S 
ATOM      2  O   UNL     1       6.822   4.867  17.761  0.00  0.00    +0.000 OA
ATOM      3  O   UNL     1       7.734   5.944  15.674  0.00  0.00    +0.000 OA
ENDROOT
BRANCH   1   4
ATOM      4  N   UNL     1       5.201   5.641  16.029  0.00  0.00    +0.000 N 
ATOM      5  H   UNL     1       4.928   6.499  15.544  0.00  0.00    +0.000 HD
BRANCH   4   9
ATOM      6  C   UNL     1       2.263   3.953  18.520  0.00  0.00    +0.000 A 
ATOM      7  C   UNL     1       2.983   3.122  17.657  0.00  0.00    +0.000 A 
ATOM      8  C   UNL     1       3.946   3.683  16.812  0.00  0.00    +0.000 A 
ATOM      9  C   UNL     1       4.177   5.062  16.833  0.00  0.00    +0.000 A 
ATOM     10  C   UNL     1       3.428   5.890  17.668  0.00  0.00    +0.000 A 
ATOM     11  C   UNL     1       2.468   5.336  18.517  0.00  0.00    +0.000 A 
BRANCH   6  12
ATOM     12  S   UNL     1       1.111   3.250  19.666  0.00  0.00    +0.000 S 
ATOM     13  O   UNL     1       0.213   2.374  18.954  0.00  0.00    +0.000 OA
ATOM     14  O   UNL     1       0.643   4.282  20.570  0.00  0.00    +0.000 OA
BRANCH  12  15
ATOM     15  N   UNL     1       2.101   2.266  20.601  0.00  0.00    +0.000 NA
ATOM     16  H   UNL     1       2.374   1.445  20.057  0.00  0.00    +0.000 HD
ATOM     17  H   UNL     1       1.641   2.034  21.481  0.00  0.00    +0.000 HD
ENDBRANCH  12  15
ENDBRANCH   6  12
ENDBRANCH   4   9
ENDBRANCH   1   4
BRANCH   1  18
ATOM     18  C   UNL     1       6.558   7.465  17.477  0.00  0.00    +0.000 C 
BRANCH  18  19
ATOM     19  C   UNL     1       7.922   7.992  17.918  0.00  0.00    +0.000 C 
BRANCH  19  20
ATOM     20  N   UNL     1       8.160   9.391  17.543  0.00  0.00    +0.000 N 
ATOM     21  C   UNL     1       8.878  10.176  18.418  0.00  0.00    +0.000 C 
ATOM     22  O   UNL     1       9.254   9.736  19.495  0.00  0.00    +0.000 OA
ATOM     23  N   UNL     1       9.062  11.462  17.973  0.00  0.00    +0.000 N 
ATOM     24  H   UNL     1       8.370   9.560  16.570  0.00  0.00    +0.000 HD
ATOM     25  H   UNL     1       8.456  11.788  17.226  0.00  0.00    +0.000 HD
BRANCH  23  26
ATOM     26  C   UNL     1       9.763  12.463  18.696  0.00  0.00    +0.000 A 
ATOM     27  C   UNL     1       9.133  13.314  19.610  0.00  0.00    +0.000 A 
ATOM     28  C   UNL     1       9.850  14.328  20.255  0.00  0.00    +0.000 A 
ATOM     29  C   UNL     1      11.203  14.476  20.005  0.00  0.00    +0.000 A 
ATOM     30  F   UNL     1      11.882  15.450  20.622  0.00  0.00    +0.000 F 
ATOM     31  C   UNL     1      11.863  13.624  19.127  0.00  0.00    +0.000 A 
ATOM     32  C   UNL     1      11.139  12.623  18.482  0.00  0.00    +0.000 A 
ATOM     33  F   UNL     1      11.777  11.817  17.620  0.00  0.00    +0.000 F 
ENDBRANCH  23  26
ENDBRANCH  19  20
ENDBRANCH  18  19
ENDBRANCH   1  18
TORSDOF 8
ENDMDL
MODEL 6
REMARK VINA RESULT:      -7.7      1.567      1.940
REMARK  Name = 
REMARK  8 active torsions:
REMARK  status: ('A' for Active; 'I' for Inactive)
REMARK    1  A    between atoms: N_1  and  S_2
REMARK    2  A    between atoms: S_2  and  C_5
REMARK    3  A    between atoms: C_8  and  N_9
REMARK    4  A    between atoms: N_9  and  S_10
REMARK    5  A    between atoms: S_10  and  C_13
REMARK    6  A    between atoms: C_13  and  C_14
REMARK    7  A    between atoms: C_14  and  N_15
REMARK    8  A    between atoms: N_18  and  C_19
REMARK                            x       y       z     vdW  Elec       q    Type
REMARK                         _______ _______ _______ _____ _____    ______ ____
ROOT
ATOM      1  S   UNL     1       6.806   5.136  16.155  0.00  0.00    +0.000 S 
ATOM      2  O   UNL     1       6.571   3.714  16.304  0.00  0.00    +0.000 OA
ATOM      3  O   UNL     1       7.516   5.657  15.008  0.00  0.00    +0.000 OA
ENDROOT
BRANCH   1   4
ATOM      4  N   UNL     1       5.273   5.845  16.262  0.00  0.00    +0.000 N 
ATOM      5  H   UNL     1       5.384   6.840  16.469  0.00  0.00    +0.000 HD
BRANCH   4   9
ATOM      6  C   UNL     1       2.427   3.838  18.620  0.00  0.00    +0.000 A 
ATOM      7  C   UNL     1       2.657   3.402  17.312  0.00  0.00    +0.000 A 
ATOM      8  C   UNL     1       3.588   4.081  16.517  0.00  0.00    +0.000 A 
ATOM      9  C   UNL     1       4.273   5.185  17.033  0.00  0.00    +0.000 A 
ATOM     10  C   UNL     1       4.010   5.639  18.324  0.00  0.00    +0.000 A 
ATOM     11  C   UNL     1       3.086   4.963  19.124  0.00  0.00    +0.000 A 
BRANCH   6  12
ATOM     12  S   UNL     1       1.327   2.933  19.672  0.00  0.00    +0.000 S 
ATOM     13  O   UNL     1       2.102   2.212  20.652  0.00  0.00    +0.000 OA
ATOM     14  O   UNL     1       0.304   2.300  18.864  0.00  0.00    +0.000 OA
BRANCH  12  15
ATOM     15  N   UNL     1       0.536   4.165  20.495  0.00  0.00    +0.000 NA
ATOM     16  H   UNL     1      -0.243   3.771  21.026  0.00  0.00    +0.000 HD
ATOM     17  H   UNL     1       0.253   4.900  19.847  0.00  0.00    +0.000 HD
ENDBRANCH  12  15
ENDBRANCH   6  12
ENDBRANCH   4   9
ENDBRANCH   1   4
BRANCH   1  18
ATOM     18  C   UNL     1       7.585   5.734  17.642  0.00  0.00    +0.000 C 
BRANCH  18  19
ATOM     19  C   UNL     1       7.430   7.250  17.748  0.00  0.00    +0.000 C 
BRANCH  19  20
ATOM     20  N   UNL     1       8.408   7.880  18.643  0.00  0.00    +0.000 N 
ATOM     21  C   UNL     1       8.534   9.251  18.591  0.00  0.00    +0.000 C 
ATOM     22  O   UNL     1       7.893   9.912  17.788  0.00  0.00    +0.000 OA
ATOM     23  N   UNL     1       9.461   9.747  19.475  0.00  0.00    +0.000 N 
ATOM     24  H   UNL     1       8.470   7.494  19.573  0.00  0.00    +0.000 HD
ATOM     25  H   UNL     1      10.133   9.092  19.862  0.00  0.00    +0.000 HD
BRANCH  23  26
ATOM     26  C   UNL     1       9.776  11.125  19.609  0.00  0.00    +0.000 A 
ATOM     27  C   UNL     1       9.418  11.874  20.733  0.00  0.00    +0.000 A 
ATOM     28  C   UNL     1       9.694  13.245  20.799  0.00  0.00    +0.000 A 
ATOM     29  C   UNL     1      10.351  13.861  19.748  0.00  0.00    +0.000 A 
ATOM     30  F   UNL     1      10.608  15.173  19.814  0.00  0.00    +0.000 F 
ATOM     31  C   UNL     1      10.749  13.135  18.631  0.00  0.00    +0.000 A 
ATOM     32  C   UNL     1      10.461  11.773  18.571  0.00  0.00    +0.000 A 
ATOM     33  F   UNL     1      10.829  11.081  17.482  0.00  0.00    +0.000 F 
ENDBRANCH  23  26
ENDBRANCH  19  20
ENDBRANCH  18  19
ENDBRANCH   1  18
TORSDOF 8
ENDMDL
MODEL 7
REMARK VINA RESULT:      -7.7      1.161      1.238
REMARK  Name = 
REMARK  8 active torsions:
REMARK  status: ('A' for Active; 'I' for Inactive)
REMARK    1  A    between atoms: N_1  and  S_2
REMARK    2  A    between atoms: S_2  and  C_5
REMARK    3  A    between atoms: C_8  and  N_9
REMARK    4  A    between atoms: N_9  and  S_10
REMARK    5  A    between atoms: S_10  and  C_13
REMARK    6  A    between atoms: C_13  and  C_14
REMARK    7  A    between atoms: C_14  and  N_15
REMARK    8  A    between atoms: N_18  and  C_19
REMARK                            x       y       z     vdW  Elec       q    Type
REMARK                         _______ _______ _______ _____ _____    ______ ____
ROOT
ATOM      1  S   UNL     1       7.028   5.793  17.152  0.00  0.00    +0.000 S 
ATOM      2  O   UNL     1       6.894   4.384  17.460  0.00  0.00    +0.000 OA
ATOM      3  O   UNL     1       7.592   6.231  15.894  0.00  0.00    +0.000 OA
ENDROOT
BRANCH   1   4
ATOM      4  N   UNL     1       5.473   6.432  17.346  0.00  0.00    +0.000 N 
ATOM      5  H   UNL     1       5.540   7.314  17.860  0.00  0.00    +0.000 HD
BRANCH   4   9
ATOM      6  C   UNL     1       2.504   3.790  18.721  0.00  0.00    +0.000 A 
ATOM      7  C   UNL     1       2.868   3.763  17.372  0.00  0.00    +0.000 A 
ATOM      8  C   UNL     1       3.840   4.655  16.906  0.00  0.00    +0.000 A 
ATOM      9  C   UNL     1       4.434   5.564  17.787  0.00  0.00    +0.000 A 
ATOM     10  C   UNL     1       4.038   5.613  19.123  0.00  0.00    +0.000 A 
ATOM     11  C   UNL     1       3.071   4.722  19.595  0.00  0.00    +0.000 A 
BRANCH   6  12
ATOM     12  S   UNL     1       1.350   2.603  19.348  0.00  0.00    +0.000 S 
ATOM     13  O   UNL     1       0.208   2.547  18.468  0.00  0.00    +0.000 OA
ATOM     14  O   UNL     1       1.223   2.769  20.782  0.00  0.00    +0.000 OA
BRANCH  12  15
ATOM     15  N   UNL     1       2.184   1.160  19.146  0.00  0.00    +0.000 NA
ATOM     16  H   UNL     1       2.970   1.309  18.511  0.00  0.00    +0.000 HD
ATOM     17  H   UNL     1       1.549   0.424  18.838  0.00  0.00    +0.000 HD
ENDBRANCH  12  15
ENDBRANCH   6  12
ENDBRANCH   4   9
ENDBRANCH   1   4
BRANCH   1  18
ATOM     18  C   UNL     1       7.910   6.578  18.488  0.00  0.00    +0.000 C 
BRANCH  18  19
ATOM     19  C   UNL     1       8.134   8.057  18.178  0.00  0.00    +0.000 C 
BRANCH  19  20
ATOM     20  N   UNL     1       8.896   8.765  19.213  0.00  0.00    +0.000 N 
ATOM     21  C   UNL     1       9.184  10.096  18.999  0.00  0.00    +0.000 C 
ATOM     22  O   UNL     1       8.862  10.650  17.958  0.00  0.00    +0.000 OA
ATOM     23  N   UNL     1       9.885  10.674  20.029  0.00  0.00    +0.000 N 
ATOM     24  H   UNL     1       8.660   8.542  20.168  0.00  0.00    +0.000 HD
ATOM     25  H   UNL     1      10.350  10.053  20.684  0.00  0.00    +0.000 HD
BRANCH  23  26
ATOM     26  C   UNL     1      10.304  12.031  20.044  0.00  0.00    +0.000 A 
ATOM     27  C   UNL     1      11.489  12.461  19.439  0.00  0.00    +0.000 A 
ATOM     28  C   UNL     1      11.896  13.797  19.530  0.00  0.00    +0.000 A 
ATOM     29  C   UNL     1      11.104  14.709  20.207  0.00  0.00    +0.000 A 
ATOM     30  F   UNL     1      11.501  15.984  20.295  0.00  0.00    +0.000 F 
ATOM     31  C   UNL     1       9.905  14.317  20.790  0.00  0.00    +0.000 A 
ATOM     32  C   UNL     1       9.512  12.983  20.702  0.00  0.00    +0.000 A 
ATOM     33  F   UNL     1       8.364  12.606  21.284  0.00  0.00    +0.000 F 
ENDBRANCH  23  26
ENDBRANCH  19  20
ENDBRANCH  18  19
ENDBRANCH   1  18
TORSDOF 8
ENDMDL
MODEL 8
REMARK VINA RESULT:      -7.5      4.392      6.938
REMARK  Name = 
REMARK  8 active torsions:
REMARK  status: ('A' for Active; 'I' for Inactive)
REMARK    1  A    between atoms: N_1  and  S_2
REMARK    2  A    between atoms: S_2  and  C_5
REMARK    3  A    between atoms: C_8  and  N_9
REMARK    4  A    between atoms: N_9  and  S_10
REMARK    5  A    between atoms: S_10  and  C_13
REMARK    6  A    between atoms: C_13  and  C_14
REMARK    7  A    between atoms: C_14  and  N_15
REMARK    8  A    between atoms: N_18  and  C_19
REMARK                            x       y       z     vdW  Elec       q    Type
REMARK                         _______ _______ _______ _____ _____    ______ ____
ROOT
ATOM      1  S   UNL     1       1.423   3.827  19.145  0.00  0.00    +0.000 S 
ATOM      2  O   UNL     1       0.423   3.672  20.181  0.00  0.00    +0.000 OA
ATOM      3  O   UNL     1       1.047   4.175  17.793  0.00  0.00    +0.000 OA
ENDROOT
BRANCH   1   4
ATOM      4  N   UNL     1       2.513   4.966  19.757  0.00  0.00    +0.000 N 
ATOM      5  H   UNL     1       2.903   4.612  20.634  0.00  0.00    +0.000 HD
BRANCH   4   9
ATOM      6  C   UNL     1       1.204   8.961  19.843  0.00  0.00    +0.000 A 
ATOM      7  C   UNL     1       1.909   8.499  18.728  0.00  0.00    +0.000 A 
ATOM      8  C   UNL     1       2.365   7.177  18.705  0.00  0.00    +0.000 A 
ATOM      9  C   UNL     1       2.117   6.334  19.793  0.00  0.00    +0.000 A 
ATOM     10  C   UNL     1       1.447   6.812  20.918  0.00  0.00    +0.000 A 
ATOM     11  C   UNL     1       0.986   8.129  20.945  0.00  0.00    +0.000 A 
BRANCH   6  12
ATOM     12  S   UNL     1       0.534  10.600  19.848  0.00  0.00    +0.000 S 
ATOM     13  O   UNL     1       1.382  11.453  20.645  0.00  0.00    +0.000 OA
ATOM     14  O   UNL     1      -0.902  10.531  20.036  0.00  0.00    +0.000 OA
BRANCH  12  15
ATOM     15  N   UNL     1       0.744  11.070  18.250  0.00  0.00    +0.000 NA
ATOM     16  H   UNL     1       1.349  11.893  18.216  0.00  0.00    +0.000 HD
ATOM     17  H   UNL     1      -0.161  11.215  17.802  0.00  0.00    +0.000 HD
ENDBRANCH  12  15
ENDBRANCH   6  12
ENDBRANCH   4   9
ENDBRANCH   1   4
BRANCH   1  18
ATOM     18  C   UNL     1       2.424   2.352  19.107  0.00  0.00    +0.000 C 
BRANCH  18  19
ATOM     19  C   UNL     1       3.237   2.297  17.815  0.00  0.00    +0.000 C 
BRANCH  19  20
ATOM     20  N   UNL     1       4.657   2.619  18.001  0.00  0.00    +0.000 N 
ATOM     21  C   UNL     1       5.036   3.939  17.883  0.00  0.00    +0.000 C 
ATOM     22  O   UNL     1       4.225   4.801  17.578  0.00  0.00    +0.000 OA
ATOM     23  N   UNL     1       6.378   4.141  18.088  0.00  0.00    +0.000 N 
ATOM     24  H   UNL     1       5.133   2.117  18.736  0.00  0.00    +0.000 HD
ATOM     25  H   UNL     1       6.987   3.330  18.031  0.00  0.00    +0.000 HD
BRANCH  23  26
ATOM     26  C   UNL     1       7.013   5.409  18.017  0.00  0.00    +0.000 A 
ATOM     27  C   UNL     1       7.749   5.945  19.078  0.00  0.00    +0.000 A 
ATOM     28  C   UNL     1       8.308   7.225  18.989  0.00  0.00    +0.000 A 
ATOM     29  C   UNL     1       8.150   7.961  17.827  0.00  0.00    +0.000 A 
ATOM     30  F   UNL     1       8.682   9.187  17.749  0.00  0.00    +0.000 F 
ATOM     31  C   UNL     1       7.452   7.441  16.743  0.00  0.00    +0.000 A 
ATOM     32  C   UNL     1       6.891   6.169  16.845  0.00  0.00    +0.000 A 
ATOM     33  F   UNL     1       6.201   5.681  15.803  0.00  0.00    +0.000 F 
ENDBRANCH  23  26
ENDBRANCH  19  20
ENDBRANCH  18  19
ENDBRANCH   1  18
TORSDOF 8
ENDMDL
MODEL 9
REMARK VINA RESULT:      -7.5      5.972      8.229
REMARK  Name = 
REMARK  8 active torsions:
REMARK  status: ('A' for Active; 'I' for Inactive)
REMARK    1  A    between atoms: N_1  and  S_2
REMARK    2  A    between atoms: S_2  and  C_5
REMARK    3  A    between atoms: C_8  and  N_9
REMARK    4  A    between atoms: N_9  and  S_10
REMARK    5  A    between atoms: S_10  and  C_13
REMARK    6  A    between atoms: C_13  and  C_14
REMARK    7  A    between atoms: C_14  and  N_15
REMARK    8  A    between atoms: N_18  and  C_19
REMARK                            x       y       z     vdW  Elec       q    Type
REMARK                         _______ _______ _______ _____ _____    ______ ____
ROOT
ATOM      1  S   UNL     1       2.004   3.233  20.876  0.00  0.00    +0.000 S 
ATOM      2  O   UNL     1       1.134   3.305  19.720  0.00  0.00    +0.000 OA
ATOM      3  O   UNL     1       1.632   2.464  22.042  0.00  0.00    +0.000 OA
ENDROOT
BRANCH   1   4
ATOM      4  N   UNL     1       3.489   2.693  20.271  0.00  0.00    +0.000 N 
ATOM      5  H   UNL     1       4.131   2.547  21.054  0.00  0.00    +0.000 HD
BRANCH   4   9
ATOM      6  C   UNL     1       5.227   4.582  16.940  0.00  0.00    +0.000 A 
ATOM      7  C   UNL     1       5.711   4.874  18.218  0.00  0.00    +0.000 A 
ATOM      8  C   UNL     1       5.121   4.264  19.331  0.00  0.00    +0.000 A 
ATOM      9  C   UNL     1       4.056   3.375  19.157  0.00  0.00    +0.000 A 
ATOM     10  C   UNL     1       3.553   3.117  17.883  0.00  0.00    +0.000 A 
ATOM     11  C   UNL     1       4.140   3.720  16.768  0.00  0.00    +0.000 A 
BRANCH   6  12
ATOM     12  S   UNL     1       6.025   5.267  15.516  0.00  0.00    +0.000 S 
ATOM     13  O   UNL     1       5.699   4.464  14.362  0.00  0.00    +0.000 OA
ATOM     14  O   UNL     1       7.386   5.629  15.856  0.00  0.00    +0.000 OA
BRANCH  12  15
ATOM     15  N   UNL     1       5.217   6.727  15.328  0.00  0.00    +0.000 NA
ATOM     16  H   UNL     1       4.943   6.839  14.351  0.00  0.00    +0.000 HD
ATOM     17  H   UNL     1       5.788   7.495  15.680  0.00  0.00    +0.000 HD
ENDBRANCH  12  15
ENDBRANCH   6  12
ENDBRANCH   4   9
ENDBRANCH   1   4
BRANCH   1  18
ATOM     18  C   UNL     1       2.404   4.896  21.380  0.00  0.00    +0.000 C 
BRANCH  18  19
ATOM     19  C   UNL     1       1.879   5.900  20.355  0.00  0.00    +0.000 C 
BRANCH  19  20
ATOM     20  N   UNL     1       2.054   7.300  20.762  0.00  0.00    +0.000 N 
ATOM     21  C   UNL     1       0.920   8.043  21.006  0.00  0.00    +0.000 C 
ATOM     22  O   UNL     1      -0.193   7.567  20.835  0.00  0.00    +0.000 OA
ATOM     23  N   UNL     1       1.186   9.333  21.394  0.00  0.00    +0.000 N 
ATOM     24  H   UNL     1       2.814   7.485  21.399  0.00  0.00    +0.000 HD
ATOM     25  H   UNL     1       2.116   9.694  21.207  0.00  0.00    +0.000 HD
BRANCH  23  26
ATOM     26  C   UNL     1       0.187  10.296  21.698  0.00  0.00    +0.000 A 
ATOM     27  C   UNL     1      -0.171  11.315  20.811  0.00  0.00    +0.000 A 
ATOM     28  C   UNL     1      -1.117  12.281  21.174  0.00  0.00    +0.000 A 
ATOM     29  C   UNL     1      -1.723  12.212  22.416  0.00  0.00    +0.000 A 
ATOM     30  F   UNL     1      -2.623  13.141  22.759  0.00  0.00    +0.000 F 
ATOM     31  C   UNL     1      -1.411  11.191  23.305  0.00  0.00    +0.000 A 
ATOM     32  C   UNL     1      -0.462  10.239  22.939  0.00  0.00    +0.000 A 
ATOM     33  F   UNL     1      -0.150   9.267  23.810  0.00  0.00    +0.000 F 
ENDBRANCH  23  26
ENDBRANCH  19  20
ENDBRANCH  18  19
ENDBRANCH   1  18
TORSDOF 8
ENDMDL
