MODEL 1
REMARK VINA RESULT:      -7.4      0.000      0.000
REMARK  Name = 
REMARK  12 active torsions:
REMARK  status: ('A' for Active; 'I' for Inactive)
REMARK    1  A    between atoms: C_1  and  C_2
REMARK    2  A    between atoms: C_2  and  N_3
REMARK    3  A    between atoms: N_3  and  C_4
REMARK    4  A    between atoms: N_3  and  C_6
REMARK    5  A    between atoms: C_4  and  C_5
REMARK    6  A    between atoms: C_6  and  C_7
REMARK    7  A    between atoms: C_7  and  S_8
REMARK    8  A    between atoms: S_8  and  C_9
REMARK    9  A    between atoms: C_11  and  O_12
REMARK   10  A    between atoms: C_13  and  C_14
REMARK   11  A    between atoms: C_14  and  C_15
REMARK   12  A    between atoms: N_23  and  C_24
REMARK                            x       y       z     vdW  Elec       q    Type
REMARK                         _______ _______ _______ _____ _____    ______ ____
ROOT
ATOM      1  C   UNL     1       3.596   6.464  18.248  0.00  0.00    +0.000 A 
ATOM      2  N   UNL     1       4.576   7.198  17.664  0.00  0.00    +0.000 NA
ATOM      3  C   UNL     1       5.682   6.646  17.127  0.00  0.00    +0.000 A 
ATOM      4  C   UNL     1       5.844   5.261  17.153  0.00  0.00    +0.000 A 
ATOM      5  C   UNL     1       4.824   4.486  17.740  0.00  0.00    +0.000 A 
ATOM      6  O   UNL     1       4.947   3.272  17.726  0.00  0.00    +0.000 OA
ATOM      7  N   UNL     1       3.695   5.083  18.304  0.00  0.00    +0.000 N 
ENDROOT
BRANCH   7   8
ATOM      8  C   UNL     1       2.667   4.236  18.929  0.00  0.00    +0.000 A 
ATOM      9  C   UNL     1       2.651   4.008  20.331  0.00  0.00    +0.000 A 
ATOM     10  C   UNL     1       1.692   3.177  20.919  0.00  0.00    +0.000 A 
ATOM     11  C   UNL     1       0.722   2.560  20.134  0.00  0.00    +0.000 A 
ATOM     12  C   UNL     1       0.710   2.771  18.758  0.00  0.00    +0.000 A 
ATOM     13  C   UNL     1       1.671   3.592  18.161  0.00  0.00    +0.000 A 
ENDBRANCH   7   8
BRANCH   3  14
ATOM     14  O   UNL     1       6.610   7.437  16.551  0.00  0.00    +0.000 OA
ATOM     15  H   UNL     1       7.522   7.135  16.429  0.00  0.00    +0.000 HD
ENDBRANCH   3  14
BRANCH   1  16
ATOM     16  S   UNL     1       2.257   7.439  18.967  0.00  0.00    +0.000 S 
BRANCH  16  17
ATOM     17  C   UNL     1       2.262   8.756  17.704  0.00  0.00    +0.000 C 
BRANCH  17  18
ATOM     18  C   UNL     1       1.601  10.055  18.191  0.00  0.00    +0.000 C 
BRANCH  18  19
ATOM     19  N   UNL     1       0.221   9.868  18.707  0.00  0.00    +0.000 NA
BRANCH  19  21
ATOM     20  C   UNL     1       0.101   9.746  21.234  0.00  0.00    +0.000 C 
ATOM     21  C   UNL     1      -0.000  10.612  19.975  0.00  0.00    +0.000 C 
ENDBRANCH  19  21
BRANCH  19  22
ATOM     22  C   UNL     1      -0.785  10.142  17.645  0.00  0.00    +0.000 C 
ATOM     23  C   UNL     1      -2.242  10.117  18.131  0.00  0.00    +0.000 C 
ENDBRANCH  19  22
ENDBRANCH  18  19
ENDBRANCH  17  18
ENDBRANCH  16  17
ENDBRANCH   1  16
BRANCH   4  24
ATOM     24  C   UNL     1       7.085   4.631  16.553  0.00  0.00    +0.000 C 
BRANCH  24  25
ATOM     25  C   UNL     1       6.928   4.515  15.058  0.00  0.00    +0.000 A 
ATOM     26  C   UNL     1       5.905   3.706  14.527  0.00  0.00    +0.000 A 
ATOM     27  C   UNL     1       5.746   3.580  13.147  0.00  0.00    +0.000 A 
ATOM     28  C   UNL     1       6.607   4.258  12.281  0.00  0.00    +0.000 A 
ATOM     29  C   UNL     1       7.621   5.070  12.797  0.00  0.00    +0.000 A 
ATOM     30  C   UNL     1       7.780   5.205  14.181  0.00  0.00    +0.000 A 
ENDBRANCH  24  25
ENDBRANCH   4  24
TORSDOF 10
ENDMDL
MODEL 2
REMARK VINA RESULT:      -7.3      0.700      1.318
REMARK  Name = 
REMARK  12 active torsions:
REMARK  status: ('A' for Active; 'I' for Inactive)
REMARK    1  A    between atoms: C_1  and  C_2
REMARK    2  A    between atoms: C_2  and  N_3
REMARK    3  A    between atoms: N_3  and  C_4
REMARK    4  A    between atoms: N_3  and  C_6
REMARK    5  A    between atoms: C_4  and  C_5
REMARK    6  A    between atoms: C_6  and  C_7
REMARK    7  A    between atoms: C_7  and  S_8
REMARK    8  A    between atoms: S_8  and  C_9
REMARK    9  A    between atoms: C_11  and  O_12
REMARK   10  A    between atoms: C_13  and  C_14
REMARK   11  A    between atoms: C_14  and  C_15
REMARK   12  A    between atoms: N_23  and  C_24
REMARK                            x       y       z     vdW  Elec       q    Type
REMARK                         _______ _______ _______ _____ _____    ______ ____
ROOT
ATOM      1  C   UNL     1       3.595   6.415  18.236  0.00  0.00    +0.000 A 
ATOM      2  N   UNL     1       4.563   7.161  17.648  0.00  0.00    +0.000 NA
ATOM      3  C   UNL     1       5.673   6.623  17.105  0.00  0.00    +0.000 A 
ATOM      4  C   UNL     1       5.852   5.239  17.129  0.00  0.00    +0.000 A 
ATOM      5  C   UNL     1       4.844   4.452  17.721  0.00  0.00    +0.000 A 
ATOM      6  O   UNL     1       4.981   3.239  17.704  0.00  0.00    +0.000 OA
ATOM      7  N   UNL     1       3.711   5.035  18.290  0.00  0.00    +0.000 N 
ENDROOT
BRANCH   7   8
ATOM      8  C   UNL     1       2.696   4.175  18.919  0.00  0.00    +0.000 A 
ATOM      9  C   UNL     1       2.701   3.929  20.318  0.00  0.00    +0.000 A 
ATOM     10  C   UNL     1       1.755   3.086  20.909  0.00  0.00    +0.000 A 
ATOM     11  C   UNL     1       0.776   2.474  20.130  0.00  0.00    +0.000 A 
ATOM     12  C   UNL     1       0.743   2.703  18.757  0.00  0.00    +0.000 A 
ATOM     13  C   UNL     1       1.692   3.536  18.157  0.00  0.00    +0.000 A 
ENDBRANCH   7   8
BRANCH   3  14
ATOM     14  O   UNL     1       6.589   7.425  16.526  0.00  0.00    +0.000 OA
ATOM     15  H   UNL     1       6.937   7.236  15.643  0.00  0.00    +0.000 HD
ENDBRANCH   3  14
BRANCH   1  16
ATOM     16  S   UNL     1       2.247   7.373  18.962  0.00  0.00    +0.000 S 
BRANCH  16  17
ATOM     17  C   UNL     1       2.381   8.801  17.835  0.00  0.00    +0.000 C 
BRANCH  17  18
ATOM     18  C   UNL     1       1.174   9.749  17.922  0.00  0.00    +0.000 C 
BRANCH  18  19
ATOM     19  N   UNL     1       1.086  10.489  19.207  0.00  0.00    +0.000 NA
BRANCH  19  21
ATOM     20  C   UNL     1       2.441  12.363  18.170  0.00  0.00    +0.000 C 
ATOM     21  C   UNL     1       1.224  11.956  19.008  0.00  0.00    +0.000 C 
ENDBRANCH  19  21
BRANCH  19  22
ATOM     22  C   UNL     1      -0.120  10.079  19.975  0.00  0.00    +0.000 C 
ATOM     23  C   UNL     1       0.182   9.515  21.372  0.00  0.00    +0.000 C 
ENDBRANCH  19  22
ENDBRANCH  18  19
ENDBRANCH  17  18
ENDBRANCH  16  17
ENDBRANCH   1  16
BRANCH   4  24
ATOM     24  C   UNL     1       7.098   4.625  16.523  0.00  0.00    +0.000 C 
BRANCH  24  25
ATOM     25  C   UNL     1       6.937   4.513  15.028  0.00  0.00    +0.000 A 
ATOM     26  C   UNL     1       5.916   3.701  14.498  0.00  0.00    +0.000 A 
ATOM     27  C   UNL     1       5.754   3.578  13.118  0.00  0.00    +0.000 A 
ATOM     28  C   UNL     1       6.609   4.262  12.251  0.00  0.00    +0.000 A 
ATOM     29  C   UNL     1       7.621   5.078  12.767  0.00  0.00    +0.000 A 
ATOM     30  C   UNL     1       7.783   5.209  14.151  0.00  0.00    +0.000 A 
ENDBRANCH  24  25
ENDBRANCH   4  24
TORSDOF 10
ENDMDL
MODEL 3
REMARK VINA RESULT:      -7.3      0.710      1.822
REMARK  Name = 
REMARK  12 active torsions:
REMARK  status: ('A' for Active; 'I' for Inactive)
REMARK    1  A    between atoms: C_1  and  C_2
REMARK    2  A    between atoms: C_2  and  N_3
REMARK    3  A    between atoms: N_3  and  C_4
REMARK    4  A    between atoms: N_3  and  C_6
REMARK    5  A    between atoms: C_4  and  C_5
REMARK    6  A    between atoms: C_6  and  C_7
REMARK    7  A    between atoms: C_7  and  S_8
REMARK    8  A    between atoms: S_8  and  C_9
REMARK    9  A    between atoms: C_11  and  O_12
REMARK   10  A    between atoms: C_13  and  C_14
REMARK   11  A    between atoms: C_14  and  C_15
REMARK   12  A    between atoms: N_23  and  C_24
REMARK                            x       y       z     vdW  Elec       q    Type
REMARK                         _______ _______ _______ _____ _____    ______ ____
ROOT
ATOM      1  C   UNL     1       3.560   6.461  18.336  0.00  0.00    +0.000 A 
ATOM      2  N   UNL     1       4.497   7.197  17.687  0.00  0.00    +0.000 NA
ATOM      3  C   UNL     1       5.609   6.655  17.151  0.00  0.00    +0.000 A 
ATOM      4  C   UNL     1       5.822   5.280  17.246  0.00  0.00    +0.000 A 
ATOM      5  C   UNL     1       4.846   4.503  17.902  0.00  0.00    +0.000 A 
ATOM      6  O   UNL     1       5.013   3.295  17.948  0.00  0.00    +0.000 OA
ATOM      7  N   UNL     1       3.711   5.089  18.463  0.00  0.00    +0.000 N 
ENDROOT
BRANCH   7   8
ATOM      8  C   UNL     1       2.730   4.242  19.159  0.00  0.00    +0.000 A 
ATOM      9  C   UNL     1       1.668   3.613  18.456  0.00  0.00    +0.000 A 
ATOM     10  C   UNL     1       0.718   2.834  19.125  0.00  0.00    +0.000 A 
ATOM     11  C   UNL     1       0.802   2.654  20.503  0.00  0.00    +0.000 A 
ATOM     12  C   UNL     1       1.836   3.254  21.216  0.00  0.00    +0.000 A 
ATOM     13  C   UNL     1       2.784   4.042  20.557  0.00  0.00    +0.000 A 
ENDBRANCH   7   8
BRANCH   3  14
ATOM     14  O   UNL     1       6.493   7.446  16.510  0.00  0.00    +0.000 OA
ATOM     15  H   UNL     1       7.144   7.971  16.997  0.00  0.00    +0.000 HD
ENDBRANCH   3  14
BRANCH   1  16
ATOM     16  S   UNL     1       2.204   7.426  19.038  0.00  0.00    +0.000 S 
BRANCH  16  17
ATOM     17  C   UNL     1       2.304   8.811  17.854  0.00  0.00    +0.000 C 
BRANCH  17  18
ATOM     18  C   UNL     1       1.123   9.787  17.973  0.00  0.00    +0.000 C 
BRANCH  18  19
ATOM     19  N   UNL     1       1.033  10.460  19.294  0.00  0.00    +0.000 NA
BRANCH  19  21
ATOM     20  C   UNL     1       2.374  12.331  18.236  0.00  0.00    +0.000 C 
ATOM     21  C   UNL     1       1.236  11.928  19.180  0.00  0.00    +0.000 C 
ENDBRANCH  19  21
BRANCH  19  22
ATOM     22  C   UNL     1      -0.209  10.060  20.010  0.00  0.00    +0.000 C 
ATOM     23  C   UNL     1       0.031   9.430  21.390  0.00  0.00    +0.000 C 
ENDBRANCH  19  22
ENDBRANCH  18  19
ENDBRANCH  17  18
ENDBRANCH  16  17
ENDBRANCH   1  16
BRANCH   4  24
ATOM     24  C   UNL     1       7.070   4.663  16.648  0.00  0.00    +0.000 C 
BRANCH  24  25
ATOM     25  C   UNL     1       6.899   4.508  15.158  0.00  0.00    +0.000 A 
ATOM     26  C   UNL     1       7.783   5.170  14.284  0.00  0.00    +0.000 A 
ATOM     27  C   UNL     1       7.638   5.045  12.902  0.00  0.00    +0.000 A 
ATOM     28  C   UNL     1       6.609   4.261  12.377  0.00  0.00    +0.000 A 
ATOM     29  C   UNL     1       5.730   3.594  13.235  0.00  0.00    +0.000 A 
ATOM     30  C   UNL     1       5.876   3.710  14.622  0.00  0.00    +0.000 A 
ENDBRANCH  24  25
ENDBRANCH   4  24
TORSDOF 10
ENDMDL
MODEL 4
REMARK VINA RESULT:      -7.2      0.686      1.378
REMARK  Name = 
REMARK  12 active torsions:
REMARK  status: ('A' for Active; 'I' for Inactive)
REMARK    1  A    between atoms: C_1  and  C_2
REMARK    2  A    between atoms: C_2  and  N_3
REMARK    3  A    between atoms: N_3  and  C_4
REMARK    4  A    between atoms: N_3  and  C_6
REMARK    5  A    between atoms: C_4  and  C_5
REMARK    6  A    between atoms: C_6  and  C_7
REMARK    7  A    between atoms: C_7  and  S_8
REMARK    8  A    between atoms: S_8  and  C_9
REMARK    9  A    between atoms: C_11  and  O_12
REMARK   10  A    between atoms: C_13  and  C_14
REMARK   11  A    between atoms: C_14  and  C_15
REMARK   12  A    between atoms: N_23  and  C_24
REMARK                            x       y       z     vdW  Elec       q    Type
REMARK                         _______ _______ _______ _____ _____    ______ ____
ROOT
ATOM      1  C   UNL     1       3.529   6.439  18.202  0.00  0.00    +0.000 A 
ATOM      2  N   UNL     1       4.491   7.175  17.590  0.00  0.00    +0.000 NA
ATOM      3  C   UNL     1       5.607   6.630  17.067  0.00  0.00    +0.000 A 
ATOM      4  C   UNL     1       5.799   5.250  17.137  0.00  0.00    +0.000 A 
ATOM      5  C   UNL     1       4.799   4.472  17.753  0.00  0.00    +0.000 A 
ATOM      6  O   UNL     1       4.948   3.261  17.777  0.00  0.00    +0.000 OA
ATOM      7  N   UNL     1       3.659   5.062  18.302  0.00  0.00    +0.000 N 
ENDROOT
BRANCH   7   8
ATOM      8  C   UNL     1       2.652   4.214  18.958  0.00  0.00    +0.000 A 
ATOM      9  C   UNL     1       1.634   3.564  18.209  0.00  0.00    +0.000 A 
ATOM     10  C   UNL     1       0.658   2.784  18.838  0.00  0.00    +0.000 A 
ATOM     11  C   UNL     1       0.672   2.623  20.221  0.00  0.00    +0.000 A 
ATOM     12  C   UNL     1       1.661   3.244  20.979  0.00  0.00    +0.000 A 
ATOM     13  C   UNL     1       2.634   4.034  20.359  0.00  0.00    +0.000 A 
ENDBRANCH   7   8
BRANCH   3  14
ATOM     14  O   UNL     1       6.516   7.422  16.463  0.00  0.00    +0.000 OA
ATOM     15  H   UNL     1       6.751   8.287  16.829  0.00  0.00    +0.000 HD
ENDBRANCH   3  14
BRANCH   1  16
ATOM     16  S   UNL     1       2.172   7.407  18.895  0.00  0.00    +0.000 S 
BRANCH  16  17
ATOM     17  C   UNL     1       2.485   8.921  17.926  0.00  0.00    +0.000 C 
BRANCH  17  18
ATOM     18  C   UNL     1       1.316   9.918  17.979  0.00  0.00    +0.000 C 
BRANCH  18  19
ATOM     19  N   UNL     1       1.017  10.418  19.345  0.00  0.00    +0.000 NA
BRANCH  19  21
ATOM     20  C   UNL     1       2.101  12.449  18.288  0.00  0.00    +0.000 C 
ATOM     21  C   UNL     1       1.375  11.852  19.499  0.00  0.00    +0.000 C 
ENDBRANCH  19  21
BRANCH  19  22
ATOM     22  C   UNL     1      -0.378  10.082  19.740  0.00  0.00    +0.000 C 
ATOM     23  C   UNL     1      -1.458  10.839  18.953  0.00  0.00    +0.000 C 
ENDBRANCH  19  22
ENDBRANCH  18  19
ENDBRANCH  17  18
ENDBRANCH  16  17
ENDBRANCH   1  16
BRANCH   4  24
ATOM     24  C   UNL     1       7.052   4.628  16.553  0.00  0.00    +0.000 C 
BRANCH  24  25
ATOM     25  C   UNL     1       6.912   4.507  15.056  0.00  0.00    +0.000 A 
ATOM     26  C   UNL     1       5.891   3.701  14.517  0.00  0.00    +0.000 A 
ATOM     27  C   UNL     1       5.748   3.570  13.135  0.00  0.00    +0.000 A 
ATOM     28  C   UNL     1       6.623   4.239  12.276  0.00  0.00    +0.000 A 
ATOM     29  C   UNL     1       7.635   5.049  12.801  0.00  0.00    +0.000 A 
ATOM     30  C   UNL     1       7.779   5.188  14.187  0.00  0.00    +0.000 A 
ENDBRANCH  24  25
ENDBRANCH   4  24
TORSDOF 10
ENDMDL
MODEL 5
REMARK VINA RESULT:      -7.1      0.533      1.881
REMARK  Name = 
REMARK  12 active torsions:
REMARK  status: ('A' for Active; 'I' for Inactive)
REMARK    1  A    between atoms: C_1  and  C_2
REMARK    2  A    between atoms: C_2  and  N_3
REMARK    3  A    between atoms: N_3  and  C_4
REMARK    4  A    between atoms: N_3  and  C_6
REMARK    5  A    between atoms: C_4  and  C_5
REMARK    6  A    between atoms: C_6  and  C_7
REMARK    7  A    between atoms: C_7  and  S_8
REMARK    8  A    between atoms: S_8  and  C_9
REMARK    9  A    between atoms: C_11  and  O_12
REMARK   10  A    between atoms: C_13  and  C_14
REMARK   11  A    between atoms: C_14  and  C_15
REMARK   12  A    between atoms: N_23  and  C_24
REMARK                            x       y       z     vdW  Elec       q    Type
REMARK                         _______ _______ _______ _____ _____    ______ ____
ROOT
ATOM      1  C   UNL     1       3.465   6.552  18.438  0.00  0.00    +0.000 A 
ATOM      2  N   UNL     1       4.344   7.281  17.705  0.00  0.00    +0.000 NA
ATOM      3  C   UNL     1       5.465   6.756  17.173  0.00  0.00    +0.000 A 
ATOM      4  C   UNL     1       5.751   5.404  17.362  0.00  0.00    +0.000 A 
ATOM      5  C   UNL     1       4.837   4.631  18.106  0.00  0.00    +0.000 A 
ATOM      6  O   UNL     1       5.067   3.439  18.236  0.00  0.00    +0.000 OA
ATOM      7  N   UNL     1       3.690   5.202  18.661  0.00  0.00    +0.000 N 
ENDROOT
BRANCH   7   8
ATOM      8  C   UNL     1       2.776   4.363  19.451  0.00  0.00    +0.000 A 
ATOM      9  C   UNL     1       1.690   3.679  18.842  0.00  0.00    +0.000 A 
ATOM     10  C   UNL     1       0.802   2.908  19.599  0.00  0.00    +0.000 A 
ATOM     11  C   UNL     1       0.975   2.789  20.975  0.00  0.00    +0.000 A 
ATOM     12  C   UNL     1       2.035   3.443  21.598  0.00  0.00    +0.000 A 
ATOM     13  C   UNL     1       2.920   4.224  20.850  0.00  0.00    +0.000 A 
ENDBRANCH   7   8
BRANCH   3  14
ATOM     14  O   UNL     1       6.287   7.538  16.445  0.00  0.00    +0.000 OA
ATOM     15  H   UNL     1       6.138   7.682  15.500  0.00  0.00    +0.000 HD
ENDBRANCH   3  14
BRANCH   1  16
ATOM     16  S   UNL     1       2.084   7.499  19.113  0.00  0.00    +0.000 S 
BRANCH  16  17
ATOM     17  C   UNL     1       2.016   8.741  17.778  0.00  0.00    +0.000 C 
BRANCH  17  18
ATOM     18  C   UNL     1       1.696  10.154  18.290  0.00  0.00    +0.000 C 
BRANCH  18  19
ATOM     19  N   UNL     1       0.244  10.408  18.476  0.00  0.00    +0.000 NA
BRANCH  19  21
ATOM     20  C   UNL     1      -1.986  10.168  17.299  0.00  0.00    +0.000 C 
ATOM     21  C   UNL     1      -0.582   9.603  17.539  0.00  0.00    +0.000 C 
ENDBRANCH  19  21
BRANCH  19  22
ATOM     22  C   UNL     1      -0.139  10.277  19.908  0.00  0.00    +0.000 C 
ATOM     23  C   UNL     1       0.867  10.893  20.892  0.00  0.00    +0.000 C 
ENDBRANCH  19  22
ENDBRANCH  18  19
ENDBRANCH  17  18
ENDBRANCH  16  17
ENDBRANCH   1  16
BRANCH   4  24
ATOM     24  C   UNL     1       7.011   4.805  16.769  0.00  0.00    +0.000 C 
BRANCH  24  25
ATOM     25  C   UNL     1       6.819   4.575  15.291  0.00  0.00    +0.000 A 
ATOM     26  C   UNL     1       7.706   5.172  14.374  0.00  0.00    +0.000 A 
ATOM     27  C   UNL     1       7.543   4.977  13.002  0.00  0.00    +0.000 A 
ATOM     28  C   UNL     1       6.492   4.189  12.529  0.00  0.00    +0.000 A 
ATOM     29  C   UNL     1       5.610   3.585  13.431  0.00  0.00    +0.000 A 
ATOM     30  C   UNL     1       5.774   3.772  14.809  0.00  0.00    +0.000 A 
ENDBRANCH  24  25
ENDBRANCH   4  24
TORSDOF 10
ENDMDL
MODEL 6
REMARK VINA RESULT:      -7.0      2.260      7.448
REMARK  Name = 
REMARK  12 active torsions:
REMARK  status: ('A' for Active; 'I' for Inactive)
REMARK    1  A    between atoms: C_1  and  C_2
REMARK    2  A    between atoms: C_2  and  N_3
REMARK    3  A    between atoms: N_3  and  C_4
REMARK    4  A    between atoms: N_3  and  C_6
REMARK    5  A    between atoms: C_4  and  C_5
REMARK    6  A    between atoms: C_6  and  C_7
REMARK    7  A    between atoms: C_7  and  S_8
REMARK    8  A    between atoms: S_8  and  C_9
REMARK    9  A    between atoms: C_11  and  O_12
REMARK   10  A    between atoms: C_13  and  C_14
REMARK   11  A    between atoms: C_14  and  C_15
REMARK   12  A    between atoms: N_23  and  C_24
REMARK                            x       y       z     vdW  Elec       q    Type
REMARK                         _______ _______ _______ _____ _____    ______ ____
ROOT
ATOM      1  C   UNL     1       2.913   6.818  18.250  0.00  0.00    +0.000 A 
ATOM      2  N   UNL     1       3.027   8.056  17.708  0.00  0.00    +0.000 NA
ATOM      3  C   UNL     1       2.361   9.127  18.182  0.00  0.00    +0.000 A 
ATOM      4  C   UNL     1       1.518   8.983  19.284  0.00  0.00    +0.000 A 
ATOM      5  C   UNL     1       1.405   7.705  19.868  0.00  0.00    +0.000 A 
ATOM      6  O   UNL     1       0.699   7.588  20.857  0.00  0.00    +0.000 OA
ATOM      7  N   UNL     1       2.093   6.608  19.348  0.00  0.00    +0.000 N 
ENDROOT
BRANCH   7   8
ATOM      8  C   UNL     1       1.926   5.287  19.975  0.00  0.00    +0.000 A 
ATOM      9  C   UNL     1       1.091   4.296  19.395  0.00  0.00    +0.000 A 
ATOM     10  C   UNL     1       0.908   3.052  20.009  0.00  0.00    +0.000 A 
ATOM     11  C   UNL     1       1.554   2.760  21.207  0.00  0.00    +0.000 A 
ATOM     12  C   UNL     1       2.383   3.711  21.795  0.00  0.00    +0.000 A 
ATOM     13  C   UNL     1       2.564   4.960  21.193  0.00  0.00    +0.000 A 
ENDBRANCH   7   8
BRANCH   3  14
ATOM     14  O   UNL     1       2.533  10.331  17.600  0.00  0.00    +0.000 OA
ATOM     15  H   UNL     1       2.162  11.136  17.990  0.00  0.00    +0.000 HD
ENDBRANCH   3  14
BRANCH   1  16
ATOM     16  S   UNL     1       3.840   5.532  17.386  0.00  0.00    +0.000 S 
BRANCH  16  17
ATOM     17  C   UNL     1       4.842   6.659  16.358  0.00  0.00    +0.000 C 
BRANCH  17  18
ATOM     18  C   UNL     1       6.305   6.750  16.820  0.00  0.00    +0.000 C 
BRANCH  18  19
ATOM     19  N   UNL     1       7.187   5.714  16.222  0.00  0.00    +0.000 NA
BRANCH  19  21
ATOM     20  C   UNL     1       7.714   5.140  18.633  0.00  0.00    +0.000 C 
ATOM     21  C   UNL     1       7.517   4.642  17.197  0.00  0.00    +0.000 C 
ENDBRANCH  19  21
BRANCH  19  22
ATOM     22  C   UNL     1       6.633   5.227  14.929  0.00  0.00    +0.000 C 
ATOM     23  C   UNL     1       6.244   3.741  14.928  0.00  0.00    +0.000 C 
ENDBRANCH  19  22
ENDBRANCH  18  19
ENDBRANCH  17  18
ENDBRANCH  16  17
ENDBRANCH   1  16
BRANCH   4  24
ATOM     24  C   UNL     1       0.762  10.181  19.824  0.00  0.00    +0.000 C 
BRANCH  24  25
ATOM     25  C   UNL     1      -0.489  10.403  19.012  0.00  0.00    +0.000 A 
ATOM     26  C   UNL     1      -1.442  11.344  19.448  0.00  0.00    +0.000 A 
ATOM     27  C   UNL     1      -2.610  11.559  18.716  0.00  0.00    +0.000 A 
ATOM     28  C   UNL     1      -2.841  10.838  17.543  0.00  0.00    +0.000 A 
ATOM     29  C   UNL     1      -1.898   9.908  17.097  0.00  0.00    +0.000 A 
ATOM     30  C   UNL     1      -0.722   9.692  17.825  0.00  0.00    +0.000 A 
ENDBRANCH  24  25
ENDBRANCH   4  24
TORSDOF 10
ENDMDL
MODEL 7
REMARK VINA RESULT:      -7.0      0.712      1.198
REMARK  Name = 
REMARK  12 active torsions:
REMARK  status: ('A' for Active; 'I' for Inactive)
REMARK    1  A    between atoms: C_1  and  C_2
REMARK    2  A    between atoms: C_2  and  N_3
REMARK    3  A    between atoms: N_3  and  C_4
REMARK    4  A    between atoms: N_3  and  C_6
REMARK    5  A    between atoms: C_4  and  C_5
REMARK    6  A    between atoms: C_6  and  C_7
REMARK    7  A    between atoms: C_7  and  S_8
REMARK    8  A    between atoms: S_8  and  C_9
REMARK    9  A    between atoms: C_11  and  O_12
REMARK   10  A    between atoms: C_13  and  C_14
REMARK   11  A    between atoms: C_14  and  C_15
REMARK   12  A    between atoms: N_23  and  C_24
REMARK                            x       y       z     vdW  Elec       q    Type
REMARK                         _______ _______ _______ _____ _____    ______ ____
ROOT
ATOM      1  C   UNL     1       3.649   6.452  18.334  0.00  0.00    +0.000 A 
ATOM      2  N   UNL     1       4.614   7.191  17.731  0.00  0.00    +0.000 NA
ATOM      3  C   UNL     1       5.707   6.643  17.163  0.00  0.00    +0.000 A 
ATOM      4  C   UNL     1       5.870   5.258  17.175  0.00  0.00    +0.000 A 
ATOM      5  C   UNL     1       4.865   4.478  17.782  0.00  0.00    +0.000 A 
ATOM      6  O   UNL     1       4.988   3.264  17.755  0.00  0.00    +0.000 OA
ATOM      7  N   UNL     1       3.750   5.071  18.378  0.00  0.00    +0.000 N 
ENDROOT
BRANCH   7   8
ATOM      8  C   UNL     1       2.738   4.219  19.022  0.00  0.00    +0.000 A 
ATOM      9  C   UNL     1       2.771   3.962  20.418  0.00  0.00    +0.000 A 
ATOM     10  C   UNL     1       1.826   3.126  21.024  0.00  0.00    +0.000 A 
ATOM     11  C   UNL     1       0.824   2.532  20.261  0.00  0.00    +0.000 A 
ATOM     12  C   UNL     1       0.765   2.772  18.891  0.00  0.00    +0.000 A 
ATOM     13  C   UNL     1       1.711   3.598  18.277  0.00  0.00    +0.000 A 
ENDBRANCH   7   8
BRANCH   3  14
ATOM     14  O   UNL     1       6.620   7.439  16.571  0.00  0.00    +0.000 OA
ATOM     15  H   UNL     1       7.353   7.824  17.073  0.00  0.00    +0.000 HD
ENDBRANCH   3  14
BRANCH   1  16
ATOM     16  S   UNL     1       2.328   7.421  19.094  0.00  0.00    +0.000 S 
BRANCH  16  17
ATOM     17  C   UNL     1       2.272   8.725  17.819  0.00  0.00    +0.000 C 
BRANCH  17  18
ATOM     18  C   UNL     1       0.885   9.372  17.684  0.00  0.00    +0.000 C 
BRANCH  18  19
ATOM     19  N   UNL     1       0.792  10.722  18.297  0.00  0.00    +0.000 NA
BRANCH  19  21
ATOM     20  C   UNL     1       0.795  10.435  20.815  0.00  0.00    +0.000 C 
ATOM     21  C   UNL     1      -0.018  10.707  19.544  0.00  0.00    +0.000 C 
ENDBRANCH  19  21
BRANCH  19  22
ATOM     22  C   UNL     1       2.140  11.334  18.442  0.00  0.00    +0.000 C 
ATOM     23  C   UNL     1       2.163  12.861  18.280  0.00  0.00    +0.000 C 
ENDBRANCH  19  22
ENDBRANCH  18  19
ENDBRANCH  17  18
ENDBRANCH  16  17
ENDBRANCH   1  16
BRANCH   4  24
ATOM     24  C   UNL     1       7.096   4.633  16.540  0.00  0.00    +0.000 C 
BRANCH  24  25
ATOM     25  C   UNL     1       6.894   4.511  15.051  0.00  0.00    +0.000 A 
ATOM     26  C   UNL     1       5.849   3.708  14.555  0.00  0.00    +0.000 A 
ATOM     27  C   UNL     1       5.649   3.576  13.181  0.00  0.00    +0.000 A 
ATOM     28  C   UNL     1       6.489   4.240  12.286  0.00  0.00    +0.000 A 
ATOM     29  C   UNL     1       7.525   5.047  12.767  0.00  0.00    +0.000 A 
ATOM     30  C   UNL     1       7.726   5.187  14.145  0.00  0.00    +0.000 A 
ENDBRANCH  24  25
ENDBRANCH   4  24
TORSDOF 10
ENDMDL
MODEL 8
REMARK VINA RESULT:      -6.9      2.254      7.544
REMARK  Name = 
REMARK  12 active torsions:
REMARK  status: ('A' for Active; 'I' for Inactive)
REMARK    1  A    between atoms: C_1  and  C_2
REMARK    2  A    between atoms: C_2  and  N_3
REMARK    3  A    between atoms: N_3  and  C_4
REMARK    4  A    between atoms: N_3  and  C_6
REMARK    5  A    between atoms: C_4  and  C_5
REMARK    6  A    between atoms: C_6  and  C_7
REMARK    7  A    between atoms: C_7  and  S_8
REMARK    8  A    between atoms: S_8  and  C_9
REMARK    9  A    between atoms: C_11  and  O_12
REMARK   10  A    between atoms: C_13  and  C_14
REMARK   11  A    between atoms: C_14  and  C_15
REMARK   12  A    between atoms: N_23  and  C_24
REMARK                            x       y       z     vdW  Elec       q    Type
REMARK                         _______ _______ _______ _____ _____    ______ ____
ROOT
ATOM      1  C   UNL     1       2.827   6.787  18.402  0.00  0.00    +0.000 A 
ATOM      2  N   UNL     1       2.931   8.052  17.922  0.00  0.00    +0.000 NA
ATOM      3  C   UNL     1       2.290   9.100  18.476  0.00  0.00    +0.000 A 
ATOM      4  C   UNL     1       1.486   8.902  19.599  0.00  0.00    +0.000 A 
ATOM      5  C   UNL     1       1.385   7.596  20.119  0.00  0.00    +0.000 A 
ATOM      6  O   UNL     1       0.715   7.431  21.126  0.00  0.00    +0.000 OA
ATOM      7  N   UNL     1       2.046   6.524  19.517  0.00  0.00    +0.000 N 
ENDROOT
BRANCH   7   8
ATOM      8  C   UNL     1       1.892   5.173  20.080  0.00  0.00    +0.000 A 
ATOM      9  C   UNL     1       1.055   4.207  19.461  0.00  0.00    +0.000 A 
ATOM     10  C   UNL     1       0.885   2.934  20.015  0.00  0.00    +0.000 A 
ATOM     11  C   UNL     1       1.546   2.586  21.189  0.00  0.00    +0.000 A 
ATOM     12  C   UNL     1       2.378   3.512  21.814  0.00  0.00    +0.000 A 
ATOM     13  C   UNL     1       2.546   4.789  21.273  0.00  0.00    +0.000 A 
ENDBRANCH   7   8
BRANCH   3  14
ATOM     14  O   UNL     1       2.449  10.332  17.951  0.00  0.00    +0.000 OA
ATOM     15  H   UNL     1       2.676  11.090  18.509  0.00  0.00    +0.000 HD
ENDBRANCH   3  14
BRANCH   1  16
ATOM     16  S   UNL     1       3.713   5.544  17.438  0.00  0.00    +0.000 S 
BRANCH  16  17
ATOM     17  C   UNL     1       4.799   6.710  16.550  0.00  0.00    +0.000 C 
BRANCH  17  18
ATOM     18  C   UNL     1       6.292   6.453  16.809  0.00  0.00    +0.000 C 
BRANCH  18  19
ATOM     19  N   UNL     1       6.681   5.024  16.703  0.00  0.00    +0.000 NA
BRANCH  19  21
ATOM     20  C   UNL     1       6.094   3.893  14.513  0.00  0.00    +0.000 C 
ATOM     21  C   UNL     1       7.129   4.674  15.329  0.00  0.00    +0.000 C 
ENDBRANCH  19  21
BRANCH  19  22
ATOM     22  C   UNL     1       7.638   4.652  17.780  0.00  0.00    +0.000 C 
ATOM     23  C   UNL     1       7.750   5.685  18.911  0.00  0.00    +0.000 C 
ENDBRANCH  19  22
ENDBRANCH  18  19
ENDBRANCH  17  18
ENDBRANCH  16  17
ENDBRANCH   1  16
BRANCH   4  24
ATOM     24  C   UNL     1       0.760  10.074  20.228  0.00  0.00    +0.000 C 
BRANCH  24  25
ATOM     25  C   UNL     1      -0.282  10.601  19.273  0.00  0.00    +0.000 A 
ATOM     26  C   UNL     1      -1.203   9.711  18.689  0.00  0.00    +0.000 A 
ATOM     27  C   UNL     1      -2.170  10.177  17.798  0.00  0.00    +0.000 A 
ATOM     28  C   UNL     1      -2.227  11.535  17.478  0.00  0.00    +0.000 A 
ATOM     29  C   UNL     1      -1.322  12.429  18.058  0.00  0.00    +0.000 A 
ATOM     30  C   UNL     1      -0.354  11.967  18.957  0.00  0.00    +0.000 A 
ENDBRANCH  24  25
ENDBRANCH   4  24
TORSDOF 10
ENDMDL
MODEL 9
REMARK VINA RESULT:      -6.9      0.726      1.746
REMARK  Name = 
REMARK  12 active torsions:
REMARK  status: ('A' for Active; 'I' for Inactive)
REMARK    1  A    between atoms: C_1  and  C_2
REMARK    2  A    between atoms: C_2  and  N_3
REMARK    3  A    between atoms: N_3  and  C_4
REMARK    4  A    between atoms: N_3  and  C_6
REMARK    5  A    between atoms: C_4  and  C_5
REMARK    6  A    between atoms: C_6  and  C_7
REMARK    7  A    between atoms: C_7  and  S_8
REMARK    8  A    between atoms: S_8  and  C_9
REMARK    9  A    between atoms: C_11  and  O_12
REMARK   10  A    between atoms: C_13  and  C_14
REMARK   11  A    between atoms: C_14  and  C_15
REMARK   12  A    between atoms: N_23  and  C_24
REMARK                            x       y       z     vdW  Elec       q    Type
REMARK                         _______ _______ _______ _____ _____    ______ ____
ROOT
ATOM      1  C   UNL     1       3.614   6.461  18.332  0.00  0.00    +0.000 A 
ATOM      2  N   UNL     1       4.564   7.209  17.718  0.00  0.00    +0.000 NA
ATOM      3  C   UNL     1       5.667   6.673  17.158  0.00  0.00    +0.000 A 
ATOM      4  C   UNL     1       5.857   5.291  17.190  0.00  0.00    +0.000 A 
ATOM      5  C   UNL     1       4.866   4.502  17.809  0.00  0.00    +0.000 A 
ATOM      6  O   UNL     1       5.012   3.290  17.800  0.00  0.00    +0.000 OA
ATOM      7  N   UNL     1       3.741   5.082  18.396  0.00  0.00    +0.000 N 
ENDROOT
BRANCH   7   8
ATOM      8  C   UNL     1       2.744   4.221  19.052  0.00  0.00    +0.000 A 
ATOM      9  C   UNL     1       1.705   3.598  18.311  0.00  0.00    +0.000 A 
ATOM     10  C   UNL     1       0.740   2.805  18.942  0.00  0.00    +0.000 A 
ATOM     11  C   UNL     1       0.787   2.605  20.318  0.00  0.00    +0.000 A 
ATOM     12  C   UNL     1       1.798   3.199  21.069  0.00  0.00    +0.000 A 
ATOM     13  C   UNL     1       2.761   4.001  20.448  0.00  0.00    +0.000 A 
ENDBRANCH   7   8
BRANCH   3  14
ATOM     14  O   UNL     1       6.566   7.477  16.554  0.00  0.00    +0.000 OA
ATOM     15  H   UNL     1       7.246   7.119  15.966  0.00  0.00    +0.000 HD
ENDBRANCH   3  14
BRANCH   1  16
ATOM     16  S   UNL     1       2.274   7.415  19.077  0.00  0.00    +0.000 S 
BRANCH  16  17
ATOM     17  C   UNL     1       2.292   8.776  17.861  0.00  0.00    +0.000 C 
BRANCH  17  18
ATOM     18  C   UNL     1       0.902   9.389  17.628  0.00  0.00    +0.000 C 
BRANCH  18  19
ATOM     19  N   UNL     1       0.627  10.583  18.469  0.00  0.00    +0.000 NA
BRANCH  19  21
ATOM     20  C   UNL     1      -0.945  11.445  20.259  0.00  0.00    +0.000 C 
ATOM     21  C   UNL     1      -0.213  10.245  19.648  0.00  0.00    +0.000 C 
ENDBRANCH  19  21
BRANCH  19  22
ATOM     22  C   UNL     1       1.886  11.307  18.792  0.00  0.00    +0.000 C 
ATOM     23  C   UNL     1       1.933  12.754  18.278  0.00  0.00    +0.000 C 
ENDBRANCH  19  22
ENDBRANCH  18  19
ENDBRANCH  17  18
ENDBRANCH  16  17
ENDBRANCH   1  16
BRANCH   4  24
ATOM     24  C   UNL     1       7.095   4.681  16.565  0.00  0.00    +0.000 C 
BRANCH  24  25
ATOM     25  C   UNL     1       6.891   4.523  15.079  0.00  0.00    +0.000 A 
ATOM     26  C   UNL     1       7.750   5.191  14.185  0.00  0.00    +0.000 A 
ATOM     27  C   UNL     1       7.574   5.064  12.807  0.00  0.00    +0.000 A 
ATOM     28  C   UNL     1       6.540   4.272  12.305  0.00  0.00    +0.000 A 
ATOM     29  C   UNL     1       5.686   3.598  13.183  0.00  0.00    +0.000 A 
ATOM     30  C   UNL     1       5.862   3.717  14.567  0.00  0.00    +0.000 A 
ENDBRANCH  24  25
ENDBRANCH   4  24
TORSDOF 10
ENDMDL
