MODEL 1
REMARK VINA RESULT:      -8.7      0.000      0.000
REMARK  Name = 
REMARK  8 active torsions:
REMARK  status: ('A' for Active; 'I' for Inactive)
REMARK    1  A    between atoms: C_1  and  C_2
REMARK    2  A    between atoms: C_2  and  N_3
REMARK    3  A    between atoms: C_2  and  C_20
REMARK    4  A    between atoms: C_9  and  N_10
REMARK    5  A    between atoms: C_15  and  C_16
REMARK    6  A    between atoms: C_16  and  C_17
REMARK    7  A    between atoms: C_16  and  O_18
REMARK    8  A    between atoms: C_22  and  C_23
REMARK                            x       y       z     vdW  Elec       q    Type
REMARK                         _______ _______ _______ _____ _____    ______ ____
ROOT
ATOM      1  N   UNL     1       1.571   8.491  20.357  0.00  0.00    +0.000 N 
ATOM      2  C   UNL     1       2.189   7.702  19.406  0.00  0.00    +0.000 A 
ATOM      3  N   UNL     1       2.439   8.206  18.190  0.00  0.00    +0.000 NA
ATOM      4  C   UNL     1       3.174   7.450  17.352  0.00  0.00    +0.000 A 
ATOM      5  C   UNL     1       3.686   6.233  17.700  0.00  0.00    +0.000 A 
ATOM      6  F   UNL     1       4.370   5.490  16.821  0.00  0.00    +0.000 F 
ATOM      7  C   UNL     1       3.345   5.773  18.955  0.00  0.00    +0.000 A 
ATOM      8  N   UNL     1       2.554   6.470  19.806  0.00  0.00    +0.000 NA
ATOM      9  H   UNL     1       1.213   7.862  21.065  0.00  0.00    +0.000 HD
ENDROOT
BRANCH   7  10
ATOM     10  N   UNL     1       3.805   4.504  19.333  0.00  0.00    +0.000 N 
ATOM     11  C   UNL     1       5.133   4.216  19.525  0.00  0.00    +0.000 C 
ATOM     12  O   UNL     1       6.084   4.974  19.417  0.00  0.00    +0.000 OA
ATOM     13  O   UNL     1       5.258   2.912  19.921  0.00  0.00    +0.000 OA
ATOM     14  C   UNL     1       3.995   2.266  19.726  0.00  0.00    +0.000 C 
ATOM     15  C   UNL     1       2.961   3.383  19.624  0.00  0.00    +0.000 C 
BRANCH  15  16
ATOM     16  C   UNL     1       1.917   3.086  18.518  0.00  0.00    +0.000 C 
ATOM     17  C   UNL     1       2.439   2.167  17.421  0.00  0.00    +0.000 C 
BRANCH  16  18
ATOM     18  O   UNL     1       0.739   2.476  19.051  0.00  0.00    +0.000 OA
ATOM     19  H   UNL     1       0.144   2.244  18.315  0.00  0.00    +0.000 HD
ENDBRANCH  16  18
ENDBRANCH  15  16
ENDBRANCH   7  10
BRANCH   1  21
ATOM     20  C   UNL     1       1.331  10.515  18.956  0.00  0.00    +0.000 C 
ATOM     21  C   UNL     1       0.632   9.514  19.892  0.00  0.00    +0.000 C 
BRANCH  21  22
ATOM     22  C   UNL     1       0.086  10.293  21.045  0.00  0.00    +0.000 A 
ATOM     23  C   UNL     1      -0.600  11.479  21.124  0.00  0.00    +0.000 A 
ATOM     24  C   UNL     1      -0.926  11.617  22.493  0.00  0.00    +0.000 A 
ATOM     25  N   UNL     1      -0.406  10.603  23.204  0.00  0.00    +0.000 NA
ATOM     26  O   UNL     1       0.214   9.767  22.290  0.00  0.00    +0.000 OA
BRANCH  24  27
ATOM     27  C   UNL     1      -1.729  12.674  23.095  0.00  0.00    +0.000 A 
ATOM     28  C   UNL     1      -1.157  13.899  23.457  0.00  0.00    +0.000 A 
ATOM     29  C   UNL     1      -1.941  14.901  24.036  0.00  0.00    +0.000 A 
ATOM     30  C   UNL     1      -3.304  14.687  24.264  0.00  0.00    +0.000 A 
ATOM     31 CL   UNL     1      -4.214  15.966  24.983  0.00  0.00    +0.000 Cl
ATOM     32  C   UNL     1      -3.882  13.464  23.911  0.00  0.00    +0.000 A 
ATOM     33 CL   UNL     1      -5.555  13.116  24.167  0.00  0.00    +0.000 Cl
ATOM     34  C   UNL     1      -3.097  12.465  23.329  0.00  0.00    +0.000 A 
ENDBRANCH  24  27
ENDBRANCH  21  22
ENDBRANCH   1  21
TORSDOF 6
ENDMDL
MODEL 2
REMARK VINA RESULT:      -8.5      5.979     10.631
REMARK  Name = 
REMARK  8 active torsions:
REMARK  status: ('A' for Active; 'I' for Inactive)
REMARK    1  A    between atoms: C_1  and  C_2
REMARK    2  A    between atoms: C_2  and  N_3
REMARK    3  A    between atoms: C_2  and  C_20
REMARK    4  A    between atoms: C_9  and  N_10
REMARK    5  A    between atoms: C_15  and  C_16
REMARK    6  A    between atoms: C_16  and  C_17
REMARK    7  A    between atoms: C_16  and  O_18
REMARK    8  A    between atoms: C_22  and  C_23
REMARK                            x       y       z     vdW  Elec       q    Type
REMARK                         _______ _______ _______ _____ _____    ______ ____
ROOT
ATOM      1  N   UNL     1       1.007  10.785  21.147  0.00  0.00    +0.000 N 
ATOM      2  C   UNL     1       0.796  11.999  20.522  0.00  0.00    +0.000 A 
ATOM      3  N   UNL     1      -0.346  12.209  19.855  0.00  0.00    +0.000 NA
ATOM      4  C   UNL     1      -0.566  13.455  19.393  0.00  0.00    +0.000 A 
ATOM      5  C   UNL     1       0.298  14.491  19.602  0.00  0.00    +0.000 A 
ATOM      6  F   UNL     1       0.068  15.704  19.084  0.00  0.00    +0.000 F 
ATOM      7  C   UNL     1       1.468  14.176  20.262  0.00  0.00    +0.000 A 
ATOM      8  N   UNL     1       1.760  12.923  20.686  0.00  0.00    +0.000 NA
ATOM      9  H   UNL     1       2.003  10.719  21.322  0.00  0.00    +0.000 HD
ENDROOT
BRANCH   7  10
ATOM     10  N   UNL     1       2.407  15.199  20.451  0.00  0.00    +0.000 N 
ATOM     11  C   UNL     1       2.301  16.138  21.445  0.00  0.00    +0.000 C 
ATOM     12  O   UNL     1       1.427  16.232  22.293  0.00  0.00    +0.000 OA
ATOM     13  O   UNL     1       3.382  16.975  21.392  0.00  0.00    +0.000 OA
ATOM     14  C   UNL     1       4.076  16.726  20.164  0.00  0.00    +0.000 C 
ATOM     15  C   UNL     1       3.609  15.355  19.686  0.00  0.00    +0.000 C 
BRANCH  15  16
ATOM     16  C   UNL     1       3.379  15.340  18.154  0.00  0.00    +0.000 C 
ATOM     17  C   UNL     1       3.024  16.706  17.579  0.00  0.00    +0.000 C 
BRANCH  16  18
ATOM     18  O   UNL     1       4.532  14.875  17.448  0.00  0.00    +0.000 OA
ATOM     19  H   UNL     1       5.314  14.981  18.018  0.00  0.00    +0.000 HD
ENDBRANCH  16  18
ENDBRANCH  15  16
ENDBRANCH   7  10
BRANCH   1  21
ATOM     20  C   UNL     1       0.161   8.509  21.620  0.00  0.00    +0.000 C 
ATOM     21  C   UNL     1       0.394   9.595  20.554  0.00  0.00    +0.000 C 
BRANCH  21  22
ATOM     22  C   UNL     1       1.286   9.004  19.509  0.00  0.00    +0.000 A 
ATOM     23  C   UNL     1       2.069   7.878  19.484  0.00  0.00    +0.000 A 
ATOM     24  C   UNL     1       2.578   7.822  18.166  0.00  0.00    +0.000 A 
ATOM     25  N   UNL     1       2.175   8.892  17.461  0.00  0.00    +0.000 NA
ATOM     26  O   UNL     1       1.352   9.623  18.303  0.00  0.00    +0.000 OA
BRANCH  24  27
ATOM     27  C   UNL     1       3.404   6.765  17.595  0.00  0.00    +0.000 A 
ATOM     28  C   UNL     1       4.516   7.068  16.801  0.00  0.00    +0.000 A 
ATOM     29  C   UNL     1       5.296   6.043  16.258  0.00  0.00    +0.000 A 
ATOM     30  C   UNL     1       4.970   4.705  16.499  0.00  0.00    +0.000 A 
ATOM     31 CL   UNL     1       5.975   3.488  15.799  0.00  0.00    +0.000 Cl
ATOM     32  C   UNL     1       3.857   4.394  17.286  0.00  0.00    +0.000 A 
ATOM     33 CL   UNL     1       3.380   2.768  17.624  0.00  0.00    +0.000 Cl
ATOM     34  C   UNL     1       3.081   5.421  17.831  0.00  0.00    +0.000 A 
ENDBRANCH  24  27
ENDBRANCH  21  22
ENDBRANCH   1  21
TORSDOF 6
ENDMDL
MODEL 3
REMARK VINA RESULT:      -8.4      5.427     10.822
REMARK  Name = 
REMARK  8 active torsions:
REMARK  status: ('A' for Active; 'I' for Inactive)
REMARK    1  A    between atoms: C_1  and  C_2
REMARK    2  A    between atoms: C_2  and  N_3
REMARK    3  A    between atoms: C_2  and  C_20
REMARK    4  A    between atoms: C_9  and  N_10
REMARK    5  A    between atoms: C_15  and  C_16
REMARK    6  A    between atoms: C_16  and  C_17
REMARK    7  A    between atoms: C_16  and  O_18
REMARK    8  A    between atoms: C_22  and  C_23
REMARK                            x       y       z     vdW  Elec       q    Type
REMARK                         _______ _______ _______ _____ _____    ______ ____
ROOT
ATOM      1  N   UNL     1      -1.506  12.051  20.674  0.00  0.00    +0.000 N 
ATOM      2  C   UNL     1      -2.175  12.868  21.565  0.00  0.00    +0.000 A 
ATOM      3  N   UNL     1      -1.617  14.022  21.951  0.00  0.00    +0.000 NA
ATOM      4  C   UNL     1      -2.371  14.849  22.700  0.00  0.00    +0.000 A 
ATOM      5  C   UNL     1      -3.662  14.571  23.046  0.00  0.00    +0.000 A 
ATOM      6  F   UNL     1      -4.364  15.395  23.834  0.00  0.00    +0.000 F 
ATOM      7  C   UNL     1      -4.144  13.343  22.642  0.00  0.00    +0.000 A 
ATOM      8  N   UNL     1      -3.398  12.453  21.943  0.00  0.00    +0.000 NA
ATOM      9  H   UNL     1      -1.931  11.135  20.747  0.00  0.00    +0.000 HD
ENDROOT
BRANCH   7  10
ATOM     10  N   UNL     1      -5.447  12.995  23.021  0.00  0.00    +0.000 N 
ATOM     11  C   UNL     1      -5.734  12.322  24.182  0.00  0.00    +0.000 C 
ATOM     12  O   UNL     1      -4.950  11.943  25.038  0.00  0.00    +0.000 OA
ATOM     13  O   UNL     1      -7.089  12.162  24.286  0.00  0.00    +0.000 OA
ATOM     14  C   UNL     1      -7.675  12.512  23.028  0.00  0.00    +0.000 C 
ATOM     15  C   UNL     1      -6.631  13.345  22.292  0.00  0.00    +0.000 C 
BRANCH  15  16
ATOM     16  C   UNL     1      -6.569  12.974  20.789  0.00  0.00    +0.000 C 
ATOM     17  C   UNL     1      -6.967  11.531  20.502  0.00  0.00    +0.000 C 
BRANCH  16  18
ATOM     18  O   UNL     1      -7.421  13.808  20.001  0.00  0.00    +0.000 OA
ATOM     19  H   UNL     1      -6.896  14.544  19.639  0.00  0.00    +0.000 HD
ENDBRANCH  16  18
ENDBRANCH  15  16
ENDBRANCH   7  10
BRANCH   1  21
ATOM     20  C   UNL     1       0.520  12.688  19.406  0.00  0.00    +0.000 C 
ATOM     21  C   UNL     1      -0.042  12.068  20.697  0.00  0.00    +0.000 C 
BRANCH  21  22
ATOM     22  C   UNL     1       0.501  10.678  20.793  0.00  0.00    +0.000 A 
ATOM     23  C   UNL     1       0.713   9.696  19.858  0.00  0.00    +0.000 A 
ATOM     24  C   UNL     1       1.351   8.653  20.568  0.00  0.00    +0.000 A 
ATOM     25  N   UNL     1       1.455   8.967  21.870  0.00  0.00    +0.000 NA
ATOM     26  O   UNL     1       0.935  10.244  22.004  0.00  0.00    +0.000 OA
BRANCH  24  27
ATOM     27  C   UNL     1       1.865   7.408  20.012  0.00  0.00    +0.000 A 
ATOM     28  C   UNL     1       2.479   7.377  18.754  0.00  0.00    +0.000 A 
ATOM     29  C   UNL     1       2.965   6.174  18.234  0.00  0.00    +0.000 A 
ATOM     30  C   UNL     1       2.838   4.988  18.963  0.00  0.00    +0.000 A 
ATOM     31 CL   UNL     1       3.458   3.537  18.263  0.00  0.00    +0.000 Cl
ATOM     32  C   UNL     1       2.219   5.008  20.217  0.00  0.00    +0.000 A 
ATOM     33 CL   UNL     1       2.013   3.587  21.178  0.00  0.00    +0.000 Cl
ATOM     34  C   UNL     1       1.738   6.213  20.736  0.00  0.00    +0.000 A 
ENDBRANCH  24  27
ENDBRANCH  21  22
ENDBRANCH   1  21
TORSDOF 6
ENDMDL
MODEL 4
REMARK VINA RESULT:      -8.3      4.412      5.673
REMARK  Name = 
REMARK  8 active torsions:
REMARK  status: ('A' for Active; 'I' for Inactive)
REMARK    1  A    between atoms: C_1  and  C_2
REMARK    2  A    between atoms: C_2  and  N_3
REMARK    3  A    between atoms: C_2  and  C_20
REMARK    4  A    between atoms: C_9  and  N_10
REMARK    5  A    between atoms: C_15  and  C_16
REMARK    6  A    between atoms: C_16  and  C_17
REMARK    7  A    between atoms: C_16  and  O_18
REMARK    8  A    between atoms: C_22  and  C_23
REMARK                            x       y       z     vdW  Elec       q    Type
REMARK                         _______ _______ _______ _____ _____    ______ ____
ROOT
ATOM      1  N   UNL     1       1.484   8.935  17.904  0.00  0.00    +0.000 N 
ATOM      2  C   UNL     1       2.298   7.929  18.388  0.00  0.00    +0.000 A 
ATOM      3  N   UNL     1       2.083   7.436  19.614  0.00  0.00    +0.000 NA
ATOM      4  C   UNL     1       2.805   6.360  19.979  0.00  0.00    +0.000 A 
ATOM      5  C   UNL     1       3.705   5.751  19.152  0.00  0.00    +0.000 A 
ATOM      6  F   UNL     1       4.441   4.713  19.569  0.00  0.00    +0.000 F 
ATOM      7  C   UNL     1       3.894   6.349  17.923  0.00  0.00    +0.000 A 
ATOM      8  N   UNL     1       3.238   7.470  17.541  0.00  0.00    +0.000 NA
ATOM      9  H   UNL     1       1.978   9.358  17.128  0.00  0.00    +0.000 HD
ENDROOT
BRANCH   7  10
ATOM     10  N   UNL     1       4.848   5.787  17.063  0.00  0.00    +0.000 N 
ATOM     11  C   UNL     1       4.717   4.536  16.516  0.00  0.00    +0.000 C 
ATOM     12  O   UNL     1       3.797   3.747  16.668  0.00  0.00    +0.000 OA
ATOM     13  O   UNL     1       5.786   4.288  15.698  0.00  0.00    +0.000 OA
ATOM     14  C   UNL     1       6.765   5.307  15.927  0.00  0.00    +0.000 C 
ATOM     15  C   UNL     1       6.027   6.459  16.602  0.00  0.00    +0.000 C 
BRANCH  15  16
ATOM     16  C   UNL     1       6.874   7.082  17.740  0.00  0.00    +0.000 C 
ATOM     17  C   UNL     1       7.648   6.053  18.556  0.00  0.00    +0.000 C 
BRANCH  16  18
ATOM     18  O   UNL     1       7.828   8.021  17.238  0.00  0.00    +0.000 OA
ATOM     19  H   UNL     1       8.366   8.351  17.980  0.00  0.00    +0.000 HD
ENDBRANCH  16  18
ENDBRANCH  15  16
ENDBRANCH   7  10
BRANCH   1  21
ATOM     20  C   UNL     1      -0.586  10.101  18.591  0.00  0.00    +0.000 C 
ATOM     21  C   UNL     1       0.910   9.874  18.870  0.00  0.00    +0.000 C 
BRANCH  21  22
ATOM     22  C   UNL     1       1.584  11.206  18.778  0.00  0.00    +0.000 A 
ATOM     23  C   UNL     1       1.504  12.342  19.542  0.00  0.00    +0.000 A 
ATOM     24  C   UNL     1       2.473  13.214  18.995  0.00  0.00    +0.000 A 
ATOM     25  N   UNL     1       3.055  12.655  17.922  0.00  0.00    +0.000 NA
ATOM     26  O   UNL     1       2.506  11.389  17.799  0.00  0.00    +0.000 OA
BRANCH  24  27
ATOM     27  C   UNL     1       2.846  14.530  19.500  0.00  0.00    +0.000 A 
ATOM     28  C   UNL     1       2.053  15.193  20.444  0.00  0.00    +0.000 A 
ATOM     29  C   UNL     1       2.424  16.455  20.915  0.00  0.00    +0.000 A 
ATOM     30  C   UNL     1       3.588  17.071  20.445  0.00  0.00    +0.000 A 
ATOM     31 CL   UNL     1       3.987  18.630  21.069  0.00  0.00    +0.000 Cl
ATOM     32  C   UNL     1       4.381  16.419  19.497  0.00  0.00    +0.000 A 
ATOM     33 CL   UNL     1       5.829  17.113  18.857  0.00  0.00    +0.000 Cl
ATOM     34  C   UNL     1       4.011  15.154  19.030  0.00  0.00    +0.000 A 
ENDBRANCH  24  27
ENDBRANCH  21  22
ENDBRANCH   1  21
TORSDOF 6
ENDMDL
MODEL 5
REMARK VINA RESULT:      -8.3      4.296      5.419
REMARK  Name = 
REMARK  8 active torsions:
REMARK  status: ('A' for Active; 'I' for Inactive)
REMARK    1  A    between atoms: C_1  and  C_2
REMARK    2  A    between atoms: C_2  and  N_3
REMARK    3  A    between atoms: C_2  and  C_20
REMARK    4  A    between atoms: C_9  and  N_10
REMARK    5  A    between atoms: C_15  and  C_16
REMARK    6  A    between atoms: C_16  and  C_17
REMARK    7  A    between atoms: C_16  and  O_18
REMARK    8  A    between atoms: C_22  and  C_23
REMARK                            x       y       z     vdW  Elec       q    Type
REMARK                         _______ _______ _______ _____ _____    ______ ____
ROOT
ATOM      1  N   UNL     1       1.465   8.953  17.873  0.00  0.00    +0.000 N 
ATOM      2  C   UNL     1       2.274   7.949  18.368  0.00  0.00    +0.000 A 
ATOM      3  N   UNL     1       2.047   7.460  19.594  0.00  0.00    +0.000 NA
ATOM      4  C   UNL     1       2.766   6.385  19.969  0.00  0.00    +0.000 A 
ATOM      5  C   UNL     1       3.673   5.773  19.152  0.00  0.00    +0.000 A 
ATOM      6  F   UNL     1       4.404   4.736  19.579  0.00  0.00    +0.000 F 
ATOM      7  C   UNL     1       3.873   6.366  17.922  0.00  0.00    +0.000 A 
ATOM      8  N   UNL     1       3.221   7.487  17.530  0.00  0.00    +0.000 NA
ATOM      9  H   UNL     1       1.966   9.374  17.100  0.00  0.00    +0.000 HD
ENDROOT
BRANCH   7  10
ATOM     10  N   UNL     1       4.834   5.802  17.073  0.00  0.00    +0.000 N 
ATOM     11  C   UNL     1       4.712   4.545  16.536  0.00  0.00    +0.000 C 
ATOM     12  O   UNL     1       3.794   3.754  16.689  0.00  0.00    +0.000 OA
ATOM     13  O   UNL     1       5.786   4.294  15.727  0.00  0.00    +0.000 OA
ATOM     14  C   UNL     1       6.760   5.319  15.952  0.00  0.00    +0.000 C 
ATOM     15  C   UNL     1       6.014   6.474  16.613  0.00  0.00    +0.000 C 
BRANCH  15  16
ATOM     16  C   UNL     1       6.851   7.110  17.750  0.00  0.00    +0.000 C 
ATOM     17  C   UNL     1       7.638   6.094  18.568  0.00  0.00    +0.000 C 
BRANCH  16  18
ATOM     18  O   UNL     1       7.792   8.062  17.248  0.00  0.00    +0.000 OA
ATOM     19  H   UNL     1       7.635   8.920  17.681  0.00  0.00    +0.000 HD
ENDBRANCH  16  18
ENDBRANCH  15  16
ENDBRANCH   7  10
BRANCH   1  21
ATOM     20  C   UNL     1      -0.609  10.132  18.531  0.00  0.00    +0.000 C 
ATOM     21  C   UNL     1       0.882   9.896  18.831  0.00  0.00    +0.000 C 
BRANCH  21  22
ATOM     22  C   UNL     1       1.565  11.224  18.748  0.00  0.00    +0.000 A 
ATOM     23  C   UNL     1       1.481  12.360  19.511  0.00  0.00    +0.000 A 
ATOM     24  C   UNL     1       2.463  13.227  18.977  0.00  0.00    +0.000 A 
ATOM     25  N   UNL     1       3.056  12.664  17.911  0.00  0.00    +0.000 NA
ATOM     26  O   UNL     1       2.500  11.401  17.781  0.00  0.00    +0.000 OA
BRANCH  24  27
ATOM     27  C   UNL     1       2.837  14.540  19.487  0.00  0.00    +0.000 A 
ATOM     28  C   UNL     1       3.975  14.708  20.285  0.00  0.00    +0.000 A 
ATOM     29  C   UNL     1       4.319  15.974  20.767  0.00  0.00    +0.000 A 
ATOM     30  C   UNL     1       3.526  17.084  20.463  0.00  0.00    +0.000 A 
ATOM     31 CL   UNL     1       4.007  18.619  21.092  0.00  0.00    +0.000 Cl
ATOM     32  C   UNL     1       2.384  16.924  19.673  0.00  0.00    +0.000 A 
ATOM     33 CL   UNL     1       1.345  18.242  19.258  0.00  0.00    +0.000 Cl
ATOM     34  C   UNL     1       2.044  15.658  19.188  0.00  0.00    +0.000 A 
ENDBRANCH  24  27
ENDBRANCH  21  22
ENDBRANCH   1  21
TORSDOF 6
ENDMDL
MODEL 6
REMARK VINA RESULT:      -8.3      0.636      1.230
REMARK  Name = 
REMARK  8 active torsions:
REMARK  status: ('A' for Active; 'I' for Inactive)
REMARK    1  A    between atoms: C_1  and  C_2
REMARK    2  A    between atoms: C_2  and  N_3
REMARK    3  A    between atoms: C_2  and  C_20
REMARK    4  A    between atoms: C_9  and  N_10
REMARK    5  A    between atoms: C_15  and  C_16
REMARK    6  A    between atoms: C_16  and  C_17
REMARK    7  A    between atoms: C_16  and  O_18
REMARK    8  A    between atoms: C_22  and  C_23
REMARK                            x       y       z     vdW  Elec       q    Type
REMARK                         _______ _______ _______ _____ _____    ______ ____
ROOT
ATOM      1  N   UNL     1       1.539   8.587  20.218  0.00  0.00    +0.000 N 
ATOM      2  C   UNL     1       2.186   7.777  19.305  0.00  0.00    +0.000 A 
ATOM      3  N   UNL     1       2.508   8.264  18.100  0.00  0.00    +0.000 NA
ATOM      4  C   UNL     1       3.267   7.485  17.306  0.00  0.00    +0.000 A 
ATOM      5  C   UNL     1       3.733   6.260  17.689  0.00  0.00    +0.000 A 
ATOM      6  F   UNL     1       4.444   5.494  16.852  0.00  0.00    +0.000 F 
ATOM      7  C   UNL     1       3.320   5.818  18.929  0.00  0.00    +0.000 A 
ATOM      8  N   UNL     1       2.503   6.541  19.733  0.00  0.00    +0.000 NA
ATOM      9  H   UNL     1       1.131   7.972  20.912  0.00  0.00    +0.000 HD
ENDROOT
BRANCH   7  10
ATOM     10  N   UNL     1       3.732   4.544  19.340  0.00  0.00    +0.000 N 
ATOM     11  C   UNL     1       5.037   4.236  19.630  0.00  0.00    +0.000 C 
ATOM     12  O   UNL     1       6.005   4.980  19.593  0.00  0.00    +0.000 OA
ATOM     13  O   UNL     1       5.114   2.931  20.033  0.00  0.00    +0.000 OA
ATOM     14  C   UNL     1       3.860   2.304  19.746  0.00  0.00    +0.000 C 
ATOM     15  C   UNL     1       2.852   3.435  19.567  0.00  0.00    +0.000 C 
BRANCH  15  16
ATOM     16  C   UNL     1       1.890   3.152  18.387  0.00  0.00    +0.000 C 
ATOM     17  C   UNL     1       2.578   2.538  17.174  0.00  0.00    +0.000 C 
BRANCH  16  18
ATOM     18  O   UNL     1       0.835   2.264  18.764  0.00  0.00    +0.000 OA
ATOM     19  H   UNL     1       0.656   1.655  18.025  0.00  0.00    +0.000 HD
ENDBRANCH  16  18
ENDBRANCH  15  16
ENDBRANCH   7  10
BRANCH   1  21
ATOM     20  C   UNL     1       1.413  10.599  18.785  0.00  0.00    +0.000 C 
ATOM     21  C   UNL     1       0.647   9.626  19.698  0.00  0.00    +0.000 C 
BRANCH  21  22
ATOM     22  C   UNL     1       0.067  10.432  20.816  0.00  0.00    +0.000 A 
ATOM     23  C   UNL     1      -0.768  11.520  20.840  0.00  0.00    +0.000 A 
ATOM     24  C   UNL     1      -1.032  11.742  22.211  0.00  0.00    +0.000 A 
ATOM     25  N   UNL     1      -0.341  10.875  22.969  0.00  0.00    +0.000 NA
ATOM     26  O   UNL     1       0.335  10.045  22.089  0.00  0.00    +0.000 OA
BRANCH  24  27
ATOM     27  C   UNL     1      -1.936  12.737  22.775  0.00  0.00    +0.000 A 
ATOM     28  C   UNL     1      -3.280  12.793  22.389  0.00  0.00    +0.000 A 
ATOM     29  C   UNL     1      -4.133  13.755  22.937  0.00  0.00    +0.000 A 
ATOM     30  C   UNL     1      -3.651  14.674  23.874  0.00  0.00    +0.000 A 
ATOM     31 CL   UNL     1      -4.758  15.835  24.512  0.00  0.00    +0.000 Cl
ATOM     32  C   UNL     1      -2.308  14.629  24.261  0.00  0.00    +0.000 A 
ATOM     33 CL   UNL     1      -1.630  15.733  25.404  0.00  0.00    +0.000 Cl
ATOM     34  C   UNL     1      -1.458  13.664  23.713  0.00  0.00    +0.000 A 
ENDBRANCH  24  27
ENDBRANCH  21  22
ENDBRANCH   1  21
TORSDOF 6
ENDMDL
MODEL 7
REMARK VINA RESULT:      -8.3      5.803     10.599
REMARK  Name = 
REMARK  8 active torsions:
REMARK  status: ('A' for Active; 'I' for Inactive)
REMARK    1  A    between atoms: C_1  and  C_2
REMARK    2  A    between atoms: C_2  and  N_3
REMARK    3  A    between atoms: C_2  and  C_20
REMARK    4  A    between atoms: C_9  and  N_10
REMARK    5  A    between atoms: C_15  and  C_16
REMARK    6  A    between atoms: C_16  and  C_17
REMARK    7  A    between atoms: C_16  and  O_18
REMARK    8  A    between atoms: C_22  and  C_23
REMARK                            x       y       z     vdW  Elec       q    Type
REMARK                         _______ _______ _______ _____ _____    ______ ____
ROOT
ATOM      1  N   UNL     1       0.910  11.061  20.985  0.00  0.00    +0.000 N 
ATOM      2  C   UNL     1       0.603  12.181  20.236  0.00  0.00    +0.000 A 
ATOM      3  N   UNL     1      -0.583  12.258  19.617  0.00  0.00    +0.000 NA
ATOM      4  C   UNL     1      -0.892  13.428  19.026  0.00  0.00    +0.000 A 
ATOM      5  C   UNL     1      -0.073  14.519  19.060  0.00  0.00    +0.000 A 
ATOM      6  F   UNL     1      -0.393  15.650  18.418  0.00  0.00    +0.000 F 
ATOM      7  C   UNL     1       1.146  14.339  19.683  0.00  0.00    +0.000 A 
ATOM      8  N   UNL     1       1.525  13.161  20.233  0.00  0.00    +0.000 NA
ATOM      9  H   UNL     1       1.915  11.062  21.106  0.00  0.00    +0.000 HD
ENDROOT
BRANCH   7  10
ATOM     10  N   UNL     1       2.039  15.419  19.694  0.00  0.00    +0.000 N 
ATOM     11  C   UNL     1       3.052  15.562  18.779  0.00  0.00    +0.000 C 
ATOM     12  O   UNL     1       3.325  14.823  17.846  0.00  0.00    +0.000 OA
ATOM     13  O   UNL     1       3.725  16.727  19.031  0.00  0.00    +0.000 OA
ATOM     14  C   UNL     1       3.297  17.220  20.305  0.00  0.00    +0.000 C 
ATOM     15  C   UNL     1       1.974  16.523  20.606  0.00  0.00    +0.000 C 
BRANCH  15  16
ATOM     16  C   UNL     1       1.884  16.099  22.093  0.00  0.00    +0.000 C 
ATOM     17  C   UNL     1       0.455  15.973  22.605  0.00  0.00    +0.000 C 
BRANCH  16  18
ATOM     18  O   UNL     1       2.524  14.841  22.325  0.00  0.00    +0.000 OA
ATOM     19  H   UNL     1       2.990  14.570  21.514  0.00  0.00    +0.000 HD
ENDBRANCH  16  18
ENDBRANCH  15  16
ENDBRANCH   7  10
BRANCH   1  21
ATOM     20  C   UNL     1       0.238   8.812  21.764  0.00  0.00    +0.000 C 
ATOM     21  C   UNL     1       0.328   9.782  20.573  0.00  0.00    +0.000 C 
BRANCH  21  22
ATOM     22  C   UNL     1       1.177   9.126  19.531  0.00  0.00    +0.000 A 
ATOM     23  C   UNL     1       2.003   8.031  19.560  0.00  0.00    +0.000 A 
ATOM     24  C   UNL     1       2.431   7.866  18.223  0.00  0.00    +0.000 A 
ATOM     25  N   UNL     1       1.941   8.848  17.449  0.00  0.00    +0.000 NA
ATOM     26  O   UNL     1       1.142   9.627  18.270  0.00  0.00    +0.000 OA
BRANCH  24  27
ATOM     27  C   UNL     1       3.263   6.789  17.700  0.00  0.00    +0.000 A 
ATOM     28  C   UNL     1       4.462   7.063  17.032  0.00  0.00    +0.000 A 
ATOM     29  C   UNL     1       5.247   6.018  16.534  0.00  0.00    +0.000 A 
ATOM     30  C   UNL     1       4.839   4.691  16.694  0.00  0.00    +0.000 A 
ATOM     31 CL   UNL     1       5.855   3.450  16.055  0.00  0.00    +0.000 Cl
ATOM     32  C   UNL     1       3.639   4.409  17.354  0.00  0.00    +0.000 A 
ATOM     33 CL   UNL     1       3.059   2.798  17.586  0.00  0.00    +0.000 Cl
ATOM     34  C   UNL     1       2.858   5.455  17.855  0.00  0.00    +0.000 A 
ENDBRANCH  24  27
ENDBRANCH  21  22
ENDBRANCH   1  21
TORSDOF 6
ENDMDL
MODEL 8
REMARK VINA RESULT:      -8.2      5.425     10.448
REMARK  Name = 
REMARK  8 active torsions:
REMARK  status: ('A' for Active; 'I' for Inactive)
REMARK    1  A    between atoms: C_1  and  C_2
REMARK    2  A    between atoms: C_2  and  N_3
REMARK    3  A    between atoms: C_2  and  C_20
REMARK    4  A    between atoms: C_9  and  N_10
REMARK    5  A    between atoms: C_15  and  C_16
REMARK    6  A    between atoms: C_16  and  C_17
REMARK    7  A    between atoms: C_16  and  O_18
REMARK    8  A    between atoms: C_22  and  C_23
REMARK                            x       y       z     vdW  Elec       q    Type
REMARK                         _______ _______ _______ _____ _____    ______ ____
ROOT
ATOM      1  N   UNL     1      -0.394  11.156  19.137  0.00  0.00    +0.000 N 
ATOM      2  C   UNL     1      -1.100  12.168  19.758  0.00  0.00    +0.000 A 
ATOM      3  N   UNL     1      -0.533  13.371  19.913  0.00  0.00    +0.000 NA
ATOM      4  C   UNL     1      -1.313  14.360  20.388  0.00  0.00    +0.000 A 
ATOM      5  C   UNL     1      -2.635  14.191  20.681  0.00  0.00    +0.000 A 
ATOM      6  F   UNL     1      -3.366  15.187  21.199  0.00  0.00    +0.000 F 
ATOM      7  C   UNL     1      -3.127  12.911  20.532  0.00  0.00    +0.000 A 
ATOM      8  N   UNL     1      -2.362  11.872  20.120  0.00  0.00    +0.000 NA
ATOM      9  H   UNL     1      -0.855  10.289  19.383  0.00  0.00    +0.000 HD
ENDROOT
BRANCH   7  10
ATOM     10  N   UNL     1      -4.467  12.681  20.872  0.00  0.00    +0.000 N 
ATOM     11  C   UNL     1      -4.883  12.451  22.159  0.00  0.00    +0.000 C 
ATOM     12  O   UNL     1      -4.199  12.420  23.170  0.00  0.00    +0.000 OA
ATOM     13  O   UNL     1      -6.243  12.299  22.173  0.00  0.00    +0.000 OA
ATOM     14  C   UNL     1      -6.688  12.169  20.818  0.00  0.00    +0.000 C 
ATOM     15  C   UNL     1      -5.562  12.719  19.948  0.00  0.00    +0.000 C 
BRANCH  15  16
ATOM     16  C   UNL     1      -5.344  11.846  18.688  0.00  0.00    +0.000 C 
ATOM     17  C   UNL     1      -6.490  10.880  18.411  0.00  0.00    +0.000 C 
BRANCH  16  18
ATOM     18  O   UNL     1      -5.176  12.642  17.512  0.00  0.00    +0.000 OA
ATOM     19  H   UNL     1      -4.476  13.300  17.675  0.00  0.00    +0.000 HD
ENDBRANCH  16  18
ENDBRANCH  15  16
ENDBRANCH   7  10
BRANCH   1  21
ATOM     20  C   UNL     1       1.700  12.247  18.400  0.00  0.00    +0.000 C 
ATOM     21  C   UNL     1       1.064  11.154  19.275  0.00  0.00    +0.000 C 
BRANCH  21  22
ATOM     22  C   UNL     1       1.635   9.845  18.833  0.00  0.00    +0.000 A 
ATOM     23  C   UNL     1       1.756   8.626  19.452  0.00  0.00    +0.000 A 
ATOM     24  C   UNL     1       2.286   7.768  18.461  0.00  0.00    +0.000 A 
ATOM     25  N   UNL     1       2.531   8.452  17.331  0.00  0.00    +0.000 NA
ATOM     26  O   UNL     1       2.107   9.750  17.563  0.00  0.00    +0.000 OA
BRANCH  24  27
ATOM     27  C   UNL     1       2.527   6.336  18.585  0.00  0.00    +0.000 A 
ATOM     28  C   UNL     1       3.325   5.655  17.659  0.00  0.00    +0.000 A 
ATOM     29  C   UNL     1       3.544   4.281  17.791  0.00  0.00    +0.000 A 
ATOM     30  C   UNL     1       2.964   3.572  18.847  0.00  0.00    +0.000 A 
ATOM     31 CL   UNL     1       3.275   1.877  18.951  0.00  0.00    +0.000 Cl
ATOM     32  C   UNL     1       2.159   4.244  19.772  0.00  0.00    +0.000 A 
ATOM     33 CL   UNL     1       1.397   3.441  21.100  0.00  0.00    +0.000 Cl
ATOM     34  C   UNL     1       1.945   5.618  19.640  0.00  0.00    +0.000 A 
ENDBRANCH  24  27
ENDBRANCH  21  22
ENDBRANCH   1  21
TORSDOF 6
ENDMDL
MODEL 9
REMARK VINA RESULT:      -8.2      4.103      5.351
REMARK  Name = 
REMARK  8 active torsions:
REMARK  status: ('A' for Active; 'I' for Inactive)
REMARK    1  A    between atoms: C_1  and  C_2
REMARK    2  A    between atoms: C_2  and  N_3
REMARK    3  A    between atoms: C_2  and  C_20
REMARK    4  A    between atoms: C_9  and  N_10
REMARK    5  A    between atoms: C_15  and  C_16
REMARK    6  A    between atoms: C_16  and  C_17
REMARK    7  A    between atoms: C_16  and  O_18
REMARK    8  A    between atoms: C_22  and  C_23
REMARK                            x       y       z     vdW  Elec       q    Type
REMARK                         _______ _______ _______ _____ _____    ______ ____
ROOT
ATOM      1  N   UNL     1       1.497   8.884  17.866  0.00  0.00    +0.000 N 
ATOM      2  C   UNL     1       2.316   7.887  18.360  0.00  0.00    +0.000 A 
ATOM      3  N   UNL     1       2.096   7.397  19.587  0.00  0.00    +0.000 NA
ATOM      4  C   UNL     1       2.825   6.328  19.960  0.00  0.00    +0.000 A 
ATOM      5  C   UNL     1       3.734   5.723  19.141  0.00  0.00    +0.000 A 
ATOM      6  F   UNL     1       4.476   4.692  19.567  0.00  0.00    +0.000 F 
ATOM      7  C   UNL     1       3.927   6.318  17.911  0.00  0.00    +0.000 A 
ATOM      8  N   UNL     1       3.264   7.432  17.520  0.00  0.00    +0.000 NA
ATOM      9  H   UNL     1       1.993   9.308  17.092  0.00  0.00    +0.000 HD
ENDROOT
BRANCH   7  10
ATOM     10  N   UNL     1       4.891   5.760  17.060  0.00  0.00    +0.000 N 
ATOM     11  C   UNL     1       4.774   4.506  16.517  0.00  0.00    +0.000 C 
ATOM     12  O   UNL     1       3.858   3.711  16.665  0.00  0.00    +0.000 OA
ATOM     13  O   UNL     1       5.849   4.263  15.707  0.00  0.00    +0.000 OA
ATOM     14  C   UNL     1       6.819   5.290  15.938  0.00  0.00    +0.000 C 
ATOM     15  C   UNL     1       6.068   6.439  16.604  0.00  0.00    +0.000 C 
BRANCH  15  16
ATOM     16  C   UNL     1       6.902   7.072  17.745  0.00  0.00    +0.000 C 
ATOM     17  C   UNL     1       7.665   6.051  18.581  0.00  0.00    +0.000 C 
BRANCH  16  18
ATOM     18  O   UNL     1       7.864   8.005  17.245  0.00  0.00    +0.000 OA
ATOM     19  H   UNL     1       8.027   8.684  17.924  0.00  0.00    +0.000 HD
ENDBRANCH  16  18
ENDBRANCH  15  16
ENDBRANCH   7  10
BRANCH   1  21
ATOM     20  C   UNL     1      -0.584  10.048  18.527  0.00  0.00    +0.000 C 
ATOM     21  C   UNL     1       0.909   9.823  18.825  0.00  0.00    +0.000 C 
BRANCH  21  22
ATOM     22  C   UNL     1       1.582  11.155  18.741  0.00  0.00    +0.000 A 
ATOM     23  C   UNL     1       1.457  12.307  19.476  0.00  0.00    +0.000 A 
ATOM     24  C   UNL     1       2.451  13.172  18.964  0.00  0.00    +0.000 A 
ATOM     25  N   UNL     1       3.092  12.593  17.935  0.00  0.00    +0.000 NA
ATOM     26  O   UNL     1       2.554  11.322  17.809  0.00  0.00    +0.000 OA
BRANCH  24  27
ATOM     27  C   UNL     1       2.792  14.499  19.460  0.00  0.00    +0.000 A 
ATOM     28  C   UNL     1       3.346  15.467  18.613  0.00  0.00    +0.000 A 
ATOM     29  C   UNL     1       3.670  16.734  19.105  0.00  0.00    +0.000 A 
ATOM     30  C   UNL     1       3.448  17.047  20.450  0.00  0.00    +0.000 A 
ATOM     31 CL   UNL     1       3.871  18.631  20.992  0.00  0.00    +0.000 Cl
ATOM     32  C   UNL     1       2.902  16.085  21.304  0.00  0.00    +0.000 A 
ATOM     33 CL   UNL     1       2.605  16.386  22.980  0.00  0.00    +0.000 Cl
ATOM     34  C   UNL     1       2.575  14.819  20.809  0.00  0.00    +0.000 A 
ENDBRANCH  24  27
ENDBRANCH  21  22
ENDBRANCH   1  21
TORSDOF 6
ENDMDL
