MODEL 1
REMARK VINA RESULT:      -7.3      0.000      0.000
REMARK  Name = 
REMARK  12 active torsions:
REMARK  status: ('A' for Active; 'I' for Inactive)
REMARK    1  A    between atoms: C_1  and  C_2
REMARK    2  A    between atoms: C_2  and  O_3
REMARK    3  A    between atoms: O_3  and  C_4
REMARK    4  A    between atoms: N_9  and  S_10
REMARK    5  A    between atoms: S_10  and  C_13
REMARK    6  A    between atoms: C_16  and  O_17
REMARK    7  A    between atoms: O_17  and  C_18
REMARK    8  A    between atoms: C_18  and  C_19
REMARK    9  A    between atoms: C_24  and  C_25
REMARK   10  A    between atoms: C_28  and  C_29
REMARK   11  A    between atoms: N_31  and  O_32
REMARK   12  A    between atoms: C_33  and  C_34
REMARK                            x       y       z     vdW  Elec       q    Type
REMARK                         _______ _______ _______ _____ _____    ______ ____
ROOT
ATOM      1  C   UNL     1      -3.287  12.694  23.444  0.00  0.00    +0.000 C 
ATOM      2  O   UNL     1      -3.687  11.875  24.260  0.00  0.00    +0.000 OA
ATOM      3  N   UNL     1      -2.188  12.484  22.624  0.00  0.00    +0.000 N 
ATOM      4  C   UNL     1      -1.466  11.216  22.696  0.00  0.00    +0.000 C 
ATOM      5  C   UNL     1      -1.337  10.549  21.319  0.00  0.00    +0.000 C 
ATOM      6  N   UNL     1      -0.817  11.482  20.263  0.00  0.00    +0.000 NA
ATOM      7  C   UNL     1      -1.566  12.808  20.235  0.00  0.00    +0.000 C 
ATOM      8  C   UNL     1      -1.708  13.467  21.632  0.00  0.00    +0.000 C 
ATOM      9  C   UNL     1      -0.451  14.177  22.141  0.00  0.00    +0.000 C 
ENDROOT
BRANCH   7  10
ATOM     10  C   UNL     1      -2.978  12.605  19.645  0.00  0.00    +0.000 C 
ATOM     11  O   UNL     1      -3.311  11.655  18.935  0.00  0.00    +0.000 OA
ATOM     12  N   UNL     1      -3.909  13.545  20.013  0.00  0.00    +0.000 N 
ATOM     13  H   UNL     1      -3.688  14.382  20.539  0.00  0.00    +0.000 HD
BRANCH  12  14
ATOM     14  O   UNL     1      -5.181  13.448  19.406  0.00  0.00    +0.000 OA
ATOM     15  H   UNL     1      -5.001  13.750  18.487  0.00  0.00    +0.000 HD
ENDBRANCH  12  14
ENDBRANCH   7  10
BRANCH   6  16
ATOM     16  S   UNL     1       0.882  11.602  20.146  0.00  0.00    +0.000 S 
ATOM     17  O   UNL     1       1.183  12.561  19.106  0.00  0.00    +0.000 OA
ATOM     18  O   UNL     1       1.422  11.734  21.479  0.00  0.00    +0.000 OA
BRANCH  16  19
ATOM     19  C   UNL     1       1.363  10.007  19.530  0.00  0.00    +0.000 A 
ATOM     20  C   UNL     1       1.676   9.883  18.177  0.00  0.00    +0.000 A 
ATOM     21  C   UNL     1       2.146   8.662  17.688  0.00  0.00    +0.000 A 
ATOM     22  C   UNL     1       2.344   7.582  18.554  0.00  0.00    +0.000 A 
ATOM     23  C   UNL     1       1.993   7.707  19.901  0.00  0.00    +0.000 A 
ATOM     24  C   UNL     1       1.507   8.921  20.398  0.00  0.00    +0.000 A 
BRANCH  22  25
ATOM     25  O   UNL     1       2.884   6.375  18.188  0.00  0.00    +0.000 OA
BRANCH  25  26
ATOM     26  C   UNL     1       1.944   5.303  18.093  0.00  0.00    +0.000 C 
BRANCH  26  27
ATOM     27  C   UNL     1       2.227   4.254  19.144  0.00  0.00    +0.000 A 
ATOM     28  C   UNL     1       1.424   4.241  20.299  0.00  0.00    +0.000 A 
ATOM     29  C   UNL     1       1.678   3.348  21.338  0.00  0.00    +0.000 A 
ATOM     30  C   UNL     1       2.733   2.450  21.234  0.00  0.00    +0.000 A 
ATOM     31  C   UNL     1       3.519   2.427  20.081  0.00  0.00    +0.000 A 
ATOM     32  C   UNL     1       3.272   3.315  19.021  0.00  0.00    +0.000 A 
ATOM     33  C   UNL     1       4.130   3.239  17.789  0.00  0.00    +0.000 C 
ENDBRANCH  26  27
ENDBRANCH  25  26
ENDBRANCH  22  25
ENDBRANCH  16  19
ENDBRANCH   6  16
BRANCH   1  34
ATOM     34  O   UNL     1      -3.891  13.887  23.211  0.00  0.00    +0.000 OA
BRANCH  34  36
ATOM     35  C   UNL     1      -5.879  15.241  22.832  0.00  0.00    +0.000 C 
ATOM     36  C   UNL     1      -5.324  13.893  23.266  0.00  0.00    +0.000 C 
ENDBRANCH  34  36
ENDBRANCH   1  34
TORSDOF 9
ENDMDL
MODEL 2
REMARK VINA RESULT:      -7.2      1.800      2.701
REMARK  Name = 
REMARK  12 active torsions:
REMARK  status: ('A' for Active; 'I' for Inactive)
REMARK    1  A    between atoms: C_1  and  C_2
REMARK    2  A    between atoms: C_2  and  O_3
REMARK    3  A    between atoms: O_3  and  C_4
REMARK    4  A    between atoms: N_9  and  S_10
REMARK    5  A    between atoms: S_10  and  C_13
REMARK    6  A    between atoms: C_16  and  O_17
REMARK    7  A    between atoms: O_17  and  C_18
REMARK    8  A    between atoms: C_18  and  C_19
REMARK    9  A    between atoms: C_24  and  C_25
REMARK   10  A    between atoms: C_28  and  C_29
REMARK   11  A    between atoms: N_31  and  O_32
REMARK   12  A    between atoms: C_33  and  C_34
REMARK                            x       y       z     vdW  Elec       q    Type
REMARK                         _______ _______ _______ _____ _____    ______ ____
ROOT
ATOM      1  C   UNL     1      -3.260  12.800  22.908  0.00  0.00    +0.000 C 
ATOM      2  O   UNL     1      -3.632  12.162  23.883  0.00  0.00    +0.000 OA
ATOM      3  N   UNL     1      -2.157  12.452  22.140  0.00  0.00    +0.000 N 
ATOM      4  C   UNL     1      -1.398  11.249  22.471  0.00  0.00    +0.000 C 
ATOM      5  C   UNL     1      -1.254  10.310  21.266  0.00  0.00    +0.000 C 
ATOM      6  N   UNL     1      -0.766  11.012  20.030  0.00  0.00    +0.000 NA
ATOM      7  C   UNL     1      -1.556  12.280  19.730  0.00  0.00    +0.000 C 
ATOM      8  C   UNL     1      -1.712  13.216  20.957  0.00  0.00    +0.000 C 
ATOM      9  C   UNL     1      -0.475  14.054  21.291  0.00  0.00    +0.000 C 
ENDROOT
BRANCH   7  10
ATOM     10  C   UNL     1      -2.963  11.916  19.211  0.00  0.00    +0.000 C 
ATOM     11  O   UNL     1      -4.009  12.445  19.591  0.00  0.00    +0.000 OA
ATOM     12  N   UNL     1      -2.995  10.970  18.216  0.00  0.00    +0.000 N 
ATOM     13  H   UNL     1      -2.184  10.451  17.904  0.00  0.00    +0.000 HD
BRANCH  12  14
ATOM     14  O   UNL     1      -4.273  10.538  17.795  0.00  0.00    +0.000 OA
ATOM     15  H   UNL     1      -4.433   9.755  18.370  0.00  0.00    +0.000 HD
ENDBRANCH  12  14
ENDBRANCH   7  10
BRANCH   6  16
ATOM     16  S   UNL     1       0.928  11.154  19.873  0.00  0.00    +0.000 S 
ATOM     17  O   UNL     1       1.193  11.962  18.704  0.00  0.00    +0.000 OA
ATOM     18  O   UNL     1       1.478  11.485  21.166  0.00  0.00    +0.000 OA
BRANCH  16  19
ATOM     19  C   UNL     1       1.441   9.499  19.482  0.00  0.00    +0.000 A 
ATOM     20  C   UNL     1       1.860   9.222  18.181  0.00  0.00    +0.000 A 
ATOM     21  C   UNL     1       2.356   7.953  17.872  0.00  0.00    +0.000 A 
ATOM     22  C   UNL     1       2.474   6.979  18.868  0.00  0.00    +0.000 A 
ATOM     23  C   UNL     1       2.019   7.256  20.160  0.00  0.00    +0.000 A 
ATOM     24  C   UNL     1       1.506   8.518  20.476  0.00  0.00    +0.000 A 
BRANCH  22  25
ATOM     25  O   UNL     1       3.031   5.738  18.686  0.00  0.00    +0.000 OA
BRANCH  25  26
ATOM     26  C   UNL     1       4.396   5.630  19.092  0.00  0.00    +0.000 C 
BRANCH  26  27
ATOM     27  C   UNL     1       5.262   5.195  17.931  0.00  0.00    +0.000 A 
ATOM     28  C   UNL     1       4.622   4.769  16.752  0.00  0.00    +0.000 A 
ATOM     29  C   UNL     1       5.359   4.287  15.672  0.00  0.00    +0.000 A 
ATOM     30  C   UNL     1       6.745   4.231  15.751  0.00  0.00    +0.000 A 
ATOM     31  C   UNL     1       7.397   4.680  16.901  0.00  0.00    +0.000 A 
ATOM     32  C   UNL     1       6.670   5.176  17.995  0.00  0.00    +0.000 A 
ATOM     33  C   UNL     1       7.416   5.672  19.203  0.00  0.00    +0.000 C 
ENDBRANCH  26  27
ENDBRANCH  25  26
ENDBRANCH  22  25
ENDBRANCH  16  19
ENDBRANCH   6  16
BRANCH   1  34
ATOM     34  O   UNL     1      -3.900  13.898  22.433  0.00  0.00    +0.000 OA
BRANCH  34  36
ATOM     35  C   UNL     1      -2.816  15.488  23.926  0.00  0.00    +0.000 C 
ATOM     36  C   UNL     1      -4.130  14.954  23.377  0.00  0.00    +0.000 C 
ENDBRANCH  34  36
ENDBRANCH   1  34
TORSDOF 9
ENDMDL
MODEL 3
REMARK VINA RESULT:      -7.1      2.492      3.867
REMARK  Name = 
REMARK  12 active torsions:
REMARK  status: ('A' for Active; 'I' for Inactive)
REMARK    1  A    between atoms: C_1  and  C_2
REMARK    2  A    between atoms: C_2  and  O_3
REMARK    3  A    between atoms: O_3  and  C_4
REMARK    4  A    between atoms: N_9  and  S_10
REMARK    5  A    between atoms: S_10  and  C_13
REMARK    6  A    between atoms: C_16  and  O_17
REMARK    7  A    between atoms: O_17  and  C_18
REMARK    8  A    between atoms: C_18  and  C_19
REMARK    9  A    between atoms: C_24  and  C_25
REMARK   10  A    between atoms: C_28  and  C_29
REMARK   11  A    between atoms: N_31  and  O_32
REMARK   12  A    between atoms: C_33  and  C_34
REMARK                            x       y       z     vdW  Elec       q    Type
REMARK                         _______ _______ _______ _____ _____    ______ ____
ROOT
ATOM      1  C   UNL     1      -1.750  14.401  21.545  0.00  0.00    +0.000 C 
ATOM      2  O   UNL     1      -1.253  15.501  21.744  0.00  0.00    +0.000 OA
ATOM      3  N   UNL     1      -1.165  13.430  20.745  0.00  0.00    +0.000 N 
ATOM      4  C   UNL     1       0.127  13.694  20.117  0.00  0.00    +0.000 C 
ATOM      5  C   UNL     1       1.156  12.600  20.434  0.00  0.00    +0.000 C 
ATOM      6  N   UNL     1       0.633  11.214  20.183  0.00  0.00    +0.000 NA
ATOM      7  C   UNL     1      -0.730  10.979  20.822  0.00  0.00    +0.000 C 
ATOM      8  C   UNL     1      -1.759  12.098  20.511  0.00  0.00    +0.000 C 
ATOM      9  C   UNL     1      -2.388  12.026  19.118  0.00  0.00    +0.000 C 
ENDROOT
BRANCH   7  10
ATOM     10  C   UNL     1      -0.582  10.864  22.354  0.00  0.00    +0.000 C 
ATOM     11  O   UNL     1      -0.758  11.790  23.147  0.00  0.00    +0.000 OA
ATOM     12  N   UNL     1      -0.289   9.606  22.822  0.00  0.00    +0.000 N 
ATOM     13  H   UNL     1      -0.069   8.818  22.224  0.00  0.00    +0.000 HD
BRANCH  12  14
ATOM     14  O   UNL     1      -0.043   9.489  24.208  0.00  0.00    +0.000 OA
ATOM     15  H   UNL     1      -0.223  10.399  24.534  0.00  0.00    +0.000 HD
ENDBRANCH  12  14
ENDBRANCH   7  10
BRANCH   6  16
ATOM     16  S   UNL     1       0.800  10.633  18.586  0.00  0.00    +0.000 S 
ATOM     17  O   UNL     1      -0.527  10.350  18.083  0.00  0.00    +0.000 OA
ATOM     18  O   UNL     1       1.711  11.501  17.879  0.00  0.00    +0.000 OA
BRANCH  16  19
ATOM     19  C   UNL     1       1.612   9.068  18.804  0.00  0.00    +0.000 A 
ATOM     20  C   UNL     1       1.540   8.449  20.051  0.00  0.00    +0.000 A 
ATOM     21  C   UNL     1       2.089   7.176  20.221  0.00  0.00    +0.000 A 
ATOM     22  C   UNL     1       2.670   6.507  19.139  0.00  0.00    +0.000 A 
ATOM     23  C   UNL     1       2.768   7.151  17.903  0.00  0.00    +0.000 A 
ATOM     24  C   UNL     1       2.235   8.432  17.727  0.00  0.00    +0.000 A 
BRANCH  22  25
ATOM     25  O   UNL     1       3.155   5.224  19.182  0.00  0.00    +0.000 OA
BRANCH  25  26
ATOM     26  C   UNL     1       3.916   4.833  18.038  0.00  0.00    +0.000 C 
BRANCH  26  27
ATOM     27  C   UNL     1       5.325   5.376  18.128  0.00  0.00    +0.000 A 
ATOM     28  C   UNL     1       6.030   5.188  19.331  0.00  0.00    +0.000 A 
ATOM     29  C   UNL     1       7.304   5.727  19.505  0.00  0.00    +0.000 A 
ATOM     30  C   UNL     1       7.893   6.453  18.478  0.00  0.00    +0.000 A 
ATOM     31  C   UNL     1       7.220   6.621  17.267  0.00  0.00    +0.000 A 
ATOM     32  C   UNL     1       5.940   6.078  17.071  0.00  0.00    +0.000 A 
ATOM     33  C   UNL     1       5.263   6.264  15.742  0.00  0.00    +0.000 C 
ENDBRANCH  26  27
ENDBRANCH  25  26
ENDBRANCH  22  25
ENDBRANCH  16  19
ENDBRANCH   6  16
BRANCH   1  34
ATOM     34  O   UNL     1      -2.909  13.981  22.112  0.00  0.00    +0.000 OA
BRANCH  34  36
ATOM     35  C   UNL     1      -4.870  14.342  20.714  0.00  0.00    +0.000 C 
ATOM     36  C   UNL     1      -4.055  14.819  21.906  0.00  0.00    +0.000 C 
ENDBRANCH  34  36
ENDBRANCH   1  34
TORSDOF 9
ENDMDL
MODEL 4
REMARK VINA RESULT:      -7.1      0.944      1.087
REMARK  Name = 
REMARK  12 active torsions:
REMARK  status: ('A' for Active; 'I' for Inactive)
REMARK    1  A    between atoms: C_1  and  C_2
REMARK    2  A    between atoms: C_2  and  O_3
REMARK    3  A    between atoms: O_3  and  C_4
REMARK    4  A    between atoms: N_9  and  S_10
REMARK    5  A    between atoms: S_10  and  C_13
REMARK    6  A    between atoms: C_16  and  O_17
REMARK    7  A    between atoms: O_17  and  C_18
REMARK    8  A    between atoms: C_18  and  C_19
REMARK    9  A    between atoms: C_24  and  C_25
REMARK   10  A    between atoms: C_28  and  C_29
REMARK   11  A    between atoms: N_31  and  O_32
REMARK   12  A    between atoms: C_33  and  C_34
REMARK                            x       y       z     vdW  Elec       q    Type
REMARK                         _______ _______ _______ _____ _____    ______ ____
ROOT
ATOM      1  C   UNL     1      -3.460  12.813  23.253  0.00  0.00    +0.000 C 
ATOM      2  O   UNL     1      -3.785  12.102  24.194  0.00  0.00    +0.000 OA
ATOM      3  N   UNL     1      -2.352  12.568  22.455  0.00  0.00    +0.000 N 
ATOM      4  C   UNL     1      -1.526  11.390  22.709  0.00  0.00    +0.000 C 
ATOM      5  C   UNL     1      -1.350  10.530  21.450  0.00  0.00    +0.000 C 
ATOM      6  N   UNL     1      -0.916  11.326  20.252  0.00  0.00    +0.000 NA
ATOM      7  C   UNL     1      -1.774  12.566  20.033  0.00  0.00    +0.000 C 
ATOM      8  C   UNL     1      -1.962  13.421  21.314  0.00  0.00    +0.000 C 
ATOM      9  C   UNL     1      -0.766  14.302  21.683  0.00  0.00    +0.000 C 
ENDROOT
BRANCH   7  10
ATOM     10  C   UNL     1      -3.167  12.158  19.509  0.00  0.00    +0.000 C 
ATOM     11  O   UNL     1      -4.232  12.639  19.901  0.00  0.00    +0.000 OA
ATOM     12  N   UNL     1      -3.165  11.233  18.495  0.00  0.00    +0.000 N 
ATOM     13  H   UNL     1      -2.335  10.751  18.171  0.00  0.00    +0.000 HD
BRANCH  12  14
ATOM     14  O   UNL     1      -4.426  10.760  18.067  0.00  0.00    +0.000 OA
ATOM     15  H   UNL     1      -4.531   9.932  18.588  0.00  0.00    +0.000 HD
ENDBRANCH  12  14
ENDBRANCH   7  10
BRANCH   6  16
ATOM     16  S   UNL     1       0.766  11.565  20.086  0.00  0.00    +0.000 S 
ATOM     17  O   UNL     1       0.968  12.536  19.033  0.00  0.00    +0.000 OA
ATOM     18  O   UNL     1       1.333  11.743  21.402  0.00  0.00    +0.000 OA
BRANCH  16  19
ATOM     19  C   UNL     1       1.340  10.004  19.462  0.00  0.00    +0.000 A 
ATOM     20  C   UNL     1       1.782   9.936  18.142  0.00  0.00    +0.000 A 
ATOM     21  C   UNL     1       2.325   8.744  17.657  0.00  0.00    +0.000 A 
ATOM     22  C   UNL     1       2.467   7.638  18.500  0.00  0.00    +0.000 A 
ATOM     23  C   UNL     1       1.989   7.706  19.812  0.00  0.00    +0.000 A 
ATOM     24  C   UNL     1       1.429   8.890  20.302  0.00  0.00    +0.000 A 
BRANCH  22  25
ATOM     25  O   UNL     1       3.068   6.456  18.145  0.00  0.00    +0.000 OA
BRANCH  25  26
ATOM     26  C   UNL     1       3.593   5.701  19.238  0.00  0.00    +0.000 C 
BRANCH  26  27
ATOM     27  C   UNL     1       2.750   4.470  19.486  0.00  0.00    +0.000 A 
ATOM     28  C   UNL     1       2.139   4.331  20.746  0.00  0.00    +0.000 A 
ATOM     29  C   UNL     1       1.410   3.186  21.065  0.00  0.00    +0.000 A 
ATOM     30  C   UNL     1       1.275   2.170  20.128  0.00  0.00    +0.000 A 
ATOM     31  C   UNL     1       1.847   2.307  18.862  0.00  0.00    +0.000 A 
ATOM     32  C   UNL     1       2.578   3.457  18.521  0.00  0.00    +0.000 A 
ATOM     33  C   UNL     1       3.156   3.572  17.138  0.00  0.00    +0.000 C 
ENDBRANCH  26  27
ENDBRANCH  25  26
ENDBRANCH  22  25
ENDBRANCH  16  19
ENDBRANCH   6  16
BRANCH   1  34
ATOM     34  O   UNL     1      -4.162  13.902  22.850  0.00  0.00    +0.000 OA
BRANCH  34  36
ATOM     35  C   UNL     1      -6.583  13.975  23.109  0.00  0.00    +0.000 C 
ATOM     36  C   UNL     1      -5.230  14.322  23.711  0.00  0.00    +0.000 C 
ENDBRANCH  34  36
ENDBRANCH   1  34
TORSDOF 9
ENDMDL
MODEL 5
REMARK VINA RESULT:      -7.1      2.488      4.138
REMARK  Name = 
REMARK  12 active torsions:
REMARK  status: ('A' for Active; 'I' for Inactive)
REMARK    1  A    between atoms: C_1  and  C_2
REMARK    2  A    between atoms: C_2  and  O_3
REMARK    3  A    between atoms: O_3  and  C_4
REMARK    4  A    between atoms: N_9  and  S_10
REMARK    5  A    between atoms: S_10  and  C_13
REMARK    6  A    between atoms: C_16  and  O_17
REMARK    7  A    between atoms: O_17  and  C_18
REMARK    8  A    between atoms: C_18  and  C_19
REMARK    9  A    between atoms: C_24  and  C_25
REMARK   10  A    between atoms: C_28  and  C_29
REMARK   11  A    between atoms: N_31  and  O_32
REMARK   12  A    between atoms: C_33  and  C_34
REMARK                            x       y       z     vdW  Elec       q    Type
REMARK                         _______ _______ _______ _____ _____    ______ ____
ROOT
ATOM      1  C   UNL     1      -2.348  12.741  19.943  0.00  0.00    +0.000 C 
ATOM      2  O   UNL     1      -3.129  12.646  19.006  0.00  0.00    +0.000 OA
ATOM      3  N   UNL     1      -1.512  11.711  20.351  0.00  0.00    +0.000 N 
ATOM      4  C   UNL     1      -1.522  10.444  19.625  0.00  0.00    +0.000 C 
ATOM      5  C   UNL     1      -0.115  10.033  19.167  0.00  0.00    +0.000 C 
ATOM      6  N   UNL     1       0.901  10.090  20.272  0.00  0.00    +0.000 NA
ATOM      7  C   UNL     1       0.864  11.410  21.032  0.00  0.00    +0.000 C 
ATOM      8  C   UNL     1      -0.563  11.828  21.476  0.00  0.00    +0.000 C 
ATOM      9  C   UNL     1      -1.095  11.092  22.709  0.00  0.00    +0.000 C 
ENDROOT
BRANCH   7  10
ATOM     10  C   UNL     1       1.453  12.539  20.159  0.00  0.00    +0.000 C 
ATOM     11  O   UNL     1       1.023  12.866  19.052  0.00  0.00    +0.000 OA
ATOM     12  N   UNL     1       2.491  13.237  20.725  0.00  0.00    +0.000 N 
ATOM     13  H   UNL     1       2.934  12.981  21.599  0.00  0.00    +0.000 HD
BRANCH  12  14
ATOM     14  O   UNL     1       3.121  14.205  19.911  0.00  0.00    +0.000 OA
ATOM     15  H   UNL     1       3.783  13.669  19.418  0.00  0.00    +0.000 HD
ENDBRANCH  12  14
ENDBRANCH   7  10
BRANCH   6  16
ATOM     16  S   UNL     1       1.023   8.693  21.245  0.00  0.00    +0.000 S 
ATOM     17  O   UNL     1       1.971   8.976  22.301  0.00  0.00    +0.000 OA
ATOM     18  O   UNL     1      -0.310   8.218  21.529  0.00  0.00    +0.000 OA
BRANCH  16  19
ATOM     19  C   UNL     1       1.794   7.511  20.165  0.00  0.00    +0.000 A 
ATOM     20  C   UNL     1       1.779   6.166  20.532  0.00  0.00    +0.000 A 
ATOM     21  C   UNL     1       2.295   5.207  19.657  0.00  0.00    +0.000 A 
ATOM     22  C   UNL     1       2.784   5.586  18.402  0.00  0.00    +0.000 A 
ATOM     23  C   UNL     1       2.826   6.940  18.060  0.00  0.00    +0.000 A 
ATOM     24  C   UNL     1       2.326   7.909  18.936  0.00  0.00    +0.000 A 
BRANCH  22  25
ATOM     25  O   UNL     1       3.226   4.714  17.440  0.00  0.00    +0.000 OA
BRANCH  25  26
ATOM     26  C   UNL     1       4.363   3.934  17.816  0.00  0.00    +0.000 C 
BRANCH  26  27
ATOM     27  C   UNL     1       5.596   4.805  17.910  0.00  0.00    +0.000 A 
ATOM     28  C   UNL     1       6.234   4.914  19.159  0.00  0.00    +0.000 A 
ATOM     29  C   UNL     1       7.330   5.757  19.331  0.00  0.00    +0.000 A 
ATOM     30  C   UNL     1       7.809   6.495  18.256  0.00  0.00    +0.000 A 
ATOM     31  C   UNL     1       7.208   6.374  17.003  0.00  0.00    +0.000 A 
ATOM     32  C   UNL     1       6.107   5.523  16.810  0.00  0.00    +0.000 A 
ATOM     33  C   UNL     1       5.506   5.405  15.437  0.00  0.00    +0.000 C 
ENDBRANCH  26  27
ENDBRANCH  25  26
ENDBRANCH  22  25
ENDBRANCH  16  19
ENDBRANCH   6  16
BRANCH   1  34
ATOM     34  O   UNL     1      -2.173  13.874  20.670  0.00  0.00    +0.000 OA
BRANCH  34  36
ATOM     35  C   UNL     1      -3.720  15.694  21.147  0.00  0.00    +0.000 C 
ATOM     36  C   UNL     1      -3.281  14.278  21.488  0.00  0.00    +0.000 C 
ENDBRANCH  34  36
ENDBRANCH   1  34
TORSDOF 9
ENDMDL
MODEL 6
REMARK VINA RESULT:      -7.1      5.928      7.617
REMARK  Name = 
REMARK  12 active torsions:
REMARK  status: ('A' for Active; 'I' for Inactive)
REMARK    1  A    between atoms: C_1  and  C_2
REMARK    2  A    between atoms: C_2  and  O_3
REMARK    3  A    between atoms: O_3  and  C_4
REMARK    4  A    between atoms: N_9  and  S_10
REMARK    5  A    between atoms: S_10  and  C_13
REMARK    6  A    between atoms: C_16  and  O_17
REMARK    7  A    between atoms: O_17  and  C_18
REMARK    8  A    between atoms: C_18  and  C_19
REMARK    9  A    between atoms: C_24  and  C_25
REMARK   10  A    between atoms: C_28  and  C_29
REMARK   11  A    between atoms: N_31  and  O_32
REMARK   12  A    between atoms: C_33  and  C_34
REMARK                            x       y       z     vdW  Elec       q    Type
REMARK                         _______ _______ _______ _____ _____    ______ ____
ROOT
ATOM      1  C   UNL     1      -0.424  13.530  21.775  0.00  0.00    +0.000 C 
ATOM      2  O   UNL     1      -0.228  13.138  22.917  0.00  0.00    +0.000 OA
ATOM      3  N   UNL     1       0.499  14.271  21.051  0.00  0.00    +0.000 N 
ATOM      4  C   UNL     1       1.793  14.593  21.647  0.00  0.00    +0.000 C 
ATOM      5  C   UNL     1       2.962  14.164  20.749  0.00  0.00    +0.000 C 
ATOM      6  N   UNL     1       2.815  14.637  19.330  0.00  0.00    +0.000 NA
ATOM      7  C   UNL     1       1.444  14.318  18.748  0.00  0.00    +0.000 C 
ATOM      8  C   UNL     1       0.268  14.737  19.669  0.00  0.00    +0.000 C 
ATOM      9  C   UNL     1      -0.062  16.232  19.652  0.00  0.00    +0.000 C 
ENDROOT
BRANCH   7  10
ATOM     10  C   UNL     1       1.328  12.804  18.468  0.00  0.00    +0.000 C 
ATOM     11  O   UNL     1       2.284  12.030  18.389  0.00  0.00    +0.000 OA
ATOM     12  N   UNL     1       0.047  12.323  18.364  0.00  0.00    +0.000 N 
ATOM     13  H   UNL     1      -0.778  12.910  18.354  0.00  0.00    +0.000 HD
BRANCH  12  14
ATOM     14  O   UNL     1      -0.092  10.964  18.002  0.00  0.00    +0.000 OA
ATOM     15  H   UNL     1      -0.454  11.023  17.089  0.00  0.00    +0.000 HD
ENDBRANCH  12  14
ENDBRANCH   7  10
BRANCH   6  16
ATOM     16  S   UNL     1       3.398  16.208  19.004  0.00  0.00    +0.000 S 
ATOM     17  O   UNL     1       2.720  16.689  17.820  0.00  0.00    +0.000 OA
ATOM     18  O   UNL     1       3.396  16.959  20.238  0.00  0.00    +0.000 OA
BRANCH  16  19
ATOM     19  C   UNL     1       5.092  15.929  18.550  0.00  0.00    +0.000 A 
ATOM     20  C   UNL     1       6.054  16.846  18.971  0.00  0.00    +0.000 A 
ATOM     21  C   UNL     1       7.403  16.600  18.707  0.00  0.00    +0.000 A 
ATOM     22  C   UNL     1       7.794  15.421  18.063  0.00  0.00    +0.000 A 
ATOM     23  C   UNL     1       6.819  14.526  17.615  0.00  0.00    +0.000 A 
ATOM     24  C   UNL     1       5.464  14.771  17.861  0.00  0.00    +0.000 A 
BRANCH  22  25
ATOM     25  O   UNL     1       9.095  15.047  17.840  0.00  0.00    +0.000 OA
BRANCH  25  26
ATOM     26  C   UNL     1       9.813  14.653  19.011  0.00  0.00    +0.000 C 
BRANCH  26  27
ATOM     27  C   UNL     1       9.716  13.158  19.215  0.00  0.00    +0.000 A 
ATOM     28  C   UNL     1       9.730  12.333  18.075  0.00  0.00    +0.000 A 
ATOM     29  C   UNL     1       9.570  10.953  18.190  0.00  0.00    +0.000 A 
ATOM     30  C   UNL     1       9.402  10.378  19.443  0.00  0.00    +0.000 A 
ATOM     31  C   UNL     1       9.419  11.179  20.586  0.00  0.00    +0.000 A 
ATOM     32  C   UNL     1       9.587  12.570  20.490  0.00  0.00    +0.000 A 
ATOM     33  C   UNL     1       9.622  13.390  21.749  0.00  0.00    +0.000 C 
ENDBRANCH  26  27
ENDBRANCH  25  26
ENDBRANCH  22  25
ENDBRANCH  16  19
ENDBRANCH   6  16
BRANCH   1  34
ATOM     34  O   UNL     1      -1.545  13.254  21.062  0.00  0.00    +0.000 OA
BRANCH  34  36
ATOM     35  C   UNL     1      -3.966  13.312  20.808  0.00  0.00    +0.000 C 
ATOM     36  C   UNL     1      -2.747  13.907  21.495  0.00  0.00    +0.000 C 
ENDBRANCH  34  36
ENDBRANCH   1  34
TORSDOF 9
ENDMDL
MODEL 7
REMARK VINA RESULT:      -7.0      2.436      4.120
REMARK  Name = 
REMARK  12 active torsions:
REMARK  status: ('A' for Active; 'I' for Inactive)
REMARK    1  A    between atoms: C_1  and  C_2
REMARK    2  A    between atoms: C_2  and  O_3
REMARK    3  A    between atoms: O_3  and  C_4
REMARK    4  A    between atoms: N_9  and  S_10
REMARK    5  A    between atoms: S_10  and  C_13
REMARK    6  A    between atoms: C_16  and  O_17
REMARK    7  A    between atoms: O_17  and  C_18
REMARK    8  A    between atoms: C_18  and  C_19
REMARK    9  A    between atoms: C_24  and  C_25
REMARK   10  A    between atoms: C_28  and  C_29
REMARK   11  A    between atoms: N_31  and  O_32
REMARK   12  A    between atoms: C_33  and  C_34
REMARK                            x       y       z     vdW  Elec       q    Type
REMARK                         _______ _______ _______ _____ _____    ______ ____
ROOT
ATOM      1  C   UNL     1      -0.472  16.068  22.377  0.00  0.00    +0.000 C 
ATOM      2  O   UNL     1      -0.910  17.145  21.996  0.00  0.00    +0.000 OA
ATOM      3  N   UNL     1      -0.584  14.893  21.647  0.00  0.00    +0.000 N 
ATOM      4  C   UNL     1      -1.230  14.917  20.337  0.00  0.00    +0.000 C 
ATOM      5  C   UNL     1      -0.338  14.309  19.246  0.00  0.00    +0.000 C 
ATOM      6  N   UNL     1       0.215  12.964  19.623  0.00  0.00    +0.000 NA
ATOM      7  C   UNL     1       0.851  12.962  21.007  0.00  0.00    +0.000 C 
ATOM      8  C   UNL     1      -0.049  13.595  22.102  0.00  0.00    +0.000 C 
ATOM      9  C   UNL     1      -1.177  12.693  22.608  0.00  0.00    +0.000 C 
ENDROOT
BRANCH   7  10
ATOM     10  C   UNL     1       2.191  13.728  20.974  0.00  0.00    +0.000 C 
ATOM     11  O   UNL     1       2.720  14.258  21.952  0.00  0.00    +0.000 OA
ATOM     12  N   UNL     1       2.828  13.743  19.758  0.00  0.00    +0.000 N 
ATOM     13  H   UNL     1       2.421  13.385  18.902  0.00  0.00    +0.000 HD
BRANCH  12  14
ATOM     14  O   UNL     1       4.002  14.525  19.668  0.00  0.00    +0.000 OA
ATOM     15  H   UNL     1       3.644  15.435  19.563  0.00  0.00    +0.000 HD
ENDBRANCH  12  14
ENDBRANCH   7  10
BRANCH   6  16
ATOM     16  S   UNL     1      -0.785  11.624  19.278  0.00  0.00    +0.000 S 
ATOM     17  O   UNL     1      -1.828  11.588  20.279  0.00  0.00    +0.000 OA
ATOM     18  O   UNL     1      -1.087  11.632  17.866  0.00  0.00    +0.000 OA
BRANCH  16  19
ATOM     19  C   UNL     1       0.276  10.233  19.590  0.00  0.00    +0.000 A 
ATOM     20  C   UNL     1       0.186   9.592  20.825  0.00  0.00    +0.000 A 
ATOM     21  C   UNL     1       0.941   8.440  21.060  0.00  0.00    +0.000 A 
ATOM     22  C   UNL     1       1.749   7.907  20.050  0.00  0.00    +0.000 A 
ATOM     23  C   UNL     1       1.858   8.577  18.829  0.00  0.00    +0.000 A 
ATOM     24  C   UNL     1       1.118   9.740  18.590  0.00  0.00    +0.000 A 
BRANCH  22  25
ATOM     25  O   UNL     1       2.456   6.735  20.152  0.00  0.00    +0.000 OA
BRANCH  25  26
ATOM     26  C   UNL     1       1.691   5.612  20.594  0.00  0.00    +0.000 C 
BRANCH  26  27
ATOM     27  C   UNL     1       1.915   4.426  19.683  0.00  0.00    +0.000 A 
ATOM     28  C   UNL     1       2.194   4.678  18.326  0.00  0.00    +0.000 A 
ATOM     29  C   UNL     1       2.338   3.630  17.419  0.00  0.00    +0.000 A 
ATOM     30  C   UNL     1       2.213   2.317  17.855  0.00  0.00    +0.000 A 
ATOM     31  C   UNL     1       1.969   2.049  19.203  0.00  0.00    +0.000 A 
ATOM     32  C   UNL     1       1.829   3.093  20.132  0.00  0.00    +0.000 A 
ATOM     33  C   UNL     1       1.591   2.756  21.578  0.00  0.00    +0.000 C 
ENDBRANCH  26  27
ENDBRANCH  25  26
ENDBRANCH  22  25
ENDBRANCH  16  19
ENDBRANCH   6  16
BRANCH   1  34
ATOM     34  O   UNL     1       0.212  15.897  23.537  0.00  0.00    +0.000 OA
BRANCH  34  36
ATOM     35  C   UNL     1       0.241  17.482  25.386  0.00  0.00    +0.000 C 
ATOM     36  C   UNL     1      -0.464  16.302  24.736  0.00  0.00    +0.000 C 
ENDBRANCH  34  36
ENDBRANCH   1  34
TORSDOF 9
ENDMDL
MODEL 8
REMARK VINA RESULT:      -7.0      2.307      3.797
REMARK  Name = 
REMARK  12 active torsions:
REMARK  status: ('A' for Active; 'I' for Inactive)
REMARK    1  A    between atoms: C_1  and  C_2
REMARK    2  A    between atoms: C_2  and  O_3
REMARK    3  A    between atoms: O_3  and  C_4
REMARK    4  A    between atoms: N_9  and  S_10
REMARK    5  A    between atoms: S_10  and  C_13
REMARK    6  A    between atoms: C_16  and  O_17
REMARK    7  A    between atoms: O_17  and  C_18
REMARK    8  A    between atoms: C_18  and  C_19
REMARK    9  A    between atoms: C_24  and  C_25
REMARK   10  A    between atoms: C_28  and  C_29
REMARK   11  A    between atoms: N_31  and  O_32
REMARK   12  A    between atoms: C_33  and  C_34
REMARK                            x       y       z     vdW  Elec       q    Type
REMARK                         _______ _______ _______ _____ _____    ______ ____
ROOT
ATOM      1  C   UNL     1       0.299  14.784  21.645  0.00  0.00    +0.000 C 
ATOM      2  O   UNL     1       1.240  15.267  22.260  0.00  0.00    +0.000 OA
ATOM      3  N   UNL     1       0.415  13.685  20.806  0.00  0.00    +0.000 N 
ATOM      4  C   UNL     1       1.712  13.031  20.650  0.00  0.00    +0.000 C 
ATOM      5  C   UNL     1       1.633  11.524  20.931  0.00  0.00    +0.000 C 
ATOM      6  N   UNL     1       0.520  10.846  20.184  0.00  0.00    +0.000 NA
ATOM      7  C   UNL     1      -0.812  11.570  20.338  0.00  0.00    +0.000 C 
ATOM      8  C   UNL     1      -0.721  13.096  20.070  0.00  0.00    +0.000 C 
ATOM      9  C   UNL     1      -0.667  13.488  18.591  0.00  0.00    +0.000 C 
ENDROOT
BRANCH   7  10
ATOM     10  C   UNL     1      -1.368  11.358  21.762  0.00  0.00    +0.000 C 
ATOM     11  O   UNL     1      -0.968  10.498  22.550  0.00  0.00    +0.000 OA
ATOM     12  N   UNL     1      -2.334  12.250  22.154  0.00  0.00    +0.000 N 
ATOM     13  H   UNL     1      -2.753  12.937  21.538  0.00  0.00    +0.000 HD
BRANCH  12  14
ATOM     14  O   UNL     1      -2.938  12.017  23.410  0.00  0.00    +0.000 OA
ATOM     15  H   UNL     1      -3.897  12.107  23.205  0.00  0.00    +0.000 HD
ENDBRANCH  12  14
ENDBRANCH   7  10
BRANCH   6  16
ATOM     16  S   UNL     1       0.891  10.332  18.599  0.00  0.00    +0.000 S 
ATOM     17  O   UNL     1      -0.358  10.046  17.927  0.00  0.00    +0.000 OA
ATOM     18  O   UNL     1       1.861  11.244  18.040  0.00  0.00    +0.000 OA
BRANCH  16  19
ATOM     19  C   UNL     1       1.705   8.775  18.855  0.00  0.00    +0.000 A 
ATOM     20  C   UNL     1       1.515   8.116  20.069  0.00  0.00    +0.000 A 
ATOM     21  C   UNL     1       2.067   6.847  20.259  0.00  0.00    +0.000 A 
ATOM     22  C   UNL     1       2.771   6.221  19.225  0.00  0.00    +0.000 A 
ATOM     23  C   UNL     1       2.985   6.905  18.025  0.00  0.00    +0.000 A 
ATOM     24  C   UNL     1       2.449   8.182  17.831  0.00  0.00    +0.000 A 
BRANCH  22  25
ATOM     25  O   UNL     1       3.272   4.945  19.282  0.00  0.00    +0.000 OA
BRANCH  25  26
ATOM     26  C   UNL     1       4.669   4.864  19.574  0.00  0.00    +0.000 C 
BRANCH  26  27
ATOM     27  C   UNL     1       5.468   4.697  18.302  0.00  0.00    +0.000 A 
ATOM     28  C   UNL     1       4.830   4.113  17.192  0.00  0.00    +0.000 A 
ATOM     29  C   UNL     1       5.531   3.865  16.013  0.00  0.00    +0.000 A 
ATOM     30  C   UNL     1       6.875   4.203  15.924  0.00  0.00    +0.000 A 
ATOM     31  C   UNL     1       7.515   4.813  17.004  0.00  0.00    +0.000 A 
ATOM     32  C   UNL     1       6.822   5.078  18.196  0.00  0.00    +0.000 A 
ATOM     33  C   UNL     1       7.544   5.759  19.326  0.00  0.00    +0.000 C 
ENDBRANCH  26  27
ENDBRANCH  25  26
ENDBRANCH  22  25
ENDBRANCH  16  19
ENDBRANCH   6  16
BRANCH   1  34
ATOM     34  O   UNL     1      -0.978  15.235  21.739  0.00  0.00    +0.000 OA
BRANCH  34  36
ATOM     35  C   UNL     1      -2.762  15.760  23.312  0.00  0.00    +0.000 C 
ATOM     36  C   UNL     1      -1.305  15.968  22.929  0.00  0.00    +0.000 C 
ENDBRANCH  34  36
ENDBRANCH   1  34
TORSDOF 9
ENDMDL
MODEL 9
REMARK VINA RESULT:      -6.9      1.110      1.278
REMARK  Name = 
REMARK  12 active torsions:
REMARK  status: ('A' for Active; 'I' for Inactive)
REMARK    1  A    between atoms: C_1  and  C_2
REMARK    2  A    between atoms: C_2  and  O_3
REMARK    3  A    between atoms: O_3  and  C_4
REMARK    4  A    between atoms: N_9  and  S_10
REMARK    5  A    between atoms: S_10  and  C_13
REMARK    6  A    between atoms: C_16  and  O_17
REMARK    7  A    between atoms: O_17  and  C_18
REMARK    8  A    between atoms: C_18  and  C_19
REMARK    9  A    between atoms: C_24  and  C_25
REMARK   10  A    between atoms: C_28  and  C_29
REMARK   11  A    between atoms: N_31  and  O_32
REMARK   12  A    between atoms: C_33  and  C_34
REMARK                            x       y       z     vdW  Elec       q    Type
REMARK                         _______ _______ _______ _____ _____    ______ ____
ROOT
ATOM      1  C   UNL     1      -3.480  13.173  23.517  0.00  0.00    +0.000 C 
ATOM      2  O   UNL     1      -3.817  12.420  24.421  0.00  0.00    +0.000 OA
ATOM      3  N   UNL     1      -2.399  12.930  22.681  0.00  0.00    +0.000 N 
ATOM      4  C   UNL     1      -1.620  11.705  22.846  0.00  0.00    +0.000 C 
ATOM      5  C   UNL     1      -1.507  10.916  21.534  0.00  0.00    +0.000 C 
ATOM      6  N   UNL     1      -1.062  11.764  20.377  0.00  0.00    +0.000 NA
ATOM      7  C   UNL     1      -1.869  13.049  20.251  0.00  0.00    +0.000 C 
ATOM      8  C   UNL     1      -1.995  13.833  21.585  0.00  0.00    +0.000 C 
ATOM      9  C   UNL     1      -0.755  14.638  21.979  0.00  0.00    +0.000 C 
ENDROOT
BRANCH   7  10
ATOM     10  C   UNL     1      -3.289  12.734  19.735  0.00  0.00    +0.000 C 
ATOM     11  O   UNL     1      -4.327  13.208  20.201  0.00  0.00    +0.000 OA
ATOM     12  N   UNL     1      -3.345  11.905  18.641  0.00  0.00    +0.000 N 
ATOM     13  H   UNL     1      -2.540  11.431  18.250  0.00  0.00    +0.000 HD
BRANCH  12  14
ATOM     14  O   UNL     1      -4.632  11.512  18.210  0.00  0.00    +0.000 OA
ATOM     15  H   UNL     1      -5.147  12.346  18.291  0.00  0.00    +0.000 HD
ENDBRANCH  12  14
ENDBRANCH   7  10
BRANCH   6  16
ATOM     16  S   UNL     1       0.625  11.941  20.188  0.00  0.00    +0.000 S 
ATOM     17  O   UNL     1       0.849  12.837  19.074  0.00  0.00    +0.000 OA
ATOM     18  O   UNL     1       1.205  12.186  21.487  0.00  0.00    +0.000 OA
BRANCH  16  19
ATOM     19  C   UNL     1       1.149  10.327  19.663  0.00  0.00    +0.000 A 
ATOM     20  C   UNL     1       1.565  10.158  18.343  0.00  0.00    +0.000 A 
ATOM     21  C   UNL     1       2.070   8.923  17.932  0.00  0.00    +0.000 A 
ATOM     22  C   UNL     1       2.198   7.872  18.846  0.00  0.00    +0.000 A 
ATOM     23  C   UNL     1       1.746   8.041  20.157  0.00  0.00    +0.000 A 
ATOM     24  C   UNL     1       1.225   9.270  20.575  0.00  0.00    +0.000 A 
BRANCH  22  25
ATOM     25  O   UNL     1       2.763   6.654  18.563  0.00  0.00    +0.000 OA
BRANCH  25  26
ATOM     26  C   UNL     1       2.723   5.712  19.636  0.00  0.00    +0.000 C 
BRANCH  26  27
ATOM     27  C   UNL     1       2.494   4.314  19.108  0.00  0.00    +0.000 A 
ATOM     28  C   UNL     1       1.186   3.798  19.149  0.00  0.00    +0.000 A 
ATOM     29  C   UNL     1       0.920   2.490  18.745  0.00  0.00    +0.000 A 
ATOM     30  C   UNL     1       1.956   1.684  18.289  0.00  0.00    +0.000 A 
ATOM     31  C   UNL     1       3.253   2.192  18.211  0.00  0.00    +0.000 A 
ATOM     32  C   UNL     1       3.537   3.509  18.606  0.00  0.00    +0.000 A 
ATOM     33  C   UNL     1       4.946   4.021  18.482  0.00  0.00    +0.000 C 
ENDBRANCH  26  27
ENDBRANCH  25  26
ENDBRANCH  22  25
ENDBRANCH  16  19
ENDBRANCH   6  16
BRANCH   1  34
ATOM     34  O   UNL     1      -4.142  14.312  23.195  0.00  0.00    +0.000 OA
BRANCH  34  36
ATOM     35  C   UNL     1      -5.415  16.145  24.171  0.00  0.00    +0.000 C 
ATOM     36  C   UNL     1      -4.112  15.361  24.174  0.00  0.00    +0.000 C 
ENDBRANCH  34  36
ENDBRANCH   1  34
TORSDOF 9
ENDMDL
