MODEL 1
REMARK VINA RESULT:      -9.0      0.000      0.000
REMARK  Name = 
REMARK  9 active torsions:
REMARK  status: ('A' for Active; 'I' for Inactive)
REMARK    1  A    between atoms: C_1  and  O_2
REMARK    2  A    between atoms: O_2  and  C_3
REMARK    3  A    between atoms: C_11  and  C_12
REMARK    4  A    between atoms: C_12  and  C_13
REMARK    5  A    between atoms: C_13  and  O_14
REMARK    6  A    between atoms: C_13  and  C_15
REMARK    7  A    between atoms: C_18  and  N_19
REMARK    8  A    between atoms: N_19  and  C_20
REMARK    9  A    between atoms: C_20  and  C_21
REMARK                            x       y       z     vdW  Elec       q    Type
REMARK                         _______ _______ _______ _____ _____    ______ ____
ROOT
ATOM      1  C   UNL     1       7.743   8.019  17.993  0.00  0.00    +0.000 C 
ATOM      2  O   UNL     1       7.759   7.413  16.704  0.00  0.00    +0.000 OA
ATOM      3  C   UNL     1       7.010   6.214  16.712  0.00  0.00    +0.000 C 
ATOM      4  C   UNL     1       7.588   5.196  17.708  0.00  0.00    +0.000 C 
ATOM      5  C   UNL     1       7.747   5.907  19.073  0.00  0.00    +0.000 C 
ATOM      6  O   UNL     1       8.413   7.171  18.928  0.00  0.00    +0.000 OA
ENDROOT
BRANCH   4   7
ATOM      7  N   UNL     1       6.765   3.973  17.773  0.00  0.00    +0.000 NA
ATOM      8  H   UNL     1       7.291   3.178  17.398  0.00  0.00    +0.000 HD
BRANCH   7   9
ATOM      9  C   UNL     1       5.544   4.114  16.947  0.00  0.00    +0.000 C 
BRANCH   9  10
ATOM     10  C   UNL     1       4.294   3.723  17.685  0.00  0.00    +0.000 A 
ATOM     11  C   UNL     1       3.036   3.897  17.098  0.00  0.00    +0.000 A 
ATOM     12  N   UNL     1       1.882   3.669  17.760  0.00  0.00    +0.000 NA
ATOM     13  C   UNL     1       2.024   3.245  19.032  0.00  0.00    +0.000 A 
ATOM     14  C   UNL     1       3.282   2.991  19.593  0.00  0.00    +0.000 A 
ATOM     15  N   UNL     1       4.435   3.224  18.937  0.00  0.00    +0.000 NA
ATOM     16  O   UNL     1       3.432   2.527  20.871  0.00  0.00    +0.000 OA
ATOM     17  C   UNL     1       2.424   3.120  21.678  0.00  0.00    +0.000 C 
ATOM     18  C   UNL     1       1.030   2.841  21.122  0.00  0.00    +0.000 C 
ATOM     19  O   UNL     1       0.860   3.171  19.742  0.00  0.00    +0.000 OA
ENDBRANCH   9  10
ENDBRANCH   7   9
ENDBRANCH   4   7
BRANCH   1  20
ATOM     20  C   UNL     1       8.491   9.368  17.837  0.00  0.00    +0.000 C 
BRANCH  20  21
ATOM     21  O   UNL     1       7.529  10.421  17.621  0.00  0.00    +0.000 OA
ATOM     22  H   UNL     1       6.745  10.168  18.146  0.00  0.00    +0.000 HD
ENDBRANCH  20  21
BRANCH  20  23
ATOM     23  C   UNL     1       9.315   9.715  19.108  0.00  0.00    +0.000 C 
BRANCH  23  32
ATOM     24  C   UNL     1       8.480  11.920  22.623  0.00  0.00    +0.000 A 
ATOM     25  C   UNL     1       8.566  13.295  22.695  0.00  0.00    +0.000 A 
ATOM     26  C   UNL     1       9.032  13.975  21.576  0.00  0.00    +0.000 A 
ATOM     27  C   UNL     1       9.449  13.281  20.456  0.00  0.00    +0.000 A 
ATOM     28  N   UNL     1      10.054  13.965  19.472  0.00  0.00    +0.000 NA
ATOM     29  C   UNL     1      10.579  13.243  18.466  0.00  0.00    +0.000 A 
ATOM     30  C   UNL     1      10.441  11.872  18.364  0.00  0.00    +0.000 A 
ATOM     31  F   UNL     1      11.098  11.239  17.380  0.00  0.00    +0.000 F 
ATOM     32  C   UNL     1       9.676  11.179  19.298  0.00  0.00    +0.000 A 
ATOM     33  C   UNL     1       9.255  11.872  20.440  0.00  0.00    +0.000 A 
ATOM     34  N   UNL     1       8.751  11.208  21.506  0.00  0.00    +0.000 NA
BRANCH  24  36
ATOM     35  C   UNL     1       8.402  12.065  24.954  0.00  0.00    +0.000 C 
ATOM     36  O   UNL     1       8.175  11.266  23.798  0.00  0.00    +0.000 OA
ENDBRANCH  24  36
ENDBRANCH  23  32
ENDBRANCH  20  23
ENDBRANCH   1  20
TORSDOF 8
ENDMDL
MODEL 2
REMARK VINA RESULT:      -8.7      3.572      9.648
REMARK  Name = 
REMARK  9 active torsions:
REMARK  status: ('A' for Active; 'I' for Inactive)
REMARK    1  A    between atoms: C_1  and  O_2
REMARK    2  A    between atoms: O_2  and  C_3
REMARK    3  A    between atoms: C_11  and  C_12
REMARK    4  A    between atoms: C_12  and  C_13
REMARK    5  A    between atoms: C_13  and  O_14
REMARK    6  A    between atoms: C_13  and  C_15
REMARK    7  A    between atoms: C_18  and  N_19
REMARK    8  A    between atoms: N_19  and  C_20
REMARK    9  A    between atoms: C_20  and  C_21
REMARK                            x       y       z     vdW  Elec       q    Type
REMARK                         _______ _______ _______ _____ _____    ______ ____
ROOT
ATOM      1  C   UNL     1       5.994   4.318  17.472  0.00  0.00    +0.000 C 
ATOM      2  O   UNL     1       5.300   5.300  16.709  0.00  0.00    +0.000 OA
ATOM      3  C   UNL     1       6.160   6.375  16.388  0.00  0.00    +0.000 C 
ATOM      4  C   UNL     1       6.692   7.067  17.654  0.00  0.00    +0.000 C 
ATOM      5  C   UNL     1       7.284   5.975  18.575  0.00  0.00    +0.000 C 
ATOM      6  O   UNL     1       6.375   4.875  18.733  0.00  0.00    +0.000 OA
ENDROOT
BRANCH   4   7
ATOM      7  N   UNL     1       7.648   8.142  17.324  0.00  0.00    +0.000 NA
ATOM      8  H   UNL     1       8.278   7.831  16.579  0.00  0.00    +0.000 HD
BRANCH   7   9
ATOM      9  C   UNL     1       8.492   8.475  18.494  0.00  0.00    +0.000 C 
BRANCH   9  10
ATOM     10  C   UNL     1       8.816   9.941  18.579  0.00  0.00    +0.000 A 
ATOM     11  C   UNL     1       8.247  10.849  17.681  0.00  0.00    +0.000 A 
ATOM     12  N   UNL     1       8.592  12.154  17.642  0.00  0.00    +0.000 NA
ATOM     13  C   UNL     1       9.522  12.527  18.544  0.00  0.00    +0.000 A 
ATOM     14  C   UNL     1      10.031  11.637  19.497  0.00  0.00    +0.000 A 
ATOM     15  N   UNL     1       9.693  10.334  19.534  0.00  0.00    +0.000 NA
ATOM     16  O   UNL     1      10.948  12.019  20.438  0.00  0.00    +0.000 OA
ATOM     17  C   UNL     1      11.824  12.967  19.843  0.00  0.00    +0.000 C 
ATOM     18  C   UNL     1      11.052  14.154  19.271  0.00  0.00    +0.000 C 
ATOM     19  O   UNL     1       9.981  13.805  18.393  0.00  0.00    +0.000 OA
ENDBRANCH   9  10
ENDBRANCH   7   9
ENDBRANCH   4   7
BRANCH   1  20
ATOM     20  C   UNL     1       4.996   3.147  17.665  0.00  0.00    +0.000 C 
BRANCH  20  21
ATOM     21  O   UNL     1       5.042   2.706  19.038  0.00  0.00    +0.000 OA
ATOM     22  H   UNL     1       5.926   2.305  19.152  0.00  0.00    +0.000 HD
ENDBRANCH  20  21
BRANCH  20  23
ATOM     23  C   UNL     1       3.539   3.579  17.341  0.00  0.00    +0.000 C 
BRANCH  23  32
ATOM     24  C   UNL     1       2.531   7.467  18.675  0.00  0.00    +0.000 A 
ATOM     25  C   UNL     1       1.942   7.722  19.896  0.00  0.00    +0.000 A 
ATOM     26  C   UNL     1       1.588   6.634  20.685  0.00  0.00    +0.000 A 
ATOM     27  C   UNL     1       1.772   5.343  20.225  0.00  0.00    +0.000 A 
ATOM     28  N   UNL     1       1.255   4.333  20.942  0.00  0.00    +0.000 NA
ATOM     29  C   UNL     1       1.322   3.106  20.394  0.00  0.00    +0.000 A 
ATOM     30  C   UNL     1       1.964   2.842  19.200  0.00  0.00    +0.000 A 
ATOM     31  F   UNL     1       1.874   1.604  18.689  0.00  0.00    +0.000 F 
ATOM     32  C   UNL     1       2.639   3.861  18.534  0.00  0.00    +0.000 A 
ATOM     33  C   UNL     1       2.454   5.173  18.989  0.00  0.00    +0.000 A 
ATOM     34  N   UNL     1       2.850   6.228  18.239  0.00  0.00    +0.000 NA
BRANCH  24  36
ATOM     35  C   UNL     1       1.759   9.587  18.065  0.00  0.00    +0.000 C 
ATOM     36  O   UNL     1       2.716   8.555  17.848  0.00  0.00    +0.000 OA
ENDBRANCH  24  36
ENDBRANCH  23  32
ENDBRANCH  20  23
ENDBRANCH   1  20
TORSDOF 8
ENDMDL
MODEL 3
REMARK VINA RESULT:      -8.4      7.678     10.720
REMARK  Name = 
REMARK  9 active torsions:
REMARK  status: ('A' for Active; 'I' for Inactive)
REMARK    1  A    between atoms: C_1  and  O_2
REMARK    2  A    between atoms: O_2  and  C_3
REMARK    3  A    between atoms: C_11  and  C_12
REMARK    4  A    between atoms: C_12  and  C_13
REMARK    5  A    between atoms: C_13  and  O_14
REMARK    6  A    between atoms: C_13  and  C_15
REMARK    7  A    between atoms: C_18  and  N_19
REMARK    8  A    between atoms: N_19  and  C_20
REMARK    9  A    between atoms: C_20  and  C_21
REMARK                            x       y       z     vdW  Elec       q    Type
REMARK                         _______ _______ _______ _____ _____    ______ ____
ROOT
ATOM      1  C   UNL     1       1.545   8.768  20.428  0.00  0.00    +0.000 C 
ATOM      2  O   UNL     1       0.781   9.779  19.776  0.00  0.00    +0.000 OA
ATOM      3  C   UNL     1       0.551  10.865  20.651  0.00  0.00    +0.000 C 
ATOM      4  C   UNL     1      -0.233  10.427  21.899  0.00  0.00    +0.000 C 
ATOM      5  C   UNL     1       0.494   9.206  22.509  0.00  0.00    +0.000 C 
ATOM      6  O   UNL     1       0.787   8.219  21.508  0.00  0.00    +0.000 OA
ENDROOT
BRANCH   4   7
ATOM      7  N   UNL     1      -0.409  11.544  22.848  0.00  0.00    +0.000 NA
ATOM      8  H   UNL     1      -1.083  11.281  23.573  0.00  0.00    +0.000 HD
BRANCH   7   9
ATOM      9  C   UNL     1      -0.954  12.738  22.163  0.00  0.00    +0.000 C 
BRANCH   9  10
ATOM     10  C   UNL     1      -2.456  12.736  22.095  0.00  0.00    +0.000 A 
ATOM     11  C   UNL     1      -3.220  12.594  23.258  0.00  0.00    +0.000 A 
ATOM     12  N   UNL     1      -4.565  12.472  23.239  0.00  0.00    +0.000 NA
ATOM     13  C   UNL     1      -5.127  12.510  22.014  0.00  0.00    +0.000 A 
ATOM     14  C   UNL     1      -4.370  12.735  20.858  0.00  0.00    +0.000 A 
ATOM     15  N   UNL     1      -3.028  12.851  20.873  0.00  0.00    +0.000 NA
ATOM     16  O   UNL     1      -4.939  12.810  19.615  0.00  0.00    +0.000 OA
ATOM     17  C   UNL     1      -6.017  11.885  19.565  0.00  0.00    +0.000 C 
ATOM     18  C   UNL     1      -7.026  12.147  20.680  0.00  0.00    +0.000 C 
ATOM     19  O   UNL     1      -6.462  12.226  21.991  0.00  0.00    +0.000 OA
ENDBRANCH   9  10
ENDBRANCH   7   9
ENDBRANCH   4   7
BRANCH   1  20
ATOM     20  C   UNL     1       1.830   7.691  19.350  0.00  0.00    +0.000 C 
BRANCH  20  21
ATOM     21  O   UNL     1       2.715   8.241  18.352  0.00  0.00    +0.000 OA
ATOM     22  H   UNL     1       2.131   8.668  17.695  0.00  0.00    +0.000 HD
ENDBRANCH  20  21
BRANCH  20  23
ATOM     23  C   UNL     1       2.510   6.435  19.964  0.00  0.00    +0.000 C 
BRANCH  23  32
ATOM     24  C   UNL     1       5.801   5.327  17.544  0.00  0.00    +0.000 A 
ATOM     25  C   UNL     1       5.731   4.359  16.564  0.00  0.00    +0.000 A 
ATOM     26  C   UNL     1       4.538   3.659  16.428  0.00  0.00    +0.000 A 
ATOM     27  C   UNL     1       3.484   3.893  17.292  0.00  0.00    +0.000 A 
ATOM     28  N   UNL     1       2.422   3.074  17.236  0.00  0.00    +0.000 NA
ATOM     29  C   UNL     1       1.482   3.236  18.185  0.00  0.00    +0.000 A 
ATOM     30  C   UNL     1       1.523   4.242  19.130  0.00  0.00    +0.000 A 
ATOM     31  F   UNL     1       0.593   4.244  20.098  0.00  0.00    +0.000 F 
ATOM     32  C   UNL     1       2.541   5.191  19.090  0.00  0.00    +0.000 A 
ATOM     33  C   UNL     1       3.616   4.960  18.223  0.00  0.00    +0.000 A 
ATOM     34  N   UNL     1       4.756   5.682  18.325  0.00  0.00    +0.000 NA
BRANCH  24  36
ATOM     35  C   UNL     1       7.102   7.264  17.421  0.00  0.00    +0.000 C 
ATOM     36  O   UNL     1       7.043   5.884  17.764  0.00  0.00    +0.000 OA
ENDBRANCH  24  36
ENDBRANCH  23  32
ENDBRANCH  20  23
ENDBRANCH   1  20
TORSDOF 8
ENDMDL
MODEL 4
REMARK VINA RESULT:      -8.3      7.959     10.891
REMARK  Name = 
REMARK  9 active torsions:
REMARK  status: ('A' for Active; 'I' for Inactive)
REMARK    1  A    between atoms: C_1  and  O_2
REMARK    2  A    between atoms: O_2  and  C_3
REMARK    3  A    between atoms: C_11  and  C_12
REMARK    4  A    between atoms: C_12  and  C_13
REMARK    5  A    between atoms: C_13  and  O_14
REMARK    6  A    between atoms: C_13  and  C_15
REMARK    7  A    between atoms: C_18  and  N_19
REMARK    8  A    between atoms: N_19  and  C_20
REMARK    9  A    between atoms: C_20  and  C_21
REMARK                            x       y       z     vdW  Elec       q    Type
REMARK                         _______ _______ _______ _____ _____    ______ ____
ROOT
ATOM      1  C   UNL     1       1.515   8.853  20.103  0.00  0.00    +0.000 C 
ATOM      2  O   UNL     1       0.703   9.776  19.383  0.00  0.00    +0.000 OA
ATOM      3  C   UNL     1       0.351  10.869  20.206  0.00  0.00    +0.000 C 
ATOM      4  C   UNL     1      -0.451  10.413  21.436  0.00  0.00    +0.000 C 
ATOM      5  C   UNL     1       0.342   9.275  22.121  0.00  0.00    +0.000 C 
ATOM      6  O   UNL     1       0.756   8.281  21.171  0.00  0.00    +0.000 OA
ENDROOT
BRANCH   4   7
ATOM      7  N   UNL     1      -0.757  11.542  22.335  0.00  0.00    +0.000 NA
ATOM      8  H   UNL     1      -1.228  11.200  23.177  0.00  0.00    +0.000 HD
BRANCH   7   9
ATOM      9  C   UNL     1      -1.677  12.502  21.683  0.00  0.00    +0.000 C 
BRANCH   9  10
ATOM     10  C   UNL     1      -3.018  12.574  22.359  0.00  0.00    +0.000 A 
ATOM     11  C   UNL     1      -3.151  12.245  23.712  0.00  0.00    +0.000 A 
ATOM     12  N   UNL     1      -4.347  12.184  24.336  0.00  0.00    +0.000 NA
ATOM     13  C   UNL     1      -5.412  12.477  23.562  0.00  0.00    +0.000 A 
ATOM     14  C   UNL     1      -5.272  12.886  22.231  0.00  0.00    +0.000 A 
ATOM     15  N   UNL     1      -4.081  12.942  21.605  0.00  0.00    +0.000 NA
ATOM     16  O   UNL     1      -6.346  13.220  21.452  0.00  0.00    +0.000 OA
ATOM     17  C   UNL     1      -7.428  12.366  21.800  0.00  0.00    +0.000 C 
ATOM     18  C   UNL     1      -7.745  12.451  23.291  0.00  0.00    +0.000 C 
ATOM     19  O   UNL     1      -6.623  12.258  24.154  0.00  0.00    +0.000 OA
ENDBRANCH   9  10
ENDBRANCH   7   9
ENDBRANCH   4   7
BRANCH   1  20
ATOM     20  C   UNL     1       1.932   7.765  19.079  0.00  0.00    +0.000 C 
BRANCH  20  21
ATOM     21  O   UNL     1       2.857   8.337  18.131  0.00  0.00    +0.000 OA
ATOM     22  H   UNL     1       3.617   8.641  18.662  0.00  0.00    +0.000 HD
ENDBRANCH  20  21
BRANCH  20  23
ATOM     23  C   UNL     1       2.628   6.563  19.774  0.00  0.00    +0.000 C 
BRANCH  23  32
ATOM     24  C   UNL     1       5.995   5.433  17.471  0.00  0.00    +0.000 A 
ATOM     25  C   UNL     1       5.973   4.413  16.543  0.00  0.00    +0.000 A 
ATOM     26  C   UNL     1       4.804   3.669  16.426  0.00  0.00    +0.000 A 
ATOM     27  C   UNL     1       3.728   3.915  17.258  0.00  0.00    +0.000 A 
ATOM     28  N   UNL     1       2.693   3.061  17.229  0.00  0.00    +0.000 NA
ATOM     29  C   UNL     1       1.732   3.243  18.152  0.00  0.00    +0.000 A 
ATOM     30  C   UNL     1       1.725   4.299  19.042  0.00  0.00    +0.000 A 
ATOM     31  F   UNL     1       0.778   4.322  19.993  0.00  0.00    +0.000 F 
ATOM     32  C   UNL     1       2.714   5.276  18.969  0.00  0.00    +0.000 A 
ATOM     33  C   UNL     1       3.811   5.033  18.133  0.00  0.00    +0.000 A 
ATOM     34  N   UNL     1       4.926   5.796  18.215  0.00  0.00    +0.000 NA
BRANCH  24  36
ATOM     35  C   UNL     1       7.182   7.446  17.460  0.00  0.00    +0.000 C 
ATOM     36  O   UNL     1       7.216   6.040  17.681  0.00  0.00    +0.000 OA
ENDBRANCH  24  36
ENDBRANCH  23  32
ENDBRANCH  20  23
ENDBRANCH   1  20
TORSDOF 8
ENDMDL
MODEL 5
REMARK VINA RESULT:      -8.2      7.716     10.539
REMARK  Name = 
REMARK  9 active torsions:
REMARK  status: ('A' for Active; 'I' for Inactive)
REMARK    1  A    between atoms: C_1  and  O_2
REMARK    2  A    between atoms: O_2  and  C_3
REMARK    3  A    between atoms: C_11  and  C_12
REMARK    4  A    between atoms: C_12  and  C_13
REMARK    5  A    between atoms: C_13  and  O_14
REMARK    6  A    between atoms: C_13  and  C_15
REMARK    7  A    between atoms: C_18  and  N_19
REMARK    8  A    between atoms: N_19  and  C_20
REMARK    9  A    between atoms: C_20  and  C_21
REMARK                            x       y       z     vdW  Elec       q    Type
REMARK                         _______ _______ _______ _____ _____    ______ ____
ROOT
ATOM      1  C   UNL     1       0.967   9.680  18.712  0.00  0.00    +0.000 C 
ATOM      2  O   UNL     1       0.749   9.366  20.085  0.00  0.00    +0.000 OA
ATOM      3  C   UNL     1       0.009  10.393  20.714  0.00  0.00    +0.000 C 
ATOM      4  C   UNL     1       0.754  11.737  20.661  0.00  0.00    +0.000 C 
ATOM      5  C   UNL     1       1.159  11.995  19.190  0.00  0.00    +0.000 C 
ATOM      6  O   UNL     1       1.793  10.842  18.614  0.00  0.00    +0.000 OA
ENDROOT
BRANCH   4   7
ATOM      7  N   UNL     1      -0.048  12.827  21.251  0.00  0.00    +0.000 NA
ATOM      8  H   UNL     1       0.563  13.604  21.516  0.00  0.00    +0.000 HD
BRANCH   7   9
ATOM      9  C   UNL     1      -0.730  12.371  22.484  0.00  0.00    +0.000 C 
BRANCH   9  10
ATOM     10  C   UNL     1      -2.224  12.524  22.412  0.00  0.00    +0.000 A 
ATOM     11  C   UNL     1      -3.021  12.251  23.528  0.00  0.00    +0.000 A 
ATOM     12  N   UNL     1      -4.371  12.263  23.484  0.00  0.00    +0.000 NA
ATOM     13  C   UNL     1      -4.902  12.571  22.283  0.00  0.00    +0.000 A 
ATOM     14  C   UNL     1      -4.104  12.925  21.188  0.00  0.00    +0.000 A 
ATOM     15  N   UNL     1      -2.758  12.908  21.228  0.00  0.00    +0.000 NA
ATOM     16  O   UNL     1      -4.639  13.274  19.978  0.00  0.00    +0.000 OA
ATOM     17  C   UNL     1      -5.797  12.479  19.759  0.00  0.00    +0.000 C 
ATOM     18  C   UNL     1      -6.799  12.633  20.900  0.00  0.00    +0.000 C 
ATOM     19  O   UNL     1      -6.258  12.424  22.206  0.00  0.00    +0.000 OA
ENDBRANCH   9  10
ENDBRANCH   7   9
ENDBRANCH   4   7
BRANCH   1  20
ATOM     20  C   UNL     1       1.679   8.444  18.103  0.00  0.00    +0.000 C 
BRANCH  20  21
ATOM     21  O   UNL     1       2.675   8.888  17.158  0.00  0.00    +0.000 OA
ATOM     22  H   UNL     1       2.393   9.784  16.887  0.00  0.00    +0.000 HD
ENDBRANCH  20  21
BRANCH  20  23
ATOM     23  C   UNL     1       2.390   7.598  19.196  0.00  0.00    +0.000 C 
BRANCH  23  32
ATOM     24  C   UNL     1       5.491   6.204  16.675  0.00  0.00    +0.000 A 
ATOM     25  C   UNL     1       5.541   4.921  16.171  0.00  0.00    +0.000 A 
ATOM     26  C   UNL     1       4.564   4.023  16.586  0.00  0.00    +0.000 A 
ATOM     27  C   UNL     1       3.615   4.399  17.518  0.00  0.00    +0.000 A 
ATOM     28  N   UNL     1       2.806   3.452  18.019  0.00  0.00    +0.000 NA
ATOM     29  C   UNL     1       1.996   3.820  19.028  0.00  0.00    +0.000 A 
ATOM     30  C   UNL     1       1.903   5.118  19.493  0.00  0.00    +0.000 A 
ATOM     31  F   UNL     1       1.147   5.353  20.576  0.00  0.00    +0.000 F 
ATOM     32  C   UNL     1       2.624   6.132  18.868  0.00  0.00    +0.000 A 
ATOM     33  C   UNL     1       3.592   5.761  17.927  0.00  0.00    +0.000 A 
ATOM     34  N   UNL     1       4.507   6.655  17.486  0.00  0.00    +0.000 NA
BRANCH  24  36
ATOM     35  C   UNL     1       7.287   7.428  17.533  0.00  0.00    +0.000 C 
ATOM     36  O   UNL     1       6.563   7.018  16.378  0.00  0.00    +0.000 OA
ENDBRANCH  24  36
ENDBRANCH  23  32
ENDBRANCH  20  23
ENDBRANCH   1  20
TORSDOF 8
ENDMDL
MODEL 6
REMARK VINA RESULT:      -8.2      7.348     10.301
REMARK  Name = 
REMARK  9 active torsions:
REMARK  status: ('A' for Active; 'I' for Inactive)
REMARK    1  A    between atoms: C_1  and  O_2
REMARK    2  A    between atoms: O_2  and  C_3
REMARK    3  A    between atoms: C_11  and  C_12
REMARK    4  A    between atoms: C_12  and  C_13
REMARK    5  A    between atoms: C_13  and  O_14
REMARK    6  A    between atoms: C_13  and  C_15
REMARK    7  A    between atoms: C_18  and  N_19
REMARK    8  A    between atoms: N_19  and  C_20
REMARK    9  A    between atoms: C_20  and  C_21
REMARK                            x       y       z     vdW  Elec       q    Type
REMARK                         _______ _______ _______ _____ _____    ______ ____
ROOT
ATOM      1  C   UNL     1       1.899   8.365  20.068  0.00  0.00    +0.000 C 
ATOM      2  O   UNL     1       1.499   8.808  18.774  0.00  0.00    +0.000 OA
ATOM      3  C   UNL     1       1.094  10.162  18.820  0.00  0.00    +0.000 C 
ATOM      4  C   UNL     1      -0.101  10.360  19.766  0.00  0.00    +0.000 C 
ATOM      5  C   UNL     1       0.259   9.713  21.124  0.00  0.00    +0.000 C 
ATOM      6  O   UNL     1       0.774   8.385  20.949  0.00  0.00    +0.000 OA
ENDROOT
BRANCH   4   7
ATOM      7  N   UNL     1      -0.479  11.783  19.873  0.00  0.00    +0.000 NA
ATOM      8  H   UNL     1      -0.975  11.947  20.754  0.00  0.00    +0.000 HD
BRANCH   7   9
ATOM      9  C   UNL     1      -1.401  12.167  18.779  0.00  0.00    +0.000 C 
BRANCH   9  10
ATOM     10  C   UNL     1      -2.837  12.223  19.221  0.00  0.00    +0.000 A 
ATOM     11  C   UNL     1      -3.183  12.810  20.442  0.00  0.00    +0.000 A 
ATOM     12  N   UNL     1      -4.440  12.785  20.936  0.00  0.00    +0.000 NA
ATOM     13  C   UNL     1      -5.349  12.161  20.158  0.00  0.00    +0.000 A 
ATOM     14  C   UNL     1      -5.018  11.647  18.899  0.00  0.00    +0.000 A 
ATOM     15  N   UNL     1      -3.765  11.666  18.407  0.00  0.00    +0.000 NA
ATOM     16  O   UNL     1      -5.944  11.045  18.090  0.00  0.00    +0.000 OA
ATOM     17  C   UNL     1      -6.849  10.323  18.914  0.00  0.00    +0.000 C 
ATOM     18  C   UNL     1      -7.496  11.231  19.957  0.00  0.00    +0.000 C 
ATOM     19  O   UNL     1      -6.576  12.000  20.735  0.00  0.00    +0.000 OA
ENDBRANCH   9  10
ENDBRANCH   7   9
ENDBRANCH   4   7
BRANCH   1  20
ATOM     20  C   UNL     1       2.426   6.919  19.876  0.00  0.00    +0.000 C 
BRANCH  20  21
ATOM     21  O   UNL     1       1.825   6.061  20.869  0.00  0.00    +0.000 OA
ATOM     22  H   UNL     1       1.207   6.632  21.365  0.00  0.00    +0.000 HD
ENDBRANCH  20  21
BRANCH  20  23
ATOM     23  C   UNL     1       2.068   6.362  18.471  0.00  0.00    +0.000 C 
BRANCH  23  32
ATOM     24  C   UNL     1       5.934   6.363  16.750  0.00  0.00    +0.000 A 
ATOM     25  C   UNL     1       6.486   5.266  16.120  0.00  0.00    +0.000 A 
ATOM     26  C   UNL     1       5.760   4.081  16.131  0.00  0.00    +0.000 A 
ATOM     27  C   UNL     1       4.556   4.000  16.804  0.00  0.00    +0.000 A 
ATOM     28  N   UNL     1       3.981   2.794  16.936  0.00  0.00    +0.000 NA
ATOM     29  C   UNL     1       2.889   2.727  17.721  0.00  0.00    +0.000 A 
ATOM     30  C   UNL     1       2.304   3.834  18.302  0.00  0.00    +0.000 A 
ATOM     31  F   UNL     1       1.286   3.640  19.155  0.00  0.00    +0.000 F 
ATOM     32  C   UNL     1       2.804   5.105  18.036  0.00  0.00    +0.000 A 
ATOM     33  C   UNL     1       4.027   5.197  17.360  0.00  0.00    +0.000 A 
ATOM     34  N   UNL     1       4.703   6.369  17.308  0.00  0.00    +0.000 NA
BRANCH  24  36
ATOM     35  C   UNL     1       7.740   7.328  17.876  0.00  0.00    +0.000 C 
ATOM     36  O   UNL     1       6.747   7.471  16.867  0.00  0.00    +0.000 OA
ENDBRANCH  24  36
ENDBRANCH  23  32
ENDBRANCH  20  23
ENDBRANCH   1  20
TORSDOF 8
ENDMDL
MODEL 7
REMARK VINA RESULT:      -8.2      7.891     10.745
REMARK  Name = 
REMARK  9 active torsions:
REMARK  status: ('A' for Active; 'I' for Inactive)
REMARK    1  A    between atoms: C_1  and  O_2
REMARK    2  A    between atoms: O_2  and  C_3
REMARK    3  A    between atoms: C_11  and  C_12
REMARK    4  A    between atoms: C_12  and  C_13
REMARK    5  A    between atoms: C_13  and  O_14
REMARK    6  A    between atoms: C_13  and  C_15
REMARK    7  A    between atoms: C_18  and  N_19
REMARK    8  A    between atoms: N_19  and  C_20
REMARK    9  A    between atoms: C_20  and  C_21
REMARK                            x       y       z     vdW  Elec       q    Type
REMARK                         _______ _______ _______ _____ _____    ______ ____
ROOT
ATOM      1  C   UNL     1       1.074   9.346  18.913  0.00  0.00    +0.000 C 
ATOM      2  O   UNL     1       1.216   9.000  20.287  0.00  0.00    +0.000 OA
ATOM      3  C   UNL     1       0.509   9.913  21.102  0.00  0.00    +0.000 C 
ATOM      4  C   UNL     1       1.038  11.346  20.931  0.00  0.00    +0.000 C 
ATOM      5  C   UNL     1       1.062  11.664  19.417  0.00  0.00    +0.000 C 
ATOM      6  O   UNL     1       1.695  10.611  18.673  0.00  0.00    +0.000 OA
ENDROOT
BRANCH   4   7
ATOM      7  N   UNL     1       0.255  12.313  21.724  0.00  0.00    +0.000 NA
ATOM      8  H   UNL     1       0.856  12.758  22.423  0.00  0.00    +0.000 HD
BRANCH   7   9
ATOM      9  C   UNL     1      -0.835  11.632  22.460  0.00  0.00    +0.000 C 
BRANCH   9  10
ATOM     10  C   UNL     1      -1.999  12.538  22.748  0.00  0.00    +0.000 A 
ATOM     11  C   UNL     1      -1.808  13.749  23.422  0.00  0.00    +0.000 A 
ATOM     12  N   UNL     1      -2.831  14.543  23.804  0.00  0.00    +0.000 NA
ATOM     13  C   UNL     1      -4.060  14.092  23.477  0.00  0.00    +0.000 A 
ATOM     14  C   UNL     1      -4.245  12.922  22.730  0.00  0.00    +0.000 A 
ATOM     15  N   UNL     1      -3.227  12.125  22.353  0.00  0.00    +0.000 NA
ATOM     16  O   UNL     1      -5.487  12.479  22.365  0.00  0.00    +0.000 OA
ATOM     17  C   UNL     1      -6.391  12.774  23.421  0.00  0.00    +0.000 C 
ATOM     18  C   UNL     1      -6.385  14.262  23.758  0.00  0.00    +0.000 C 
ATOM     19  O   UNL     1      -5.091  14.815  24.005  0.00  0.00    +0.000 OA
ENDBRANCH   9  10
ENDBRANCH   7   9
ENDBRANCH   4   7
BRANCH   1  20
ATOM     20  C   UNL     1       1.786   8.222  18.116  0.00  0.00    +0.000 C 
BRANCH  20  21
ATOM     21  O   UNL     1       2.686   8.818  17.158  0.00  0.00    +0.000 OA
ATOM     22  H   UNL     1       2.150   8.962  16.354  0.00  0.00    +0.000 HD
ENDBRANCH  20  21
BRANCH  20  23
ATOM     23  C   UNL     1       2.613   7.296  19.050  0.00  0.00    +0.000 C 
BRANCH  23  32
ATOM     24  C   UNL     1       5.796   6.064  16.548  0.00  0.00    +0.000 A 
ATOM     25  C   UNL     1       5.831   4.841  15.909  0.00  0.00    +0.000 A 
ATOM     26  C   UNL     1       4.804   3.943  16.174  0.00  0.00    +0.000 A 
ATOM     27  C   UNL     1       3.820   4.252  17.094  0.00  0.00    +0.000 A 
ATOM     28  N   UNL     1       2.954   3.289  17.447  0.00  0.00    +0.000 NA
ATOM     29  C   UNL     1       2.104   3.577  18.449  0.00  0.00    +0.000 A 
ATOM     30  C   UNL     1       2.030   4.819  19.048  0.00  0.00    +0.000 A 
ATOM     31  F   UNL     1       1.225   4.965  20.112  0.00  0.00    +0.000 F 
ATOM     32  C   UNL     1       2.816   5.867  18.575  0.00  0.00    +0.000 A 
ATOM     33  C   UNL     1       3.820   5.562  17.648  0.00  0.00    +0.000 A 
ATOM     34  N   UNL     1       4.787   6.462  17.354  0.00  0.00    +0.000 NA
BRANCH  24  36
ATOM     35  C   UNL     1       7.225   7.607  17.567  0.00  0.00    +0.000 C 
ATOM     36  O   UNL     1       6.910   6.863  16.395  0.00  0.00    +0.000 OA
ENDBRANCH  24  36
ENDBRANCH  23  32
ENDBRANCH  20  23
ENDBRANCH   1  20
TORSDOF 8
ENDMDL
MODEL 8
REMARK VINA RESULT:      -8.2      8.601     10.608
REMARK  Name = 
REMARK  9 active torsions:
REMARK  status: ('A' for Active; 'I' for Inactive)
REMARK    1  A    between atoms: C_1  and  O_2
REMARK    2  A    between atoms: O_2  and  C_3
REMARK    3  A    between atoms: C_11  and  C_12
REMARK    4  A    between atoms: C_12  and  C_13
REMARK    5  A    between atoms: C_13  and  O_14
REMARK    6  A    between atoms: C_13  and  C_15
REMARK    7  A    between atoms: C_18  and  N_19
REMARK    8  A    between atoms: N_19  and  C_20
REMARK    9  A    between atoms: C_20  and  C_21
REMARK                            x       y       z     vdW  Elec       q    Type
REMARK                         _______ _______ _______ _____ _____    ______ ____
ROOT
ATOM      1  C   UNL     1      -0.632  11.709  22.263  0.00  0.00    +0.000 C 
ATOM      2  O   UNL     1       0.536  11.738  21.448  0.00  0.00    +0.000 OA
ATOM      3  C   UNL     1       0.755  10.475  20.853  0.00  0.00    +0.000 C 
ATOM      4  C   UNL     1       0.960   9.381  21.914  0.00  0.00    +0.000 C 
ATOM      5  C   UNL     1      -0.217   9.466  22.914  0.00  0.00    +0.000 C 
ATOM      6  O   UNL     1      -0.427  10.815  23.360  0.00  0.00    +0.000 OA
ENDROOT
BRANCH   4   7
ATOM      7  N   UNL     1       1.115   8.049  21.298  0.00  0.00    +0.000 NA
ATOM      8  H   UNL     1       1.674   7.446  21.907  0.00  0.00    +0.000 HD
BRANCH   7   9
ATOM      9  C   UNL     1       1.832   8.145  20.006  0.00  0.00    +0.000 C 
BRANCH   9  10
ATOM     10  C   UNL     1       2.345   6.816  19.524  0.00  0.00    +0.000 A 
ATOM     11  C   UNL     1       2.968   6.703  18.278  0.00  0.00    +0.000 A 
ATOM     12  N   UNL     1       3.343   5.518  17.752  0.00  0.00    +0.000 NA
ATOM     13  C   UNL     1       3.084   4.441  18.523  0.00  0.00    +0.000 A 
ATOM     14  C   UNL     1       2.536   4.562  19.805  0.00  0.00    +0.000 A 
ATOM     15  N   UNL     1       2.156   5.743  20.329  0.00  0.00    +0.000 NA
ATOM     16  O   UNL     1       2.304   3.477  20.606  0.00  0.00    +0.000 OA
ATOM     17  C   UNL     1       1.894   2.396  19.779  0.00  0.00    +0.000 C 
ATOM     18  C   UNL     1       2.926   2.104  18.693  0.00  0.00    +0.000 C 
ATOM     19  O   UNL     1       3.318   3.239  17.918  0.00  0.00    +0.000 OA
ENDBRANCH   9  10
ENDBRANCH   7   9
ENDBRANCH   4   7
BRANCH   1  20
ATOM     20  C   UNL     1      -0.835  13.162  22.766  0.00  0.00    +0.000 C 
BRANCH  20  21
ATOM     21  O   UNL     1       0.390  13.902  22.583  0.00  0.00    +0.000 OA
ATOM     22  H   UNL     1       0.112  14.809  22.352  0.00  0.00    +0.000 HD
ENDBRANCH  20  21
BRANCH  20  23
ATOM     23  C   UNL     1      -1.963  13.886  21.980  0.00  0.00    +0.000 C 
BRANCH  23  32
ATOM     24  C   UNL     1      -4.061  11.916  18.877  0.00  0.00    +0.000 A 
ATOM     25  C   UNL     1      -5.411  11.637  18.930  0.00  0.00    +0.000 A 
ATOM     26  C   UNL     1      -6.090  11.947  20.102  0.00  0.00    +0.000 A 
ATOM     27  C   UNL     1      -5.413  12.462  21.192  0.00  0.00    +0.000 A 
ATOM     28  N   UNL     1      -6.074  12.579  22.354  0.00  0.00    +0.000 NA
ATOM     29  C   UNL     1      -5.349  12.943  23.429  0.00  0.00    +0.000 A 
ATOM     30  C   UNL     1      -4.011  13.279  23.363  0.00  0.00    +0.000 A 
ATOM     31  F   UNL     1      -3.359  13.518  24.511  0.00  0.00    +0.000 F 
ATOM     32  C   UNL     1      -3.363  13.314  22.131  0.00  0.00    +0.000 A 
ATOM     33  C   UNL     1      -4.039  12.788  21.023  0.00  0.00    +0.000 A 
ATOM     34  N   UNL     1      -3.382  12.539  19.866  0.00  0.00    +0.000 NA
BRANCH  24  36
ATOM     35  C   UNL     1      -1.987  11.712  17.819  0.00  0.00    +0.000 C 
ATOM     36  O   UNL     1      -3.385  11.447  17.770  0.00  0.00    +0.000 OA
ENDBRANCH  24  36
ENDBRANCH  23  32
ENDBRANCH  20  23
ENDBRANCH   1  20
TORSDOF 8
ENDMDL
MODEL 9
REMARK VINA RESULT:      -8.1      7.983     10.711
REMARK  Name = 
REMARK  9 active torsions:
REMARK  status: ('A' for Active; 'I' for Inactive)
REMARK    1  A    between atoms: C_1  and  O_2
REMARK    2  A    between atoms: O_2  and  C_3
REMARK    3  A    between atoms: C_11  and  C_12
REMARK    4  A    between atoms: C_12  and  C_13
REMARK    5  A    between atoms: C_13  and  O_14
REMARK    6  A    between atoms: C_13  and  C_15
REMARK    7  A    between atoms: C_18  and  N_19
REMARK    8  A    between atoms: N_19  and  C_20
REMARK    9  A    between atoms: C_20  and  C_21
REMARK                            x       y       z     vdW  Elec       q    Type
REMARK                         _______ _______ _______ _____ _____    ______ ____
ROOT
ATOM      1  C   UNL     1       1.396   9.364  18.845  0.00  0.00    +0.000 C 
ATOM      2  O   UNL     1       0.211   9.760  18.161  0.00  0.00    +0.000 OA
ATOM      3  C   UNL     1      -0.306  10.952  18.718  0.00  0.00    +0.000 C 
ATOM      4  C   UNL     1      -0.668  10.769  20.201  0.00  0.00    +0.000 C 
ATOM      5  C   UNL     1       0.562  10.162  20.917  0.00  0.00    +0.000 C 
ATOM      6  O   UNL     1       1.079   9.031  20.198  0.00  0.00    +0.000 OA
ENDROOT
BRANCH   4   7
ATOM      7  N   UNL     1      -1.138  12.031  20.805  0.00  0.00    +0.000 NA
ATOM      8  H   UNL     1      -1.620  11.836  21.688  0.00  0.00    +0.000 HD
BRANCH   7   9
ATOM      9  C   UNL     1      -2.113  12.708  19.919  0.00  0.00    +0.000 C 
BRANCH   9  10
ATOM     10  C   UNL     1      -3.533  12.548  20.386  0.00  0.00    +0.000 A 
ATOM     11  C   UNL     1      -4.571  12.386  19.464  0.00  0.00    +0.000 A 
ATOM     12  N   UNL     1      -5.872  12.352  19.825  0.00  0.00    +0.000 NA
ATOM     13  C   UNL     1      -6.103  12.472  21.148  0.00  0.00    +0.000 A 
ATOM     14  C   UNL     1      -5.059  12.551  22.079  0.00  0.00    +0.000 A 
ATOM     15  N   UNL     1      -3.762  12.591  21.721  0.00  0.00    +0.000 NA
ATOM     16  O   UNL     1      -5.287  12.637  23.425  0.00  0.00    +0.000 OA
ATOM     17  C   UNL     1      -6.453  13.424  23.628  0.00  0.00    +0.000 C 
ATOM     18  C   UNL     1      -7.650  12.849  22.875  0.00  0.00    +0.000 C 
ATOM     19  O   UNL     1      -7.420  12.598  21.487  0.00  0.00    +0.000 OA
ENDBRANCH   9  10
ENDBRANCH   7   9
ENDBRANCH   4   7
BRANCH   1  20
ATOM     20  C   UNL     1       1.932   8.124  18.082  0.00  0.00    +0.000 C 
BRANCH  20  21
ATOM     21  O   UNL     1       2.855   8.557  17.062  0.00  0.00    +0.000 OA
ATOM     22  H   UNL     1       2.810   9.533  17.069  0.00  0.00    +0.000 HD
ENDBRANCH  20  21
BRANCH  20  23
ATOM     23  C   UNL     1       2.680   7.149  19.033  0.00  0.00    +0.000 C 
BRANCH  23  32
ATOM     24  C   UNL     1       5.934   5.821  16.675  0.00  0.00    +0.000 A 
ATOM     25  C   UNL     1       5.949   4.611  16.014  0.00  0.00    +0.000 A 
ATOM     26  C   UNL     1       4.872   3.754  16.206  0.00  0.00    +0.000 A 
ATOM     27  C   UNL     1       3.854   4.090  17.079  0.00  0.00    +0.000 A 
ATOM     28  N   UNL     1       2.930   3.160  17.367  0.00  0.00    +0.000 NA
ATOM     29  C   UNL     1       2.041   3.468  18.329  0.00  0.00    +0.000 A 
ATOM     30  C   UNL     1       1.990   4.701  18.949  0.00  0.00    +0.000 A 
ATOM     31  F   UNL     1       1.137   4.863  19.973  0.00  0.00    +0.000 F 
ATOM     32  C   UNL     1       2.845   5.720  18.539  0.00  0.00    +0.000 A 
ATOM     33  C   UNL     1       3.882   5.388  17.660  0.00  0.00    +0.000 A 
ATOM     34  N   UNL     1       4.902   6.250  17.435  0.00  0.00    +0.000 NA
BRANCH  24  36
ATOM     35  C   UNL     1       7.089   7.684  17.487  0.00  0.00    +0.000 C 
ATOM     36  O   UNL     1       7.088   6.573  16.597  0.00  0.00    +0.000 OA
ENDBRANCH  24  36
ENDBRANCH  23  32
ENDBRANCH  20  23
ENDBRANCH   1  20
TORSDOF 8
ENDMDL
