MODEL 1
REMARK VINA RESULT:      -8.2      0.000      0.000
REMARK  Name = 
REMARK  7 active torsions:
REMARK  status: ('A' for Active; 'I' for Inactive)
REMARK    1  A    between atoms: C_1  and  C_2
REMARK    2  A    between atoms: C_2  and  C_3
REMARK    3  A    between atoms: C_5  and  C_6
REMARK    4  A    between atoms: C_7  and  C_8
REMARK    5  A    between atoms: C_8  and  N_9
REMARK    6  A    between atoms: C_13  and  C_14
REMARK    7  A    between atoms: C_19  and  C_20
REMARK                            x       y       z     vdW  Elec       q    Type
REMARK                         _______ _______ _______ _____ _____    ______ ____
ROOT
ATOM      1  N   UNL     1       3.563   6.318  17.952  0.00  0.00    +0.000 NA
ATOM      2  C   UNL     1       2.835   5.057  17.803  0.00  0.00    +0.000 C 
ATOM      3  C   UNL     1       2.771   4.273  19.081  0.00  0.00    +0.000 A 
ATOM      4  C   UNL     1       3.533   3.090  19.172  0.00  0.00    +0.000 A 
ATOM      5  C   UNL     1       3.659   2.398  20.374  0.00  0.00    +0.000 A 
ATOM      6  C   UNL     1       4.714   1.339  20.516  0.00  0.00    +0.000 C 
ATOM      7  C   UNL     1       2.861   2.800  21.446  0.00  0.00    +0.000 A 
ATOM      8  C   UNL     1       2.046   3.947  21.347  0.00  0.00    +0.000 A 
ATOM      9  C   UNL     1       2.068   4.734  20.194  0.00  0.00    +0.000 A 
ATOM     10  O   UNL     1       1.338   5.904  20.162  0.00  0.00    +0.000 OA
ATOM     11  C   UNL     1       2.156   7.106  20.055  0.00  0.00    +0.000 C 
ATOM     12  C   UNL     1       2.736   7.331  18.616  0.00  0.00    +0.000 C 
ENDROOT
BRANCH  11  13
ATOM     13  C   UNL     1       1.351   8.386  20.419  0.00  0.00    +0.000 A 
ATOM     14  C   UNL     1       0.876   8.679  21.757  0.00  0.00    +0.000 A 
ATOM     15  C   UNL     1       0.265   9.910  21.874  0.00  0.00    +0.000 A 
ATOM     16  S   UNL     1       0.218  10.728  20.378  0.00  0.00    +0.000 S 
ATOM     17  C   UNL     1       1.032   9.441  19.581  0.00  0.00    +0.000 A 
ENDBRANCH  11  13
BRANCH   1  18
ATOM     18  C   UNL     1       4.924   6.183  18.475  0.00  0.00    +0.000 C 
BRANCH  18  23
ATOM     19  C   UNL     1       6.649   5.027  15.459  0.00  0.00    +0.000 A 
ATOM     20  N   UNL     1       7.479   6.000  15.766  0.00  0.00    +0.000 NA
ATOM     21  C   UNL     1       7.030   6.530  16.953  0.00  0.00    +0.000 A 
ATOM     22  C   UNL     1       7.712   7.677  17.592  0.00  0.00    +0.000 C 
ATOM     23  C   UNL     1       5.875   5.887  17.361  0.00  0.00    +0.000 A 
ATOM     24  N   UNL     1       5.714   4.868  16.456  0.00  0.00    +0.000 N 
ATOM     25  H   UNL     1       4.979   4.167  16.469  0.00  0.00    +0.000 HD
BRANCH  19  27
ATOM     26  C   UNL     1       5.388   4.002  13.524  0.00  0.00    +0.000 C 
ATOM     27  C   UNL     1       6.718   4.151  14.251  0.00  0.00    +0.000 C 
ENDBRANCH  19  27
ENDBRANCH  18  23
ENDBRANCH   1  18
TORSDOF 4
ENDMDL
MODEL 2
REMARK VINA RESULT:      -7.6      3.141      6.608
REMARK  Name = 
REMARK  7 active torsions:
REMARK  status: ('A' for Active; 'I' for Inactive)
REMARK    1  A    between atoms: C_1  and  C_2
REMARK    2  A    between atoms: C_2  and  C_3
REMARK    3  A    between atoms: C_5  and  C_6
REMARK    4  A    between atoms: C_7  and  C_8
REMARK    5  A    between atoms: C_8  and  N_9
REMARK    6  A    between atoms: C_13  and  C_14
REMARK    7  A    between atoms: C_19  and  C_20
REMARK                            x       y       z     vdW  Elec       q    Type
REMARK                         _______ _______ _______ _____ _____    ______ ____
ROOT
ATOM      1  N   UNL     1       4.126   6.533  17.959  0.00  0.00    +0.000 NA
ATOM      2  C   UNL     1       4.562   5.773  19.131  0.00  0.00    +0.000 C 
ATOM      3  C   UNL     1       3.949   4.404  19.192  0.00  0.00    +0.000 A 
ATOM      4  C   UNL     1       2.975   4.157  20.181  0.00  0.00    +0.000 A 
ATOM      5  C   UNL     1       2.242   2.973  20.199  0.00  0.00    +0.000 A 
ATOM      6  C   UNL     1       1.014   2.871  21.057  0.00  0.00    +0.000 C 
ATOM      7  C   UNL     1       2.624   1.955  19.324  0.00  0.00    +0.000 A 
ATOM      8  C   UNL     1       3.640   2.169  18.370  0.00  0.00    +0.000 A 
ATOM      9  C   UNL     1       4.242   3.422  18.244  0.00  0.00    +0.000 A 
ATOM     10  O   UNL     1       5.161   3.633  17.238  0.00  0.00    +0.000 OA
ATOM     11  C   UNL     1       4.732   4.607  16.242  0.00  0.00    +0.000 C 
ATOM     12  C   UNL     1       4.825   6.087  16.749  0.00  0.00    +0.000 C 
ENDROOT
BRANCH  11  13
ATOM     13  C   UNL     1       5.586   4.522  14.946  0.00  0.00    +0.000 A 
ATOM     14  C   UNL     1       6.892   5.135  14.806  0.00  0.00    +0.000 A 
ATOM     15  C   UNL     1       7.513   4.858  13.606  0.00  0.00    +0.000 A 
ATOM     16  S   UNL     1       6.532   3.885  12.606  0.00  0.00    +0.000 S 
ATOM     17  C   UNL     1       5.286   3.821  13.789  0.00  0.00    +0.000 A 
ENDBRANCH  11  13
BRANCH   1  18
ATOM     18  C   UNL     1       2.675   6.675  17.824  0.00  0.00    +0.000 C 
BRANCH  18  23
ATOM     19  C   UNL     1       1.516  10.033  18.710  0.00  0.00    +0.000 A 
ATOM     20  N   UNL     1       1.252   9.455  19.861  0.00  0.00    +0.000 NA
ATOM     21  C   UNL     1       1.699   8.159  19.752  0.00  0.00    +0.000 A 
ATOM     22  C   UNL     1       1.540   7.192  20.862  0.00  0.00    +0.000 C 
ATOM     23  C   UNL     1       2.217   7.932  18.490  0.00  0.00    +0.000 A 
ATOM     24  N   UNL     1       2.189   9.163  17.884  0.00  0.00    +0.000 N 
ATOM     25  H   UNL     1       2.526   9.378  16.951  0.00  0.00    +0.000 HD
BRANCH  19  27
ATOM     26  C   UNL     1       2.447  12.331  18.222  0.00  0.00    +0.000 C 
ATOM     27  C   UNL     1       1.212  11.448  18.340  0.00  0.00    +0.000 C 
ENDBRANCH  19  27
ENDBRANCH  18  23
ENDBRANCH   1  18
TORSDOF 4
ENDMDL
MODEL 3
REMARK VINA RESULT:      -7.6      4.536      8.588
REMARK  Name = 
REMARK  7 active torsions:
REMARK  status: ('A' for Active; 'I' for Inactive)
REMARK    1  A    between atoms: C_1  and  C_2
REMARK    2  A    between atoms: C_2  and  C_3
REMARK    3  A    between atoms: C_5  and  C_6
REMARK    4  A    between atoms: C_7  and  C_8
REMARK    5  A    between atoms: C_8  and  N_9
REMARK    6  A    between atoms: C_13  and  C_14
REMARK    7  A    between atoms: C_19  and  C_20
REMARK                            x       y       z     vdW  Elec       q    Type
REMARK                         _______ _______ _______ _____ _____    ______ ____
ROOT
ATOM      1  N   UNL     1      -0.351  10.744  18.368  0.00  0.00    +0.000 NA
ATOM      2  C   UNL     1       0.065  11.751  19.344  0.00  0.00    +0.000 C 
ATOM      3  C   UNL     1      -0.150  11.304  20.761  0.00  0.00    +0.000 A 
ATOM      4  C   UNL     1      -1.175  11.924  21.504  0.00  0.00    +0.000 A 
ATOM      5  C   UNL     1      -1.548  11.456  22.761  0.00  0.00    +0.000 A 
ATOM      6  C   UNL     1      -2.831  11.927  23.382  0.00  0.00    +0.000 C 
ATOM      7  C   UNL     1      -0.755  10.469  23.351  0.00  0.00    +0.000 A 
ATOM      8  C   UNL     1       0.314   9.884  22.642  0.00  0.00    +0.000 A 
ATOM      9  C   UNL     1       0.562  10.239  21.314  0.00  0.00    +0.000 A 
ATOM     10  O   UNL     1       1.548   9.579  20.612  0.00  0.00    +0.000 OA
ATOM     11  C   UNL     1       1.049   8.794  19.490  0.00  0.00    +0.000 C 
ATOM     12  C   UNL     1       0.643   9.672  18.256  0.00  0.00    +0.000 C 
ENDROOT
BRANCH  11  13
ATOM     13  C   UNL     1       2.107   7.772  18.985  0.00  0.00    +0.000 A 
ATOM     14  C   UNL     1       2.914   7.976  17.799  0.00  0.00    +0.000 A 
ATOM     15  C   UNL     1       3.852   6.987  17.585  0.00  0.00    +0.000 A 
ATOM     16  S   UNL     1       3.764   5.775  18.783  0.00  0.00    +0.000 S 
ATOM     17  C   UNL     1       2.484   6.586  19.594  0.00  0.00    +0.000 A 
ENDBRANCH  11  13
BRANCH   1  18
ATOM     18  C   UNL     1      -1.739  10.297  18.500  0.00  0.00    +0.000 C 
BRANCH  18  23
ATOM     19  C   UNL     1      -3.046  10.275  15.080  0.00  0.00    +0.000 A 
ATOM     20  N   UNL     1      -4.051  10.911  15.641  0.00  0.00    +0.000 NA
ATOM     21  C   UNL     1      -3.707  11.089  16.960  0.00  0.00    +0.000 A 
ATOM     22  C   UNL     1      -4.624  11.751  17.914  0.00  0.00    +0.000 C 
ATOM     23  C   UNL     1      -2.475  10.516  17.218  0.00  0.00    +0.000 A 
ATOM     24  N   UNL     1      -2.027  10.102  15.988  0.00  0.00    +0.000 N 
ATOM     25  H   UNL     1      -1.133   9.662  15.794  0.00  0.00    +0.000 HD
BRANCH  19  27
ATOM     26  C   UNL     1      -4.287   9.864  12.918  0.00  0.00    +0.000 C 
ATOM     27  C   UNL     1      -2.952   9.851  13.651  0.00  0.00    +0.000 C 
ENDBRANCH  19  27
ENDBRANCH  18  23
ENDBRANCH   1  18
TORSDOF 4
ENDMDL
MODEL 4
REMARK VINA RESULT:      -7.5      2.813      6.435
REMARK  Name = 
REMARK  7 active torsions:
REMARK  status: ('A' for Active; 'I' for Inactive)
REMARK    1  A    between atoms: C_1  and  C_2
REMARK    2  A    between atoms: C_2  and  C_3
REMARK    3  A    between atoms: C_5  and  C_6
REMARK    4  A    between atoms: C_7  and  C_8
REMARK    5  A    between atoms: C_8  and  N_9
REMARK    6  A    between atoms: C_13  and  C_14
REMARK    7  A    between atoms: C_19  and  C_20
REMARK                            x       y       z     vdW  Elec       q    Type
REMARK                         _______ _______ _______ _____ _____    ______ ____
ROOT
ATOM      1  N   UNL     1       2.995   7.161  17.476  0.00  0.00    +0.000 NA
ATOM      2  C   UNL     1       4.100   6.725  16.622  0.00  0.00    +0.000 C 
ATOM      3  C   UNL     1       5.391   6.588  17.375  0.00  0.00    +0.000 A 
ATOM      4  C   UNL     1       6.407   7.533  17.127  0.00  0.00    +0.000 A 
ATOM      5  C   UNL     1       7.565   7.575  17.899  0.00  0.00    +0.000 A 
ATOM      6  C   UNL     1       8.470   8.771  17.820  0.00  0.00    +0.000 C 
ATOM      7  C   UNL     1       7.781   6.539  18.810  0.00  0.00    +0.000 A 
ATOM      8  C   UNL     1       6.798   5.551  19.022  0.00  0.00    +0.000 A 
ATOM      9  C   UNL     1       5.566   5.624  18.370  0.00  0.00    +0.000 A 
ATOM     10  O   UNL     1       4.586   4.703  18.671  0.00  0.00    +0.000 OA
ATOM     11  C   UNL     1       3.405   5.282  19.299  0.00  0.00    +0.000 C 
ATOM     12  C   UNL     1       2.485   6.052  18.290  0.00  0.00    +0.000 C 
ENDROOT
BRANCH  11  13
ATOM     13  C   UNL     1       2.519   4.197  19.975  0.00  0.00    +0.000 A 
ATOM     14  C   UNL     1       1.686   3.269  19.235  0.00  0.00    +0.000 A 
ATOM     15  C   UNL     1       1.055   2.333  20.027  0.00  0.00    +0.000 A 
ATOM     16  S   UNL     1       1.421   2.563  21.677  0.00  0.00    +0.000 S 
ATOM     17  C   UNL     1       2.437   3.904  21.326  0.00  0.00    +0.000 A 
ENDBRANCH  11  13
BRANCH   1  18
ATOM     18  C   UNL     1       3.235   8.409  18.203  0.00  0.00    +0.000 C 
BRANCH  18  23
ATOM     19  C   UNL     1      -0.043  10.029  18.385  0.00  0.00    +0.000 A 
ATOM     20  N   UNL     1      -0.020   9.558  19.612  0.00  0.00    +0.000 NA
ATOM     21  C   UNL     1       1.207   8.957  19.771  0.00  0.00    +0.000 A 
ATOM     22  C   UNL     1       1.579   8.285  21.036  0.00  0.00    +0.000 C 
ATOM     23  C   UNL     1       1.936   9.033  18.598  0.00  0.00    +0.000 A 
ATOM     24  N   UNL     1       1.167   9.811  17.768  0.00  0.00    +0.000 N 
ATOM     25  H   UNL     1       1.410  10.103  16.827  0.00  0.00    +0.000 HD
BRANCH  19  27
ATOM     26  C   UNL     1      -2.103   9.871  16.929  0.00  0.00    +0.000 C 
ATOM     27  C   UNL     1      -1.172  10.764  17.739  0.00  0.00    +0.000 C 
ENDBRANCH  19  27
ENDBRANCH  18  23
ENDBRANCH   1  18
TORSDOF 4
ENDMDL
MODEL 5
REMARK VINA RESULT:      -7.4      0.902      1.123
REMARK  Name = 
REMARK  7 active torsions:
REMARK  status: ('A' for Active; 'I' for Inactive)
REMARK    1  A    between atoms: C_1  and  C_2
REMARK    2  A    between atoms: C_2  and  C_3
REMARK    3  A    between atoms: C_5  and  C_6
REMARK    4  A    between atoms: C_7  and  C_8
REMARK    5  A    between atoms: C_8  and  N_9
REMARK    6  A    between atoms: C_13  and  C_14
REMARK    7  A    between atoms: C_19  and  C_20
REMARK                            x       y       z     vdW  Elec       q    Type
REMARK                         _______ _______ _______ _____ _____    ______ ____
ROOT
ATOM      1  N   UNL     1       3.273   6.489  17.942  0.00  0.00    +0.000 NA
ATOM      2  C   UNL     1       2.534   5.232  17.821  0.00  0.00    +0.000 C 
ATOM      3  C   UNL     1       2.593   4.406  19.073  0.00  0.00    +0.000 A 
ATOM      4  C   UNL     1       3.360   3.223  19.053  0.00  0.00    +0.000 A 
ATOM      5  C   UNL     1       3.600   2.493  20.214  0.00  0.00    +0.000 A 
ATOM      6  C   UNL     1       4.664   1.432  20.219  0.00  0.00    +0.000 C 
ATOM      7  C   UNL     1       2.909   2.857  21.370  0.00  0.00    +0.000 A 
ATOM      8  C   UNL     1       2.088   4.004  21.387  0.00  0.00    +0.000 A 
ATOM      9  C   UNL     1       1.999   4.829  20.264  0.00  0.00    +0.000 A 
ATOM     10  O   UNL     1       1.271   5.997  20.340  0.00  0.00    +0.000 OA
ATOM     11  C   UNL     1       2.074   7.204  20.195  0.00  0.00    +0.000 C 
ATOM     12  C   UNL     1       2.513   7.477  18.715  0.00  0.00    +0.000 C 
ENDROOT
BRANCH  11  13
ATOM     13  C   UNL     1       1.308   8.469  20.676  0.00  0.00    +0.000 A 
ATOM     14  C   UNL     1       0.832   9.505  19.781  0.00  0.00    +0.000 A 
ATOM     15  C   UNL     1       0.099  10.490  20.409  0.00  0.00    +0.000 A 
ATOM     16  S   UNL     1      -0.008  10.213  22.089  0.00  0.00    +0.000 S 
ATOM     17  C   UNL     1       0.911   8.766  21.969  0.00  0.00    +0.000 A 
ENDBRANCH  11  13
BRANCH   1  18
ATOM     18  C   UNL     1       4.678   6.341  18.327  0.00  0.00    +0.000 C 
BRANCH  18  23
ATOM     19  C   UNL     1       6.013   5.082  15.159  0.00  0.00    +0.000 A 
ATOM     20  N   UNL     1       7.076   4.843  15.897  0.00  0.00    +0.000 NA
ATOM     21  C   UNL     1       6.737   5.192  17.183  0.00  0.00    +0.000 A 
ATOM     22  C   UNL     1       7.710   5.082  18.293  0.00  0.00    +0.000 C 
ATOM     23  C   UNL     1       5.447   5.690  17.224  0.00  0.00    +0.000 A 
ATOM     24  N   UNL     1       4.972   5.509  15.949  0.00  0.00    +0.000 N 
ATOM     25  H   UNL     1       4.037   5.735  15.622  0.00  0.00    +0.000 HD
BRANCH  19  27
ATOM     26  C   UNL     1       6.348   3.487  13.228  0.00  0.00    +0.000 C 
ATOM     27  C   UNL     1       5.891   4.866  13.686  0.00  0.00    +0.000 C 
ENDBRANCH  19  27
ENDBRANCH  18  23
ENDBRANCH   1  18
TORSDOF 4
ENDMDL
MODEL 6
REMARK VINA RESULT:      -7.4      3.022      6.701
REMARK  Name = 
REMARK  7 active torsions:
REMARK  status: ('A' for Active; 'I' for Inactive)
REMARK    1  A    between atoms: C_1  and  C_2
REMARK    2  A    between atoms: C_2  and  C_3
REMARK    3  A    between atoms: C_5  and  C_6
REMARK    4  A    between atoms: C_7  and  C_8
REMARK    5  A    between atoms: C_8  and  N_9
REMARK    6  A    between atoms: C_13  and  C_14
REMARK    7  A    between atoms: C_19  and  C_20
REMARK                            x       y       z     vdW  Elec       q    Type
REMARK                         _______ _______ _______ _____ _____    ______ ____
ROOT
ATOM      1  N   UNL     1       3.985   6.506  18.291  0.00  0.00    +0.000 NA
ATOM      2  C   UNL     1       4.462   5.756  19.454  0.00  0.00    +0.000 C 
ATOM      3  C   UNL     1       3.905   4.364  19.511  0.00  0.00    +0.000 A 
ATOM      4  C   UNL     1       2.951   4.072  20.508  0.00  0.00    +0.000 A 
ATOM      5  C   UNL     1       2.266   2.860  20.525  0.00  0.00    +0.000 A 
ATOM      6  C   UNL     1       1.051   2.703  21.393  0.00  0.00    +0.000 C 
ATOM      7  C   UNL     1       2.679   1.863  19.638  0.00  0.00    +0.000 A 
ATOM      8  C   UNL     1       3.677   2.123  18.676  0.00  0.00    +0.000 A 
ATOM      9  C   UNL     1       4.228   3.401  18.554  0.00  0.00    +0.000 A 
ATOM     10  O   UNL     1       5.127   3.654  17.540  0.00  0.00    +0.000 OA
ATOM     11  C   UNL     1       4.650   4.616  16.556  0.00  0.00    +0.000 C 
ATOM     12  C   UNL     1       4.690   6.096  17.072  0.00  0.00    +0.000 C 
ENDROOT
BRANCH  11  13
ATOM     13  C   UNL     1       5.495   4.574  15.251  0.00  0.00    +0.000 A 
ATOM     14  C   UNL     1       6.806   5.180  15.125  0.00  0.00    +0.000 A 
ATOM     15  C   UNL     1       7.415   4.945  13.911  0.00  0.00    +0.000 A 
ATOM     16  S   UNL     1       6.418   4.020  12.881  0.00  0.00    +0.000 S 
ATOM     17  C   UNL     1       5.180   3.922  14.070  0.00  0.00    +0.000 A 
ENDBRANCH  11  13
BRANCH   1  18
ATOM     18  C   UNL     1       2.528   6.591  18.171  0.00  0.00    +0.000 C 
BRANCH  18  23
ATOM     19  C   UNL     1       1.471   8.693  20.976  0.00  0.00    +0.000 A 
ATOM     20  N   UNL     1       1.412   9.617  20.042  0.00  0.00    +0.000 NA
ATOM     21  C   UNL     1       1.713   8.986  18.857  0.00  0.00    +0.000 A 
ATOM     22  C   UNL     1       1.771   9.731  17.580  0.00  0.00    +0.000 C 
ATOM     23  C   UNL     1       1.998   7.651  19.081  0.00  0.00    +0.000 A 
ATOM     24  N   UNL     1       1.732   7.465  20.414  0.00  0.00    +0.000 N 
ATOM     25  H   UNL     1       1.802   6.588  20.921  0.00  0.00    +0.000 HD
BRANCH  19  27
ATOM     26  C   UNL     1      -0.185   9.370  22.760  0.00  0.00    +0.000 C 
ATOM     27  C   UNL     1       1.224   8.893  22.436  0.00  0.00    +0.000 C 
ENDBRANCH  19  27
ENDBRANCH  18  23
ENDBRANCH   1  18
TORSDOF 4
ENDMDL
MODEL 7
REMARK VINA RESULT:      -7.0      5.005      9.145
REMARK  Name = 
REMARK  7 active torsions:
REMARK  status: ('A' for Active; 'I' for Inactive)
REMARK    1  A    between atoms: C_1  and  C_2
REMARK    2  A    between atoms: C_2  and  C_3
REMARK    3  A    between atoms: C_5  and  C_6
REMARK    4  A    between atoms: C_7  and  C_8
REMARK    5  A    between atoms: C_8  and  N_9
REMARK    6  A    between atoms: C_13  and  C_14
REMARK    7  A    between atoms: C_19  and  C_20
REMARK                            x       y       z     vdW  Elec       q    Type
REMARK                         _______ _______ _______ _____ _____    ______ ____
ROOT
ATOM      1  N   UNL     1      -1.084  11.750  18.418  0.00  0.00    +0.000 NA
ATOM      2  C   UNL     1      -0.738  12.757  19.421  0.00  0.00    +0.000 C 
ATOM      3  C   UNL     1      -1.017  12.296  20.822  0.00  0.00    +0.000 A 
ATOM      4  C   UNL     1      -2.091  12.891  21.515  0.00  0.00    +0.000 A 
ATOM      5  C   UNL     1      -2.518  12.406  22.749  0.00  0.00    +0.000 A 
ATOM      6  C   UNL     1      -3.840  12.849  23.306  0.00  0.00    +0.000 C 
ATOM      7  C   UNL     1      -1.738  11.430  23.372  0.00  0.00    +0.000 A 
ATOM      8  C   UNL     1      -0.623  10.871  22.715  0.00  0.00    +0.000 A 
ATOM      9  C   UNL     1      -0.314  11.240  21.404  0.00  0.00    +0.000 A 
ATOM     10  O   UNL     1       0.719  10.604  20.749  0.00  0.00    +0.000 OA
ATOM     11  C   UNL     1       0.293   9.818  19.598  0.00  0.00    +0.000 C 
ATOM     12  C   UNL     1      -0.066  10.698  18.351  0.00  0.00    +0.000 C 
ENDROOT
BRANCH  11  13
ATOM     13  C   UNL     1       1.395   8.820  19.141  0.00  0.00    +0.000 A 
ATOM     14  C   UNL     1       1.878   7.729  19.964  0.00  0.00    +0.000 A 
ATOM     15  C   UNL     1       2.790   6.912  19.328  0.00  0.00    +0.000 A 
ATOM     16  S   UNL     1       3.111   7.452  17.742  0.00  0.00    +0.000 S 
ATOM     17  C   UNL     1       2.016   8.767  17.904  0.00  0.00    +0.000 A 
ENDBRANCH  11  13
BRANCH   1  18
ATOM     18  C   UNL     1      -2.469  11.276  18.476  0.00  0.00    +0.000 C 
BRANCH  18  23
ATOM     19  C   UNL     1      -3.181  10.380  14.998  0.00  0.00    +0.000 A 
ATOM     20  N   UNL     1      -4.359  10.891  15.285  0.00  0.00    +0.000 NA
ATOM     21  C   UNL     1      -4.268  11.369  16.572  0.00  0.00    +0.000 A 
ATOM     22  C   UNL     1      -5.427  11.994  17.246  0.00  0.00    +0.000 C 
ATOM     23  C   UNL     1      -3.014  11.110  17.095  0.00  0.00    +0.000 A 
ATOM     24  N   UNL     1      -2.309  10.580  16.043  0.00  0.00    +0.000 N 
ATOM     25  H   UNL     1      -1.333  10.301  16.057  0.00  0.00    +0.000 HD
BRANCH  19  27
ATOM     26  C   UNL     1      -3.867   9.788  12.640  0.00  0.00    +0.000 C 
ATOM     27  C   UNL     1      -2.786   9.734  13.711  0.00  0.00    +0.000 C 
ENDBRANCH  19  27
ENDBRANCH  18  23
ENDBRANCH   1  18
TORSDOF 4
ENDMDL
MODEL 8
REMARK VINA RESULT:      -6.9      1.096      1.138
REMARK  Name = 
REMARK  7 active torsions:
REMARK  status: ('A' for Active; 'I' for Inactive)
REMARK    1  A    between atoms: C_1  and  C_2
REMARK    2  A    between atoms: C_2  and  C_3
REMARK    3  A    between atoms: C_5  and  C_6
REMARK    4  A    between atoms: C_7  and  C_8
REMARK    5  A    between atoms: C_8  and  N_9
REMARK    6  A    between atoms: C_13  and  C_14
REMARK    7  A    between atoms: C_19  and  C_20
REMARK                            x       y       z     vdW  Elec       q    Type
REMARK                         _______ _______ _______ _____ _____    ______ ____
ROOT
ATOM      1  N   UNL     1       3.514   6.540  18.201  0.00  0.00    +0.000 NA
ATOM      2  C   UNL     1       2.698   5.527  17.532  0.00  0.00    +0.000 C 
ATOM      3  C   UNL     1       2.427   4.335  18.403  0.00  0.00    +0.000 A 
ATOM      4  C   UNL     1       3.067   3.121  18.084  0.00  0.00    +0.000 A 
ATOM      5  C   UNL     1       3.001   2.019  18.934  0.00  0.00    +0.000 A 
ATOM      6  C   UNL     1       3.936   0.862  18.728  0.00  0.00    +0.000 C 
ATOM      7  C   UNL     1       2.130   2.086  20.023  0.00  0.00    +0.000 A 
ATOM      8  C   UNL     1       1.435   3.277  20.318  0.00  0.00    +0.000 A 
ATOM      9  C   UNL     1       1.651   4.429  19.560  0.00  0.00    +0.000 A 
ATOM     10  O   UNL     1       1.036   5.606  19.930  0.00  0.00    +0.000 OA
ATOM     11  C   UNL     1       1.963   6.650  20.348  0.00  0.00    +0.000 C 
ATOM     12  C   UNL     1       2.713   7.324  19.147  0.00  0.00    +0.000 C 
ENDROOT
BRANCH  11  13
ATOM     13  C   UNL     1       1.240   7.790  21.121  0.00  0.00    +0.000 A 
ATOM     14  C   UNL     1      -0.202   7.914  21.201  0.00  0.00    +0.000 A 
ATOM     15  C   UNL     1      -0.629   8.943  22.013  0.00  0.00    +0.000 A 
ATOM     16  S   UNL     1       0.687   9.805  22.672  0.00  0.00    +0.000 S 
ATOM     17  C   UNL     1       1.826   8.786  21.884  0.00  0.00    +0.000 A 
ENDBRANCH  11  13
BRANCH   1  18
ATOM     18  C   UNL     1       4.793   6.053  18.721  0.00  0.00    +0.000 C 
BRANCH  18  23
ATOM     19  C   UNL     1       6.604   5.130  15.676  0.00  0.00    +0.000 A 
ATOM     20  N   UNL     1       7.358   6.152  16.016  0.00  0.00    +0.000 NA
ATOM     21  C   UNL     1       6.868   6.608  17.218  0.00  0.00    +0.000 A 
ATOM     22  C   UNL     1       7.460   7.782  17.896  0.00  0.00    +0.000 C 
ATOM     23  C   UNL     1       5.766   5.866  17.602  0.00  0.00    +0.000 A 
ATOM     24  N   UNL     1       5.683   4.867  16.664  0.00  0.00    +0.000 N 
ATOM     25  H   UNL     1       5.004   4.113  16.652  0.00  0.00    +0.000 HD
BRANCH  19  27
ATOM     26  C   UNL     1       5.413   3.980  13.767  0.00  0.00    +0.000 C 
ATOM     27  C   UNL     1       6.741   4.301  14.441  0.00  0.00    +0.000 C 
ENDBRANCH  19  27
ENDBRANCH  18  23
ENDBRANCH   1  18
TORSDOF 4
ENDMDL
MODEL 9
REMARK VINA RESULT:      -6.8      5.188      9.695
REMARK  Name = 
REMARK  7 active torsions:
REMARK  status: ('A' for Active; 'I' for Inactive)
REMARK    1  A    between atoms: C_1  and  C_2
REMARK    2  A    between atoms: C_2  and  C_3
REMARK    3  A    between atoms: C_5  and  C_6
REMARK    4  A    between atoms: C_7  and  C_8
REMARK    5  A    between atoms: C_8  and  N_9
REMARK    6  A    between atoms: C_13  and  C_14
REMARK    7  A    between atoms: C_19  and  C_20
REMARK                            x       y       z     vdW  Elec       q    Type
REMARK                         _______ _______ _______ _____ _____    ______ ____
ROOT
ATOM      1  N   UNL     1      -1.168  10.726  18.057  0.00  0.00    +0.000 NA
ATOM      2  C   UNL     1      -0.867  11.955  18.792  0.00  0.00    +0.000 C 
ATOM      3  C   UNL     1      -0.902  11.760  20.280  0.00  0.00    +0.000 A 
ATOM      4  C   UNL     1      -1.965  12.341  21.000  0.00  0.00    +0.000 A 
ATOM      5  C   UNL     1      -2.162  12.070  22.352  0.00  0.00    +0.000 A 
ATOM      6  C   UNL     1      -3.461  12.442  23.005  0.00  0.00    +0.000 C 
ATOM      7  C   UNL     1      -1.170  11.353  23.025  0.00  0.00    +0.000 A 
ATOM      8  C   UNL     1      -0.068  10.819  22.326  0.00  0.00    +0.000 A 
ATOM      9  C   UNL     1       0.022  10.947  20.939  0.00  0.00    +0.000 A 
ATOM     10  O   UNL     1       1.057  10.330  20.269  0.00  0.00    +0.000 OA
ATOM     11  C   UNL     1       0.625   9.275  19.361  0.00  0.00    +0.000 C 
ATOM     12  C   UNL     1      -0.012   9.824  18.038  0.00  0.00    +0.000 C 
ENDROOT
BRANCH  11  13
ATOM     13  C   UNL     1       1.807   8.356  18.940  0.00  0.00    +0.000 A 
ATOM     14  C   UNL     1       2.221   7.188  19.694  0.00  0.00    +0.000 A 
ATOM     15  C   UNL     1       3.230   6.466  19.093  0.00  0.00    +0.000 A 
ATOM     16  S   UNL     1       3.728   7.187  17.630  0.00  0.00    +0.000 S 
ATOM     17  C   UNL     1       2.579   8.454  17.794  0.00  0.00    +0.000 A 
ENDBRANCH  11  13
BRANCH   1  18
ATOM     18  C   UNL     1      -2.444  10.099  18.406  0.00  0.00    +0.000 C 
BRANCH  18  23
ATOM     19  C   UNL     1      -5.341  12.116  17.436  0.00  0.00    +0.000 A 
ATOM     20  N   UNL     1      -4.879  11.892  16.225  0.00  0.00    +0.000 NA
ATOM     21  C   UNL     1      -3.795  11.060  16.375  0.00  0.00    +0.000 A 
ATOM     22  C   UNL     1      -2.998  10.615  15.210  0.00  0.00    +0.000 C 
ATOM     23  C   UNL     1      -3.568  10.799  17.715  0.00  0.00    +0.000 A 
ATOM     24  N   UNL     1      -4.625  11.391  18.360  0.00  0.00    +0.000 N 
ATOM     25  H   UNL     1      -4.802  11.372  19.360  0.00  0.00    +0.000 HD
BRANCH  19  27
ATOM     26  C   UNL     1      -6.775  14.099  16.805  0.00  0.00    +0.000 C 
ATOM     27  C   UNL     1      -6.515  12.969  17.793  0.00  0.00    +0.000 C 
ENDBRANCH  19  27
ENDBRANCH  18  23
ENDBRANCH   1  18
TORSDOF 4
ENDMDL
