MODEL 1
REMARK VINA RESULT:      -6.6      0.000      0.000
REMARK  Name = 
REMARK  8 active torsions:
REMARK  status: ('A' for Active; 'I' for Inactive)
REMARK    1  A    between atoms: C_1  and  C_2
REMARK    2  A    between atoms: C_2  and  C_3
REMARK    3  A    between atoms: C_3  and  O_4
REMARK    4  A    between atoms: C_3  and  C_5
REMARK    5  A    between atoms: C_10  and  O_11
REMARK    6  A    between atoms: O_11  and  C_12
REMARK    7  A    between atoms: C_19  and  O_20
REMARK    8  A    between atoms: O_20  and  C_21
REMARK                            x       y       z     vdW  Elec       q    Type
REMARK                         _______ _______ _______ _____ _____    ______ ____
ROOT
ATOM      1  C   UNL     1       2.438   4.680  18.666  0.00  0.00    +0.000 A 
ATOM      2  C   UNL     1       2.505   3.452  17.977  0.00  0.00    +0.000 A 
ATOM      3  C   UNL     1       3.414   3.233  16.944  0.00  0.00    +0.000 A 
ATOM      4  C   UNL     1       4.319   4.222  16.575  0.00  0.00    +0.000 A 
ATOM      5 BR   UNL     1       5.695   3.633  15.400  0.00  0.00    +0.000 Br
ATOM      6  C   UNL     1       4.220   5.501  17.147  0.00  0.00    +0.000 A 
ATOM      7  C   UNL     1       3.289   5.721  18.216  0.00  0.00    +0.000 A 
ENDROOT
BRANCH   7   8
ATOM      8  O   UNL     1       3.211   7.029  18.636  0.00  0.00    +0.000 OA
ATOM      9  C   UNL     1       2.218   7.877  18.074  0.00  0.00    +0.000 C 
ENDBRANCH   7   8
BRANCH   1  10
ATOM     10  C   UNL     1       1.530   4.774  19.887  0.00  0.00    +0.000 C 
BRANCH  10  12
ATOM     11  C   UNL     1       1.816   2.920  21.634  0.00  0.00    +0.000 C 
ATOM     12  C   UNL     1       1.014   3.426  20.444  0.00  0.00    +0.000 C 
ENDBRANCH  10  12
BRANCH  10  13
ATOM     13  O   UNL     1       2.273   5.408  20.932  0.00  0.00    +0.000 OA
ATOM     14  H   UNL     1       2.667   6.220  20.565  0.00  0.00    +0.000 HD
ENDBRANCH  10  13
ENDBRANCH   1  10
BRANCH   6  15
ATOM     15  O   UNL     1       5.050   6.577  16.864  0.00  0.00    +0.000 OA
BRANCH  15  16
ATOM     16  C   UNL     1       6.236   6.791  17.516  0.00  0.00    +0.000 A 
ATOM     17  C   UNL     1       6.914   5.840  18.276  0.00  0.00    +0.000 A 
ATOM     18  C   UNL     1       8.062   6.208  18.988  0.00  0.00    +0.000 A 
ATOM     19  C   UNL     1       8.569   7.502  18.878  0.00  0.00    +0.000 A 
ATOM     20  C   UNL     1       7.939   8.421  18.043  0.00  0.00    +0.000 A 
ATOM     21 CL   UNL     1       8.591  10.004  17.864  0.00  0.00    +0.000 Cl
ATOM     22  C   UNL     1       6.777   8.070  17.362  0.00  0.00    +0.000 A 
ENDBRANCH  15  16
ENDBRANCH   6  15
TORSDOF 6
ENDMDL
MODEL 2
REMARK VINA RESULT:      -6.6      3.031      5.542
REMARK  Name = 
REMARK  8 active torsions:
REMARK  status: ('A' for Active; 'I' for Inactive)
REMARK    1  A    between atoms: C_1  and  C_2
REMARK    2  A    between atoms: C_2  and  C_3
REMARK    3  A    between atoms: C_3  and  O_4
REMARK    4  A    between atoms: C_3  and  C_5
REMARK    5  A    between atoms: C_10  and  O_11
REMARK    6  A    between atoms: O_11  and  C_12
REMARK    7  A    between atoms: C_19  and  O_20
REMARK    8  A    between atoms: O_20  and  C_21
REMARK                            x       y       z     vdW  Elec       q    Type
REMARK                         _______ _______ _______ _____ _____    ______ ____
ROOT
ATOM      1  C   UNL     1       4.698   3.707  17.245  0.00  0.00    +0.000 A 
ATOM      2  C   UNL     1       3.780   2.647  17.387  0.00  0.00    +0.000 A 
ATOM      3  C   UNL     1       2.726   2.700  18.297  0.00  0.00    +0.000 A 
ATOM      4  C   UNL     1       2.525   3.830  19.083  0.00  0.00    +0.000 A 
ATOM      5 BR   UNL     1       0.858   3.862  20.003  0.00  0.00    +0.000 Br
ATOM      6  C   UNL     1       3.474   4.864  19.067  0.00  0.00    +0.000 A 
ATOM      7  C   UNL     1       4.553   4.811  18.123  0.00  0.00    +0.000 A 
ENDROOT
BRANCH   7   8
ATOM      8  O   UNL     1       5.471   5.827  18.258  0.00  0.00    +0.000 OA
ATOM      9  C   UNL     1       6.549   5.666  19.171  0.00  0.00    +0.000 C 
ENDBRANCH   7   8
BRANCH   1  10
ATOM     10  C   UNL     1       5.716   3.633  16.113  0.00  0.00    +0.000 C 
BRANCH  10  12
ATOM     11  C   UNL     1       6.717   4.819  14.072  0.00  0.00    +0.000 C 
ATOM     12  C   UNL     1       5.481   4.608  14.935  0.00  0.00    +0.000 C 
ENDBRANCH  10  12
BRANCH  10  13
ATOM     13  O   UNL     1       7.001   3.937  16.665  0.00  0.00    +0.000 OA
ATOM     14  H   UNL     1       7.281   3.174  17.201  0.00  0.00    +0.000 HD
ENDBRANCH  10  13
ENDBRANCH   1  10
BRANCH   6  15
ATOM     15  O   UNL     1       3.400   6.037  19.805  0.00  0.00    +0.000 OA
BRANCH  15  16
ATOM     16  C   UNL     1       2.629   7.105  19.427  0.00  0.00    +0.000 A 
ATOM     17  C   UNL     1       2.558   7.623  18.135  0.00  0.00    +0.000 A 
ATOM     18  C   UNL     1       1.820   8.788  17.892  0.00  0.00    +0.000 A 
ATOM     19  C   UNL     1       1.095   9.385  18.923  0.00  0.00    +0.000 A 
ATOM     20  C   UNL     1       1.095   8.808  20.190  0.00  0.00    +0.000 A 
ATOM     21 CL   UNL     1       0.160   9.512  21.451  0.00  0.00    +0.000 Cl
ATOM     22  C   UNL     1       1.857   7.672  20.444  0.00  0.00    +0.000 A 
ENDBRANCH  15  16
ENDBRANCH   6  15
TORSDOF 6
ENDMDL
MODEL 3
REMARK VINA RESULT:      -6.3      2.920      3.897
REMARK  Name = 
REMARK  8 active torsions:
REMARK  status: ('A' for Active; 'I' for Inactive)
REMARK    1  A    between atoms: C_1  and  C_2
REMARK    2  A    between atoms: C_2  and  C_3
REMARK    3  A    between atoms: C_3  and  O_4
REMARK    4  A    between atoms: C_3  and  C_5
REMARK    5  A    between atoms: C_10  and  O_11
REMARK    6  A    between atoms: O_11  and  C_12
REMARK    7  A    between atoms: C_19  and  O_20
REMARK    8  A    between atoms: O_20  and  C_21
REMARK                            x       y       z     vdW  Elec       q    Type
REMARK                         _______ _______ _______ _____ _____    ______ ____
ROOT
ATOM      1  C   UNL     1       1.654   7.476  20.430  0.00  0.00    +0.000 A 
ATOM      2  C   UNL     1       1.298   6.265  21.057  0.00  0.00    +0.000 A 
ATOM      3  C   UNL     1       1.655   5.026  20.528  0.00  0.00    +0.000 A 
ATOM      4  C   UNL     1       2.414   4.945  19.364  0.00  0.00    +0.000 A 
ATOM      5 BR   UNL     1       3.093   3.207  18.986  0.00  0.00    +0.000 Br
ATOM      6  C   UNL     1       2.696   6.112  18.637  0.00  0.00    +0.000 A 
ATOM      7  C   UNL     1       2.334   7.387  19.189  0.00  0.00    +0.000 A 
ENDROOT
BRANCH   7   8
ATOM      8  O   UNL     1       2.574   8.452  18.352  0.00  0.00    +0.000 OA
ATOM      9  C   UNL     1       1.475   9.096  17.721  0.00  0.00    +0.000 C 
ENDBRANCH   7   8
BRANCH   1  10
ATOM     10  C   UNL     1       1.365   8.780  21.164  0.00  0.00    +0.000 C 
BRANCH  10  12
ATOM     11  C   UNL     1      -0.296   9.449  22.998  0.00  0.00    +0.000 C 
ATOM     12  C   UNL     1      -0.114   9.019  21.550  0.00  0.00    +0.000 C 
ENDBRANCH  10  12
BRANCH  10  13
ATOM     13  O   UNL     1       2.124   8.773  22.376  0.00  0.00    +0.000 OA
ATOM     14  H   UNL     1       1.501   8.877  23.117  0.00  0.00    +0.000 HD
ENDBRANCH  10  13
ENDBRANCH   1  10
BRANCH   6  15
ATOM     15  O   UNL     1       3.431   6.172  17.461  0.00  0.00    +0.000 OA
BRANCH  15  16
ATOM     16  C   UNL     1       4.710   5.692  17.361  0.00  0.00    +0.000 A 
ATOM     17  C   UNL     1       5.651   5.700  18.390  0.00  0.00    +0.000 A 
ATOM     18  C   UNL     1       6.963   5.283  18.135  0.00  0.00    +0.000 A 
ATOM     19  C   UNL     1       7.310   4.791  16.878  0.00  0.00    +0.000 A 
ATOM     20  C   UNL     1       6.342   4.698  15.882  0.00  0.00    +0.000 A 
ATOM     21 CL   UNL     1       6.753   4.043  14.345  0.00  0.00    +0.000 Cl
ATOM     22  C   UNL     1       5.045   5.145  16.119  0.00  0.00    +0.000 A 
ENDBRANCH  15  16
ENDBRANCH   6  15
TORSDOF 6
ENDMDL
MODEL 4
REMARK VINA RESULT:      -6.3      2.426      3.688
REMARK  Name = 
REMARK  8 active torsions:
REMARK  status: ('A' for Active; 'I' for Inactive)
REMARK    1  A    between atoms: C_1  and  C_2
REMARK    2  A    between atoms: C_2  and  C_3
REMARK    3  A    between atoms: C_3  and  O_4
REMARK    4  A    between atoms: C_3  and  C_5
REMARK    5  A    between atoms: C_10  and  O_11
REMARK    6  A    between atoms: O_11  and  C_12
REMARK    7  A    between atoms: C_19  and  O_20
REMARK    8  A    between atoms: O_20  and  C_21
REMARK                            x       y       z     vdW  Elec       q    Type
REMARK                         _______ _______ _______ _____ _____    ______ ____
ROOT
ATOM      1  C   UNL     1       1.752   7.378  20.242  0.00  0.00    +0.000 A 
ATOM      2  C   UNL     1       1.424   6.155  20.861  0.00  0.00    +0.000 A 
ATOM      3  C   UNL     1       1.803   4.927  20.320  0.00  0.00    +0.000 A 
ATOM      4  C   UNL     1       2.556   4.871  19.152  0.00  0.00    +0.000 A 
ATOM      5 BR   UNL     1       3.268   3.150  18.757  0.00  0.00    +0.000 Br
ATOM      6  C   UNL     1       2.812   6.050  18.433  0.00  0.00    +0.000 A 
ATOM      7  C   UNL     1       2.427   7.312  18.997  0.00  0.00    +0.000 A 
ENDROOT
BRANCH   7   8
ATOM      8  O   UNL     1       2.642   8.388  18.168  0.00  0.00    +0.000 OA
ATOM      9  C   UNL     1       1.523   9.107  17.664  0.00  0.00    +0.000 C 
ENDBRANCH   7   8
BRANCH   1  10
ATOM     10  C   UNL     1       1.442   8.670  20.988  0.00  0.00    +0.000 C 
BRANCH  10  12
ATOM     11  C   UNL     1      -0.388  10.435  20.658  0.00  0.00    +0.000 C 
ATOM     12  C   UNL     1      -0.059   9.024  21.120  0.00  0.00    +0.000 C 
ENDBRANCH  10  12
BRANCH  10  13
ATOM     13  O   UNL     1       1.966   8.543  22.313  0.00  0.00    +0.000 OA
ATOM     14  H   UNL     1       2.224   7.613  22.442  0.00  0.00    +0.000 HD
ENDBRANCH  10  13
ENDBRANCH   1  10
BRANCH   6  15
ATOM     15  O   UNL     1       3.539   6.133  17.254  0.00  0.00    +0.000 OA
BRANCH  15  16
ATOM     16  C   UNL     1       4.804   5.622  17.125  0.00  0.00    +0.000 A 
ATOM     17  C   UNL     1       5.243   4.827  16.068  0.00  0.00    +0.000 A 
ATOM     18  C   UNL     1       6.527   4.270  16.103  0.00  0.00    +0.000 A 
ATOM     19  C   UNL     1       7.392   4.570  17.154  0.00  0.00    +0.000 A 
ATOM     20  C   UNL     1       6.980   5.441  18.159  0.00  0.00    +0.000 A 
ATOM     21 CL   UNL     1       8.064   5.855  19.430  0.00  0.00    +0.000 Cl
ATOM     22  C   UNL     1       5.692   5.967  18.148  0.00  0.00    +0.000 A 
ENDBRANCH  15  16
ENDBRANCH   6  15
TORSDOF 6
ENDMDL
MODEL 5
REMARK VINA RESULT:      -6.0      2.209      3.312
REMARK  Name = 
REMARK  8 active torsions:
REMARK  status: ('A' for Active; 'I' for Inactive)
REMARK    1  A    between atoms: C_1  and  C_2
REMARK    2  A    between atoms: C_2  and  C_3
REMARK    3  A    between atoms: C_3  and  O_4
REMARK    4  A    between atoms: C_3  and  C_5
REMARK    5  A    between atoms: C_10  and  O_11
REMARK    6  A    between atoms: O_11  and  C_12
REMARK    7  A    between atoms: C_19  and  O_20
REMARK    8  A    between atoms: O_20  and  C_21
REMARK                            x       y       z     vdW  Elec       q    Type
REMARK                         _______ _______ _______ _____ _____    ______ ____
ROOT
ATOM      1  C   UNL     1       2.579   4.586  20.561  0.00  0.00    +0.000 A 
ATOM      2  C   UNL     1       2.146   5.846  21.020  0.00  0.00    +0.000 A 
ATOM      3  C   UNL     1       2.133   6.968  20.194  0.00  0.00    +0.000 A 
ATOM      4  C   UNL     1       2.521   6.872  18.862  0.00  0.00    +0.000 A 
ATOM      5 BR   UNL     1       2.113   8.405  17.810  0.00  0.00    +0.000 Br
ATOM      6  C   UNL     1       3.070   5.671  18.384  0.00  0.00    +0.000 A 
ATOM      7  C   UNL     1       3.074   4.515  19.234  0.00  0.00    +0.000 A 
ENDROOT
BRANCH   7   8
ATOM      8  O   UNL     1       3.717   3.423  18.698  0.00  0.00    +0.000 OA
ATOM      9  C   UNL     1       2.970   2.493  17.925  0.00  0.00    +0.000 C 
ENDBRANCH   7   8
BRANCH   1  10
ATOM     10  C   UNL     1       2.404   3.383  21.482  0.00  0.00    +0.000 C 
BRANCH  10  12
ATOM     11  C   UNL     1       0.318   3.000  20.041  0.00  0.00    +0.000 C 
ATOM     12  C   UNL     1       1.171   2.493  21.194  0.00  0.00    +0.000 C 
ENDBRANCH  10  12
BRANCH  10  13
ATOM     13  O   UNL     1       3.564   2.558  21.343  0.00  0.00    +0.000 OA
ATOM     14  H   UNL     1       3.538   2.155  20.457  0.00  0.00    +0.000 HD
ENDBRANCH  10  13
ENDBRANCH   1  10
BRANCH   6  15
ATOM     15  O   UNL     1       3.503   5.443  17.085  0.00  0.00    +0.000 OA
BRANCH  15  16
ATOM     16  C   UNL     1       4.827   5.460  16.732  0.00  0.00    +0.000 A 
ATOM     17  C   UNL     1       5.435   4.559  15.859  0.00  0.00    +0.000 A 
ATOM     18  C   UNL     1       6.820   4.609  15.662  0.00  0.00    +0.000 A 
ATOM     19  C   UNL     1       7.579   5.604  16.275  0.00  0.00    +0.000 A 
ATOM     20  C   UNL     1       6.952   6.559  17.071  0.00  0.00    +0.000 A 
ATOM     21 CL   UNL     1       7.878   7.819  17.788  0.00  0.00    +0.000 Cl
ATOM     22  C   UNL     1       5.581   6.491  17.300  0.00  0.00    +0.000 A 
ENDBRANCH  15  16
ENDBRANCH   6  15
TORSDOF 6
ENDMDL
MODEL 6
REMARK VINA RESULT:      -6.0      2.234      3.391
REMARK  Name = 
REMARK  8 active torsions:
REMARK  status: ('A' for Active; 'I' for Inactive)
REMARK    1  A    between atoms: C_1  and  C_2
REMARK    2  A    between atoms: C_2  and  C_3
REMARK    3  A    between atoms: C_3  and  O_4
REMARK    4  A    between atoms: C_3  and  C_5
REMARK    5  A    between atoms: C_10  and  O_11
REMARK    6  A    between atoms: O_11  and  C_12
REMARK    7  A    between atoms: C_19  and  O_20
REMARK    8  A    between atoms: O_20  and  C_21
REMARK                            x       y       z     vdW  Elec       q    Type
REMARK                         _______ _______ _______ _____ _____    ______ ____
ROOT
ATOM      1  C   UNL     1       1.694   7.302  20.316  0.00  0.00    +0.000 A 
ATOM      2  C   UNL     1       1.267   6.126  20.965  0.00  0.00    +0.000 A 
ATOM      3  C   UNL     1       1.600   4.858  20.493  0.00  0.00    +0.000 A 
ATOM      4  C   UNL     1       2.404   4.711  19.367  0.00  0.00    +0.000 A 
ATOM      5 BR   UNL     1       3.034   2.938  19.076  0.00  0.00    +0.000 Br
ATOM      6  C   UNL     1       2.760   5.842  18.616  0.00  0.00    +0.000 A 
ATOM      7  C   UNL     1       2.422   7.146  19.110  0.00  0.00    +0.000 A 
ENDROOT
BRANCH   7   8
ATOM      8  O   UNL     1       2.738   8.174  18.251  0.00  0.00    +0.000 OA
ATOM      9  C   UNL     1       1.686   8.895  17.621  0.00  0.00    +0.000 C 
ENDBRANCH   7   8
BRANCH   1  10
ATOM     10  C   UNL     1       1.422   8.640  20.994  0.00  0.00    +0.000 C 
BRANCH  10  12
ATOM     11  C   UNL     1      -0.482  10.208  20.297  0.00  0.00    +0.000 C 
ATOM     12  C   UNL     1      -0.069   9.020  21.153  0.00  0.00    +0.000 C 
ENDBRANCH  10  12
BRANCH  10  13
ATOM     13  O   UNL     1       1.988   8.583  22.307  0.00  0.00    +0.000 OA
ATOM     14  H   UNL     1       2.903   8.261  22.222  0.00  0.00    +0.000 HD
ENDBRANCH  10  13
ENDBRANCH   1  10
BRANCH   6  15
ATOM     15  O   UNL     1       3.547   5.836  17.472  0.00  0.00    +0.000 OA
BRANCH  15  16
ATOM     16  C   UNL     1       4.912   5.722  17.512  0.00  0.00    +0.000 A 
ATOM     17  C   UNL     1       5.614   4.519  17.558  0.00  0.00    +0.000 A 
ATOM     18  C   UNL     1       7.006   4.532  17.709  0.00  0.00    +0.000 A 
ATOM     19  C   UNL     1       7.696   5.743  17.736  0.00  0.00    +0.000 A 
ATOM     20  C   UNL     1       6.997   6.939  17.594  0.00  0.00    +0.000 A 
ATOM     21 CL   UNL     1       7.851   8.433  17.575  0.00  0.00    +0.000 Cl
ATOM     22  C   UNL     1       5.610   6.932  17.481  0.00  0.00    +0.000 A 
ENDBRANCH  15  16
ENDBRANCH   6  15
TORSDOF 6
ENDMDL
MODEL 7
REMARK VINA RESULT:      -5.9      2.911      5.600
REMARK  Name = 
REMARK  8 active torsions:
REMARK  status: ('A' for Active; 'I' for Inactive)
REMARK    1  A    between atoms: C_1  and  C_2
REMARK    2  A    between atoms: C_2  and  C_3
REMARK    3  A    between atoms: C_3  and  O_4
REMARK    4  A    between atoms: C_3  and  C_5
REMARK    5  A    between atoms: C_10  and  O_11
REMARK    6  A    between atoms: O_11  and  C_12
REMARK    7  A    between atoms: C_19  and  O_20
REMARK    8  A    between atoms: O_20  and  C_21
REMARK                            x       y       z     vdW  Elec       q    Type
REMARK                         _______ _______ _______ _____ _____    ______ ____
ROOT
ATOM      1  C   UNL     1       5.643   5.240  18.436  0.00  0.00    +0.000 A 
ATOM      2  C   UNL     1       5.390   4.210  19.363  0.00  0.00    +0.000 A 
ATOM      3  C   UNL     1       4.101   3.907  19.798  0.00  0.00    +0.000 A 
ATOM      4  C   UNL     1       3.004   4.601  19.299  0.00  0.00    +0.000 A 
ATOM      5 BR   UNL     1       1.319   3.831  19.736  0.00  0.00    +0.000 Br
ATOM      6  C   UNL     1       3.207   5.711  18.463  0.00  0.00    +0.000 A 
ATOM      7  C   UNL     1       4.534   6.015  18.011  0.00  0.00    +0.000 A 
ENDROOT
BRANCH   7   8
ATOM      8  O   UNL     1       4.628   7.174  17.275  0.00  0.00    +0.000 OA
ATOM      9  C   UNL     1       4.866   7.086  15.876  0.00  0.00    +0.000 C 
ENDBRANCH   7   8
BRANCH   1  10
ATOM     10  C   UNL     1       7.060   5.391  17.893  0.00  0.00    +0.000 C 
BRANCH  10  12
ATOM     11  C   UNL     1       7.953   7.794  17.874  0.00  0.00    +0.000 C 
ATOM     12  C   UNL     1       7.937   6.455  18.596  0.00  0.00    +0.000 C 
ENDBRANCH  10  12
BRANCH  10  13
ATOM     13  O   UNL     1       7.719   4.131  18.045  0.00  0.00    +0.000 OA
ATOM     14  H   UNL     1       7.076   3.503  18.419  0.00  0.00    +0.000 HD
ENDBRANCH  10  13
ENDBRANCH   1  10
BRANCH   6  15
ATOM     15  O   UNL     1       2.206   6.494  17.905  0.00  0.00    +0.000 OA
BRANCH  15  16
ATOM     16  C   UNL     1       1.816   7.693  18.441  0.00  0.00    +0.000 A 
ATOM     17  C   UNL     1       1.561   8.852  17.711  0.00  0.00    +0.000 A 
ATOM     18  C   UNL     1       1.277  10.048  18.381  0.00  0.00    +0.000 A 
ATOM     19  C   UNL     1       1.173  10.064  19.772  0.00  0.00    +0.000 A 
ATOM     20  C   UNL     1       1.336   8.882  20.489  0.00  0.00    +0.000 A 
ATOM     21 CL   UNL     1       1.158   8.887  22.201  0.00  0.00    +0.000 Cl
ATOM     22  C   UNL     1       1.655   7.699  19.830  0.00  0.00    +0.000 A 
ENDBRANCH  15  16
ENDBRANCH   6  15
TORSDOF 6
ENDMDL
MODEL 8
REMARK VINA RESULT:      -5.9      2.767      3.814
REMARK  Name = 
REMARK  8 active torsions:
REMARK  status: ('A' for Active; 'I' for Inactive)
REMARK    1  A    between atoms: C_1  and  C_2
REMARK    2  A    between atoms: C_2  and  C_3
REMARK    3  A    between atoms: C_3  and  O_4
REMARK    4  A    between atoms: C_3  and  C_5
REMARK    5  A    between atoms: C_10  and  O_11
REMARK    6  A    between atoms: O_11  and  C_12
REMARK    7  A    between atoms: C_19  and  O_20
REMARK    8  A    between atoms: O_20  and  C_21
REMARK                            x       y       z     vdW  Elec       q    Type
REMARK                         _______ _______ _______ _____ _____    ______ ____
ROOT
ATOM      1  C   UNL     1       2.647   4.604  20.583  0.00  0.00    +0.000 A 
ATOM      2  C   UNL     1       2.227   5.871  21.037  0.00  0.00    +0.000 A 
ATOM      3  C   UNL     1       2.201   6.985  20.199  0.00  0.00    +0.000 A 
ATOM      4  C   UNL     1       2.563   6.873  18.861  0.00  0.00    +0.000 A 
ATOM      5 BR   UNL     1       2.139   8.396  17.801  0.00  0.00    +0.000 Br
ATOM      6  C   UNL     1       3.099   5.665  18.385  0.00  0.00    +0.000 A 
ATOM      7  C   UNL     1       3.116   4.519  19.248  0.00  0.00    +0.000 A 
ENDROOT
BRANCH   7   8
ATOM      8  O   UNL     1       3.745   3.419  18.711  0.00  0.00    +0.000 OA
ATOM      9  C   UNL     1       2.986   2.498  17.937  0.00  0.00    +0.000 C 
ENDBRANCH   7   8
BRANCH   1  10
ATOM     10  C   UNL     1       2.486   3.412  21.519  0.00  0.00    +0.000 C 
BRANCH  10  12
ATOM     11  C   UNL     1       0.423   2.935  20.074  0.00  0.00    +0.000 C 
ATOM     12  C   UNL     1       1.182   2.598  21.350  0.00  0.00    +0.000 C 
ENDBRANCH  10  12
BRANCH  10  13
ATOM     13  O   UNL     1       3.577   2.520  21.277  0.00  0.00    +0.000 OA
ATOM     14  H   UNL     1       3.383   1.682  21.734  0.00  0.00    +0.000 HD
ENDBRANCH  10  13
ENDBRANCH   1  10
BRANCH   6  15
ATOM     15  O   UNL     1       3.506   5.422  17.081  0.00  0.00    +0.000 OA
BRANCH  15  16
ATOM     16  C   UNL     1       4.824   5.405  16.707  0.00  0.00    +0.000 A 
ATOM     17  C   UNL     1       5.869   5.982  17.427  0.00  0.00    +0.000 A 
ATOM     18  C   UNL     1       7.160   5.998  16.887  0.00  0.00    +0.000 A 
ATOM     19  C   UNL     1       7.418   5.371  15.669  0.00  0.00    +0.000 A 
ATOM     20  C   UNL     1       6.388   4.714  15.000  0.00  0.00    +0.000 A 
ATOM     21 CL   UNL     1       6.713   3.895  13.522  0.00  0.00    +0.000 Cl
ATOM     22  C   UNL     1       5.095   4.728  15.514  0.00  0.00    +0.000 A 
ENDBRANCH  15  16
ENDBRANCH   6  15
TORSDOF 6
ENDMDL
MODEL 9
REMARK VINA RESULT:      -5.8      3.030      5.383
REMARK  Name = 
REMARK  8 active torsions:
REMARK  status: ('A' for Active; 'I' for Inactive)
REMARK    1  A    between atoms: C_1  and  C_2
REMARK    2  A    between atoms: C_2  and  C_3
REMARK    3  A    between atoms: C_3  and  O_4
REMARK    4  A    between atoms: C_3  and  C_5
REMARK    5  A    between atoms: C_10  and  O_11
REMARK    6  A    between atoms: O_11  and  C_12
REMARK    7  A    between atoms: C_19  and  O_20
REMARK    8  A    between atoms: O_20  and  C_21
REMARK                            x       y       z     vdW  Elec       q    Type
REMARK                         _______ _______ _______ _____ _____    ______ ____
ROOT
ATOM      1  C   UNL     1       5.581   4.769  18.376  0.00  0.00    +0.000 A 
ATOM      2  C   UNL     1       5.184   3.676  19.172  0.00  0.00    +0.000 A 
ATOM      3  C   UNL     1       3.882   3.543  19.649  0.00  0.00    +0.000 A 
ATOM      4  C   UNL     1       2.909   4.482  19.323  0.00  0.00    +0.000 A 
ATOM      5 BR   UNL     1       1.132   3.962  19.767  0.00  0.00    +0.000 Br
ATOM      6  C   UNL     1       3.275   5.649  18.633  0.00  0.00    +0.000 A 
ATOM      7  C   UNL     1       4.614   5.779  18.136  0.00  0.00    +0.000 A 
ENDROOT
BRANCH   7   8
ATOM      8  O   UNL     1       4.886   6.997  17.558  0.00  0.00    +0.000 OA
ATOM      9  C   UNL     1       4.759   7.137  16.149  0.00  0.00    +0.000 C 
ENDBRANCH   7   8
BRANCH   1  10
ATOM     10  C   UNL     1       6.977   4.748  17.764  0.00  0.00    +0.000 C 
BRANCH  10  12
ATOM     11  C   UNL     1       6.037   3.665  15.638  0.00  0.00    +0.000 C 
ATOM     12  C   UNL     1       7.030   4.661  16.220  0.00  0.00    +0.000 C 
ENDBRANCH  10  12
BRANCH  10  13
ATOM     13  O   UNL     1       7.636   5.960  18.143  0.00  0.00    +0.000 OA
ATOM     14  H   UNL     1       7.996   6.367  17.335  0.00  0.00    +0.000 HD
ENDBRANCH  10  13
ENDBRANCH   1  10
BRANCH   6  15
ATOM     15  O   UNL     1       2.410   6.666  18.254  0.00  0.00    +0.000 OA
BRANCH  15  16
ATOM     16  C   UNL     1       1.956   7.618  19.129  0.00  0.00    +0.000 A 
ATOM     17  C   UNL     1       1.822   7.441  20.505  0.00  0.00    +0.000 A 
ATOM     18  C   UNL     1       1.241   8.451  21.282  0.00  0.00    +0.000 A 
ATOM     19  C   UNL     1       0.867   9.659  20.696  0.00  0.00    +0.000 A 
ATOM     20  C   UNL     1       1.091   9.864  19.337  0.00  0.00    +0.000 A 
ATOM     21 CL   UNL     1       0.680  11.373  18.620  0.00  0.00    +0.000 Cl
ATOM     22  C   UNL     1       1.634   8.850  18.554  0.00  0.00    +0.000 A 
ENDBRANCH  15  16
ENDBRANCH   6  15
TORSDOF 6
ENDMDL
