MODEL 1
REMARK VINA RESULT:      -6.2      0.000      0.000
REMARK  Name = 
REMARK  13 active torsions:
REMARK  status: ('A' for Active; 'I' for Inactive)
REMARK    1  A    between atoms: C_1  and  C_2
REMARK    2  A    between atoms: C_2  and  O_3
REMARK    3  A    between atoms: O_3  and  C_4
REMARK    4  A    between atoms: C_4  and  C_5
REMARK    5  A    between atoms: C_5  and  C_6
REMARK    6  A    between atoms: C_6  and  N_7
REMARK    7  A    between atoms: N_7  and  C_8
REMARK    8  A    between atoms: C_8  and  N_10
REMARK    9  A    between atoms: N_10  and  C_11
REMARK   10  A    between atoms: C_13  and  O_14
REMARK   11  A    between atoms: O_14  and  C_15
REMARK   12  A    between atoms: C_19  and  O_20
REMARK   13  A    between atoms: O_20  and  C_21
REMARK                            x       y       z     vdW  Elec       q    Type
REMARK                         _______ _______ _______ _____ _____    ______ ____
ROOT
ATOM      1  N   UNL     1       2.734   3.915  17.719  0.00  0.00    +0.000 N 
ATOM      2  H   UNL     1       2.018   3.605  17.084  0.00  0.00    +0.000 HD
ENDROOT
BRANCH   1   3
ATOM      3  C   UNL     1       2.414   4.960  18.614  0.00  0.00    +0.000 A 
ATOM      4  C   UNL     1       2.632   6.273  18.156  0.00  0.00    +0.000 A 
ATOM      5  C   UNL     1       2.365   7.415  18.924  0.00  0.00    +0.000 A 
ATOM      6  C   UNL     1       1.841   7.229  20.198  0.00  0.00    +0.000 A 
ATOM      7 CL   UNL     1       1.467   8.488  21.320  0.00  0.00    +0.000 Cl
ATOM      8  C   UNL     1       1.565   5.927  20.644  0.00  0.00    +0.000 A 
ATOM      9  C   UNL     1       1.825   4.782  19.869  0.00  0.00    +0.000 A 
BRANCH   5  10
ATOM     10  O   UNL     1       2.680   8.547  18.229  0.00  0.00    +0.000 OA
ATOM     11  C   UNL     1       1.686   9.488  17.879  0.00  0.00    +0.000 C 
ENDBRANCH   5  10
BRANCH   9  12
ATOM     12  O   UNL     1       1.456   3.654  20.545  0.00  0.00    +0.000 OA
ATOM     13  C   UNL     1       2.219   3.124  21.608  0.00  0.00    +0.000 C 
ENDBRANCH   9  12
ENDBRANCH   1   3
BRANCH   1  14
ATOM     14  C   UNL     1       3.775   2.996  17.838  0.00  0.00    +0.000 C 
ATOM     15  S   UNL     1       3.673   1.455  18.487  0.00  0.00    +0.000 S 
BRANCH  14  16
ATOM     16  N   UNL     1       4.904   3.511  17.228  0.00  0.00    +0.000 N 
ATOM     17  H   UNL     1       5.772   3.426  17.743  0.00  0.00    +0.000 HD
BRANCH  16  18
ATOM     18  C   UNL     1       5.016   3.988  15.855  0.00  0.00    +0.000 C 
BRANCH  18  19
ATOM     19  C   UNL     1       6.471   4.265  15.474  0.00  0.00    +0.000 C 
BRANCH  19  20
ATOM     20  C   UNL     1       7.274   4.860  16.624  0.00  0.00    +0.000 C 
BRANCH  20  21
ATOM     21  O   UNL     1       7.537   6.232  16.344  0.00  0.00    +0.000 OA
BRANCH  21  23
ATOM     22  C   UNL     1       7.686   6.159  18.717  0.00  0.00    +0.000 C 
ATOM     23  C   UNL     1       7.432   7.040  17.511  0.00  0.00    +0.000 C 
ENDBRANCH  21  23
ENDBRANCH  20  21
ENDBRANCH  19  20
ENDBRANCH  18  19
ENDBRANCH  16  18
ENDBRANCH  14  16
ENDBRANCH   1  14
TORSDOF 10
ENDMDL
MODEL 2
REMARK VINA RESULT:      -6.2      2.400      4.238
REMARK  Name = 
REMARK  13 active torsions:
REMARK  status: ('A' for Active; 'I' for Inactive)
REMARK    1  A    between atoms: C_1  and  C_2
REMARK    2  A    between atoms: C_2  and  O_3
REMARK    3  A    between atoms: O_3  and  C_4
REMARK    4  A    between atoms: C_4  and  C_5
REMARK    5  A    between atoms: C_5  and  C_6
REMARK    6  A    between atoms: C_6  and  N_7
REMARK    7  A    between atoms: N_7  and  C_8
REMARK    8  A    between atoms: C_8  and  N_10
REMARK    9  A    between atoms: N_10  and  C_11
REMARK   10  A    between atoms: C_13  and  O_14
REMARK   11  A    between atoms: O_14  and  C_15
REMARK   12  A    between atoms: C_19  and  O_20
REMARK   13  A    between atoms: O_20  and  C_21
REMARK                            x       y       z     vdW  Elec       q    Type
REMARK                         _______ _______ _______ _____ _____    ______ ____
ROOT
ATOM      1  N   UNL     1       5.211   5.877  16.232  0.00  0.00    +0.000 N 
ATOM      2  H   UNL     1       5.100   6.744  15.736  0.00  0.00    +0.000 HD
ENDROOT
BRANCH   1   3
ATOM      3  C   UNL     1       4.178   5.486  17.114  0.00  0.00    +0.000 A 
ATOM      4  C   UNL     1       3.952   4.103  17.247  0.00  0.00    +0.000 A 
ATOM      5  C   UNL     1       2.967   3.557  18.081  0.00  0.00    +0.000 A 
ATOM      6  C   UNL     1       2.187   4.437  18.823  0.00  0.00    +0.000 A 
ATOM      7 CL   UNL     1       0.904   3.985  19.887  0.00  0.00    +0.000 Cl
ATOM      8  C   UNL     1       2.442   5.816  18.743  0.00  0.00    +0.000 A 
ATOM      9  C   UNL     1       3.438   6.362  17.912  0.00  0.00    +0.000 A 
BRANCH   5  10
ATOM     10  O   UNL     1       2.971   2.195  18.003  0.00  0.00    +0.000 OA
ATOM     11  C   UNL     1       3.839   1.420  18.805  0.00  0.00    +0.000 C 
ENDBRANCH   5  10
BRANCH   9  12
ATOM     12  O   UNL     1       3.469   7.722  18.036  0.00  0.00    +0.000 OA
ATOM     13  C   UNL     1       2.354   8.535  17.739  0.00  0.00    +0.000 C 
ENDBRANCH   9  12
ENDBRANCH   1   3
BRANCH   1  14
ATOM     14  C   UNL     1       6.186   5.059  15.664  0.00  0.00    +0.000 C 
ATOM     15  S   UNL     1       6.029   4.143  14.270  0.00  0.00    +0.000 S 
BRANCH  14  16
ATOM     16  N   UNL     1       7.365   5.203  16.372  0.00  0.00    +0.000 N 
ATOM     17  H   UNL     1       8.018   5.892  16.021  0.00  0.00    +0.000 HD
BRANCH  16  18
ATOM     18  C   UNL     1       7.686   4.613  17.665  0.00  0.00    +0.000 C 
BRANCH  18  19
ATOM     19  C   UNL     1       7.397   5.584  18.812  0.00  0.00    +0.000 C 
BRANCH  19  20
ATOM     20  C   UNL     1       8.115   6.916  18.645  0.00  0.00    +0.000 C 
BRANCH  20  21
ATOM     21  O   UNL     1       7.380   7.727  17.732  0.00  0.00    +0.000 OA
BRANCH  21  23
ATOM     22  C   UNL     1       8.774   9.320  18.819  0.00  0.00    +0.000 C 
ATOM     23  C   UNL     1       7.972   9.012  17.571  0.00  0.00    +0.000 C 
ENDBRANCH  21  23
ENDBRANCH  20  21
ENDBRANCH  19  20
ENDBRANCH  18  19
ENDBRANCH  16  18
ENDBRANCH  14  16
ENDBRANCH   1  14
TORSDOF 10
ENDMDL
MODEL 3
REMARK VINA RESULT:      -5.9      1.673      2.139
REMARK  Name = 
REMARK  13 active torsions:
REMARK  status: ('A' for Active; 'I' for Inactive)
REMARK    1  A    between atoms: C_1  and  C_2
REMARK    2  A    between atoms: C_2  and  O_3
REMARK    3  A    between atoms: O_3  and  C_4
REMARK    4  A    between atoms: C_4  and  C_5
REMARK    5  A    between atoms: C_5  and  C_6
REMARK    6  A    between atoms: C_6  and  N_7
REMARK    7  A    between atoms: N_7  and  C_8
REMARK    8  A    between atoms: C_8  and  N_10
REMARK    9  A    between atoms: N_10  and  C_11
REMARK   10  A    between atoms: C_13  and  O_14
REMARK   11  A    between atoms: O_14  and  C_15
REMARK   12  A    between atoms: C_19  and  O_20
REMARK   13  A    between atoms: O_20  and  C_21
REMARK                            x       y       z     vdW  Elec       q    Type
REMARK                         _______ _______ _______ _____ _____    ______ ____
ROOT
ATOM      1  N   UNL     1       4.021   3.934  17.520  0.00  0.00    +0.000 N 
ATOM      2  H   UNL     1       3.671   2.992  17.514  0.00  0.00    +0.000 HD
ENDROOT
BRANCH   1   3
ATOM      3  C   UNL     1       3.387   4.868  18.370  0.00  0.00    +0.000 A 
ATOM      4  C   UNL     1       3.312   6.195  17.906  0.00  0.00    +0.000 A 
ATOM      5  C   UNL     1       2.716   7.235  18.631  0.00  0.00    +0.000 A 
ATOM      6  C   UNL     1       2.158   6.926  19.866  0.00  0.00    +0.000 A 
ATOM      7 CL   UNL     1       1.402   8.053  20.934  0.00  0.00    +0.000 Cl
ATOM      8  C   UNL     1       2.175   5.595  20.314  0.00  0.00    +0.000 A 
ATOM      9  C   UNL     1       2.766   4.549  19.580  0.00  0.00    +0.000 A 
BRANCH   5  10
ATOM     10  O   UNL     1       2.798   8.411  17.942  0.00  0.00    +0.000 OA
ATOM     11  C   UNL     1       1.669   9.248  17.792  0.00  0.00    +0.000 C 
ENDBRANCH   5  10
BRANCH   9  12
ATOM     12  O   UNL     1       2.632   3.365  20.247  0.00  0.00    +0.000 OA
ATOM     13  C   UNL     1       1.460   3.021  20.954  0.00  0.00    +0.000 C 
ENDBRANCH   9  12
ENDBRANCH   1   3
BRANCH   1  14
ATOM     14  C   UNL     1       5.297   4.032  16.967  0.00  0.00    +0.000 C 
ATOM     15  S   UNL     1       5.668   4.187  15.341  0.00  0.00    +0.000 S 
BRANCH  14  16
ATOM     16  N   UNL     1       6.227   4.098  17.987  0.00  0.00    +0.000 N 
ATOM     17  H   UNL     1       6.006   3.584  18.831  0.00  0.00    +0.000 HD
BRANCH  16  18
ATOM     18  C   UNL     1       7.568   4.664  17.914  0.00  0.00    +0.000 C 
BRANCH  18  19
ATOM     19  C   UNL     1       7.611   6.081  18.491  0.00  0.00    +0.000 C 
BRANCH  19  20
ATOM     20  C   UNL     1       7.213   7.140  17.471  0.00  0.00    +0.000 C 
BRANCH  20  21
ATOM     21  O   UNL     1       8.251   8.113  17.384  0.00  0.00    +0.000 OA
BRANCH  21  23
ATOM     22  C   UNL     1       9.001  10.134  18.390  0.00  0.00    +0.000 C 
ATOM     23  C   UNL     1       7.810   9.397  17.814  0.00  0.00    +0.000 C 
ENDBRANCH  21  23
ENDBRANCH  20  21
ENDBRANCH  19  20
ENDBRANCH  18  19
ENDBRANCH  16  18
ENDBRANCH  14  16
ENDBRANCH   1  14
TORSDOF 10
ENDMDL
MODEL 4
REMARK VINA RESULT:      -5.8      0.914      1.765
REMARK  Name = 
REMARK  13 active torsions:
REMARK  status: ('A' for Active; 'I' for Inactive)
REMARK    1  A    between atoms: C_1  and  C_2
REMARK    2  A    between atoms: C_2  and  O_3
REMARK    3  A    between atoms: O_3  and  C_4
REMARK    4  A    between atoms: C_4  and  C_5
REMARK    5  A    between atoms: C_5  and  C_6
REMARK    6  A    between atoms: C_6  and  N_7
REMARK    7  A    between atoms: N_7  and  C_8
REMARK    8  A    between atoms: C_8  and  N_10
REMARK    9  A    between atoms: N_10  and  C_11
REMARK   10  A    between atoms: C_13  and  O_14
REMARK   11  A    between atoms: O_14  and  C_15
REMARK   12  A    between atoms: C_19  and  O_20
REMARK   13  A    between atoms: O_20  and  C_21
REMARK                            x       y       z     vdW  Elec       q    Type
REMARK                         _______ _______ _______ _____ _____    ______ ____
ROOT
ATOM      1  N   UNL     1       3.581   4.426  17.949  0.00  0.00    +0.000 N 
ATOM      2  H   UNL     1       3.271   4.361  16.995  0.00  0.00    +0.000 HD
ENDROOT
BRANCH   1   3
ATOM      3  C   UNL     1       2.976   5.400  18.775  0.00  0.00    +0.000 A 
ATOM      4  C   UNL     1       2.848   6.694  18.237  0.00  0.00    +0.000 A 
ATOM      5  C   UNL     1       2.271   7.766  18.929  0.00  0.00    +0.000 A 
ATOM      6  C   UNL     1       1.789   7.524  20.211  0.00  0.00    +0.000 A 
ATOM      7 CL   UNL     1       1.069   8.703  21.249  0.00  0.00    +0.000 Cl
ATOM      8  C   UNL     1       1.858   6.224  20.737  0.00  0.00    +0.000 A 
ATOM      9  C   UNL     1       2.430   5.146  20.036  0.00  0.00    +0.000 A 
BRANCH   5  10
ATOM     10  O   UNL     1       2.289   8.898  18.166  0.00  0.00    +0.000 OA
ATOM     11  C   UNL     1       1.112   9.647  17.944  0.00  0.00    +0.000 C 
ENDBRANCH   5  10
BRANCH   9  12
ATOM     12  O   UNL     1       2.359   4.003  20.780  0.00  0.00    +0.000 OA
ATOM     13  C   UNL     1       1.189   3.215  20.849  0.00  0.00    +0.000 C 
ENDBRANCH   9  12
ENDBRANCH   1   3
BRANCH   1  14
ATOM     14  C   UNL     1       4.280   3.292  18.361  0.00  0.00    +0.000 C 
ATOM     15  S   UNL     1       3.690   1.724  18.413  0.00  0.00    +0.000 S 
BRANCH  14  16
ATOM     16  N   UNL     1       5.593   3.638  18.618  0.00  0.00    +0.000 N 
ATOM     17  H   UNL     1       6.302   3.026  18.236  0.00  0.00    +0.000 HD
BRANCH  16  18
ATOM     18  C   UNL     1       6.069   4.881  19.213  0.00  0.00    +0.000 C 
BRANCH  18  19
ATOM     19  C   UNL     1       6.980   5.650  18.253  0.00  0.00    +0.000 C 
BRANCH  19  20
ATOM     20  C   UNL     1       7.420   4.806  17.063  0.00  0.00    +0.000 C 
BRANCH  20  21
ATOM     21  O   UNL     1       7.341   5.597  15.881  0.00  0.00    +0.000 OA
BRANCH  21  23
ATOM     22  C   UNL     1       6.031   3.792  15.051  0.00  0.00    +0.000 C 
ATOM     23  C   UNL     1       6.174   5.299  15.121  0.00  0.00    +0.000 C 
ENDBRANCH  21  23
ENDBRANCH  20  21
ENDBRANCH  19  20
ENDBRANCH  18  19
ENDBRANCH  16  18
ENDBRANCH  14  16
ENDBRANCH   1  14
TORSDOF 10
ENDMDL
MODEL 5
REMARK VINA RESULT:      -5.8      3.209      4.324
REMARK  Name = 
REMARK  13 active torsions:
REMARK  status: ('A' for Active; 'I' for Inactive)
REMARK    1  A    between atoms: C_1  and  C_2
REMARK    2  A    between atoms: C_2  and  O_3
REMARK    3  A    between atoms: O_3  and  C_4
REMARK    4  A    between atoms: C_4  and  C_5
REMARK    5  A    between atoms: C_5  and  C_6
REMARK    6  A    between atoms: C_6  and  N_7
REMARK    7  A    between atoms: N_7  and  C_8
REMARK    8  A    between atoms: C_8  and  N_10
REMARK    9  A    between atoms: N_10  and  C_11
REMARK   10  A    between atoms: C_13  and  O_14
REMARK   11  A    between atoms: O_14  and  C_15
REMARK   12  A    between atoms: C_19  and  O_20
REMARK   13  A    between atoms: O_20  and  C_21
REMARK                            x       y       z     vdW  Elec       q    Type
REMARK                         _______ _______ _______ _____ _____    ______ ____
ROOT
ATOM      1  N   UNL     1       6.438   4.083  18.243  0.00  0.00    +0.000 N 
ATOM      2  H   UNL     1       7.142   3.569  18.743  0.00  0.00    +0.000 HD
ENDROOT
BRANCH   1   3
ATOM      3  C   UNL     1       5.110   4.017  18.720  0.00  0.00    +0.000 A 
ATOM      4  C   UNL     1       4.230   5.025  18.282  0.00  0.00    +0.000 A 
ATOM      5  C   UNL     1       2.884   5.097  18.665  0.00  0.00    +0.000 A 
ATOM      6  C   UNL     1       2.398   4.106  19.511  0.00  0.00    +0.000 A 
ATOM      7 CL   UNL     1       0.787   4.018  20.127  0.00  0.00    +0.000 Cl
ATOM      8  C   UNL     1       3.250   3.063  19.908  0.00  0.00    +0.000 A 
ATOM      9  C   UNL     1       4.600   2.987  19.515  0.00  0.00    +0.000 A 
BRANCH   5  10
ATOM     10  O   UNL     1       2.279   6.180  18.096  0.00  0.00    +0.000 OA
ATOM     11  C   UNL     1       2.908   7.446  18.084  0.00  0.00    +0.000 C 
ENDBRANCH   5  10
BRANCH   9  12
ATOM     12  O   UNL     1       5.187   1.871  20.041  0.00  0.00    +0.000 OA
ATOM     13  C   UNL     1       4.875   1.387  21.330  0.00  0.00    +0.000 C 
ENDBRANCH   9  12
ENDBRANCH   1   3
BRANCH   1  14
ATOM     14  C   UNL     1       6.982   5.055  17.405  0.00  0.00    +0.000 C 
ATOM     15  S   UNL     1       7.329   6.643  17.815  0.00  0.00    +0.000 S 
BRANCH  14  16
ATOM     16  N   UNL     1       7.306   4.476  16.193  0.00  0.00    +0.000 N 
ATOM     17  H   UNL     1       7.738   3.561  16.232  0.00  0.00    +0.000 HD
BRANCH  16  18
ATOM     18  C   UNL     1       6.926   4.950  14.868  0.00  0.00    +0.000 C 
BRANCH  18  19
ATOM     19  C   UNL     1       6.053   3.928  14.136  0.00  0.00    +0.000 C 
BRANCH  19  20
ATOM     20  C   UNL     1       6.543   3.648  12.721  0.00  0.00    +0.000 C 
BRANCH  20  21
ATOM     21  O   UNL     1       5.548   2.899  12.027  0.00  0.00    +0.000 OA
BRANCH  21  23
ATOM     22  C   UNL     1       3.551   2.939  10.735  0.00  0.00    +0.000 C 
ATOM     23  C   UNL     1       4.392   3.683  11.751  0.00  0.00    +0.000 C 
ENDBRANCH  21  23
ENDBRANCH  20  21
ENDBRANCH  19  20
ENDBRANCH  18  19
ENDBRANCH  16  18
ENDBRANCH  14  16
ENDBRANCH   1  14
TORSDOF 10
ENDMDL
MODEL 6
REMARK VINA RESULT:      -5.8      3.203      5.149
REMARK  Name = 
REMARK  13 active torsions:
REMARK  status: ('A' for Active; 'I' for Inactive)
REMARK    1  A    between atoms: C_1  and  C_2
REMARK    2  A    between atoms: C_2  and  O_3
REMARK    3  A    between atoms: O_3  and  C_4
REMARK    4  A    between atoms: C_4  and  C_5
REMARK    5  A    between atoms: C_5  and  C_6
REMARK    6  A    between atoms: C_6  and  N_7
REMARK    7  A    between atoms: N_7  and  C_8
REMARK    8  A    between atoms: C_8  and  N_10
REMARK    9  A    between atoms: N_10  and  C_11
REMARK   10  A    between atoms: C_13  and  O_14
REMARK   11  A    between atoms: O_14  and  C_15
REMARK   12  A    between atoms: C_19  and  O_20
REMARK   13  A    between atoms: O_20  and  C_21
REMARK                            x       y       z     vdW  Elec       q    Type
REMARK                         _______ _______ _______ _____ _____    ______ ____
ROOT
ATOM      1  N   UNL     1       5.100   5.971  16.238  0.00  0.00    +0.000 N 
ATOM      2  H   UNL     1       4.822   5.733  15.302  0.00  0.00    +0.000 HD
ENDROOT
BRANCH   1   3
ATOM      3  C   UNL     1       4.178   5.728  17.281  0.00  0.00    +0.000 A 
ATOM      4  C   UNL     1       4.164   4.429  17.823  0.00  0.00    +0.000 A 
ATOM      5  C   UNL     1       3.309   4.032  18.859  0.00  0.00    +0.000 A 
ATOM      6  C   UNL     1       2.444   4.985  19.385  0.00  0.00    +0.000 A 
ATOM      7 CL   UNL     1       1.292   4.707  20.641  0.00  0.00    +0.000 Cl
ATOM      8  C   UNL     1       2.490   6.300  18.893  0.00  0.00    +0.000 A 
ATOM      9  C   UNL     1       3.355   6.700  17.858  0.00  0.00    +0.000 A 
BRANCH   5  10
ATOM     10  O   UNL     1       3.510   2.719  19.173  0.00  0.00    +0.000 OA
ATOM     11  C   UNL     1       3.850   2.326  20.487  0.00  0.00    +0.000 C 
ENDBRANCH   5  10
BRANCH   9  12
ATOM     12  O   UNL     1       3.192   8.028  17.586  0.00  0.00    +0.000 OA
ATOM     13  C   UNL     1       2.019   8.734  17.933  0.00  0.00    +0.000 C 
ENDBRANCH   9  12
ENDBRANCH   1   3
BRANCH   1  14
ATOM     14  C   UNL     1       6.478   6.143  16.358  0.00  0.00    +0.000 C 
ATOM     15  S   UNL     1       7.270   7.061  17.514  0.00  0.00    +0.000 S 
BRANCH  14  16
ATOM     16  N   UNL     1       7.116   5.337  15.433  0.00  0.00    +0.000 N 
ATOM     17  H   UNL     1       8.065   5.594  15.193  0.00  0.00    +0.000 HD
BRANCH  16  18
ATOM     18  C   UNL     1       6.644   4.061  14.912  0.00  0.00    +0.000 C 
BRANCH  18  19
ATOM     19  C   UNL     1       6.448   4.111  13.396  0.00  0.00    +0.000 C 
BRANCH  19  20
ATOM     20  C   UNL     1       5.037   3.722  12.975  0.00  0.00    +0.000 C 
BRANCH  20  21
ATOM     21  O   UNL     1       5.017   3.503  11.567  0.00  0.00    +0.000 OA
BRANCH  21  23
ATOM     22  C   UNL     1       3.255   3.849  10.006  0.00  0.00    +0.000 C 
ATOM     23  C   UNL     1       3.769   2.974  11.131  0.00  0.00    +0.000 C 
ENDBRANCH  21  23
ENDBRANCH  20  21
ENDBRANCH  19  20
ENDBRANCH  18  19
ENDBRANCH  16  18
ENDBRANCH  14  16
ENDBRANCH   1  14
TORSDOF 10
ENDMDL
MODEL 7
REMARK VINA RESULT:      -5.7      2.956      5.788
REMARK  Name = 
REMARK  13 active torsions:
REMARK  status: ('A' for Active; 'I' for Inactive)
REMARK    1  A    between atoms: C_1  and  C_2
REMARK    2  A    between atoms: C_2  and  O_3
REMARK    3  A    between atoms: O_3  and  C_4
REMARK    4  A    between atoms: C_4  and  C_5
REMARK    5  A    between atoms: C_5  and  C_6
REMARK    6  A    between atoms: C_6  and  N_7
REMARK    7  A    between atoms: N_7  and  C_8
REMARK    8  A    between atoms: C_8  and  N_10
REMARK    9  A    between atoms: N_10  and  C_11
REMARK   10  A    between atoms: C_13  and  O_14
REMARK   11  A    between atoms: O_14  and  C_15
REMARK   12  A    between atoms: C_19  and  O_20
REMARK   13  A    between atoms: O_20  and  C_21
REMARK                            x       y       z     vdW  Elec       q    Type
REMARK                         _______ _______ _______ _____ _____    ______ ____
ROOT
ATOM      1  N   UNL     1       4.340   5.501  19.604  0.00  0.00    +0.000 N 
ATOM      2  H   UNL     1       4.945   5.323  20.387  0.00  0.00    +0.000 HD
ENDROOT
BRANCH   1   3
ATOM      3  C   UNL     1       4.852   5.270  18.308  0.00  0.00    +0.000 A 
ATOM      4  C   UNL     1       5.971   6.033  17.925  0.00  0.00    +0.000 A 
ATOM      5  C   UNL     1       6.593   5.921  16.675  0.00  0.00    +0.000 A 
ATOM      6  C   UNL     1       6.079   4.991  15.778  0.00  0.00    +0.000 A 
ATOM      7 CL   UNL     1       6.671   4.709  14.180  0.00  0.00    +0.000 Cl
ATOM      8  C   UNL     1       5.000   4.183  16.169  0.00  0.00    +0.000 A 
ATOM      9  C   UNL     1       4.382   4.290  17.429  0.00  0.00    +0.000 A 
BRANCH   5  10
ATOM     10  O   UNL     1       7.643   6.788  16.580  0.00  0.00    +0.000 OA
ATOM     11  C   UNL     1       7.802   7.846  17.503  0.00  0.00    +0.000 C 
ENDBRANCH   5  10
BRANCH   9  12
ATOM     12  O   UNL     1       3.367   3.383  17.541  0.00  0.00    +0.000 OA
ATOM     13  C   UNL     1       3.573   2.073  18.025  0.00  0.00    +0.000 C 
ENDBRANCH   9  12
ENDBRANCH   1   3
BRANCH   1  14
ATOM     14  C   UNL     1       2.999   5.581  19.976  0.00  0.00    +0.000 C 
ATOM     15  S   UNL     1       2.137   4.438  20.847  0.00  0.00    +0.000 S 
BRANCH  14  16
ATOM     16  N   UNL     1       2.502   6.818  19.610  0.00  0.00    +0.000 N 
ATOM     17  H   UNL     1       2.491   7.529  20.330  0.00  0.00    +0.000 HD
BRANCH  16  18
ATOM     18  C   UNL     1       2.170   7.264  18.263  0.00  0.00    +0.000 C 
BRANCH  18  19
ATOM     19  C   UNL     1       2.580   8.721  18.037  0.00  0.00    +0.000 C 
BRANCH  19  20
ATOM     20  C   UNL     1       1.394   9.676  18.093  0.00  0.00    +0.000 C 
BRANCH  20  21
ATOM     21  O   UNL     1       0.576   9.333  19.208  0.00  0.00    +0.000 OA
BRANCH  21  23
ATOM     22  C   UNL     1       0.847   9.373  21.572  0.00  0.00    +0.000 C 
ATOM     23  C   UNL     1       0.789  10.210  20.310  0.00  0.00    +0.000 C 
ENDBRANCH  21  23
ENDBRANCH  20  21
ENDBRANCH  19  20
ENDBRANCH  18  19
ENDBRANCH  16  18
ENDBRANCH  14  16
ENDBRANCH   1  14
TORSDOF 10
ENDMDL
MODEL 8
REMARK VINA RESULT:      -5.7      3.141      6.311
REMARK  Name = 
REMARK  13 active torsions:
REMARK  status: ('A' for Active; 'I' for Inactive)
REMARK    1  A    between atoms: C_1  and  C_2
REMARK    2  A    between atoms: C_2  and  O_3
REMARK    3  A    between atoms: O_3  and  C_4
REMARK    4  A    between atoms: C_4  and  C_5
REMARK    5  A    between atoms: C_5  and  C_6
REMARK    6  A    between atoms: C_6  and  N_7
REMARK    7  A    between atoms: N_7  and  C_8
REMARK    8  A    between atoms: C_8  and  N_10
REMARK    9  A    between atoms: N_10  and  C_11
REMARK   10  A    between atoms: C_13  and  O_14
REMARK   11  A    between atoms: O_14  and  C_15
REMARK   12  A    between atoms: C_19  and  O_20
REMARK   13  A    between atoms: O_20  and  C_21
REMARK                            x       y       z     vdW  Elec       q    Type
REMARK                         _______ _______ _______ _____ _____    ______ ____
ROOT
ATOM      1  N   UNL     1       2.327   5.888  18.578  0.00  0.00    +0.000 N 
ATOM      2  H   UNL     1       1.660   6.534  18.192  0.00  0.00    +0.000 HD
ENDROOT
BRANCH   1   3
ATOM      3  C   UNL     1       3.424   5.513  17.772  0.00  0.00    +0.000 A 
ATOM      4  C   UNL     1       4.436   6.475  17.594  0.00  0.00    +0.000 A 
ATOM      5  C   UNL     1       5.586   6.255  16.824  0.00  0.00    +0.000 A 
ATOM      6  C   UNL     1       5.733   5.011  16.222  0.00  0.00    +0.000 A 
ATOM      7 CL   UNL     1       7.051   4.537  15.212  0.00  0.00    +0.000 Cl
ATOM      8  C   UNL     1       4.759   4.023  16.440  0.00  0.00    +0.000 A 
ATOM      9  C   UNL     1       3.609   4.242  17.221  0.00  0.00    +0.000 A 
BRANCH   5  10
ATOM     10  O   UNL     1       6.383   7.363  16.823  0.00  0.00    +0.000 OA
ATOM     11  C   UNL     1       7.574   7.406  17.583  0.00  0.00    +0.000 C 
ENDBRANCH   5  10
BRANCH   9  12
ATOM     12  O   UNL     1       2.842   3.113  17.266  0.00  0.00    +0.000 OA
ATOM     13  C   UNL     1       3.214   1.973  18.012  0.00  0.00    +0.000 C 
ENDBRANCH   9  12
ENDBRANCH   1   3
BRANCH   1  14
ATOM     14  C   UNL     1       2.230   5.788  19.966  0.00  0.00    +0.000 C 
ATOM     15  S   UNL     1       2.127   4.372  20.856  0.00  0.00    +0.000 S 
BRANCH  14  16
ATOM     16  N   UNL     1       2.347   7.049  20.519  0.00  0.00    +0.000 N 
ATOM     17  H   UNL     1       3.269   7.465  20.499  0.00  0.00    +0.000 HD
BRANCH  16  18
ATOM     18  C   UNL     1       1.260   7.917  20.955  0.00  0.00    +0.000 C 
BRANCH  18  19
ATOM     19  C   UNL     1       1.080   9.108  20.011  0.00  0.00    +0.000 C 
BRANCH  19  20
ATOM     20  C   UNL     1       0.252  10.226  20.632  0.00  0.00    +0.000 C 
BRANCH  20  21
ATOM     21  O   UNL     1      -0.833  10.536  19.762  0.00  0.00    +0.000 OA
BRANCH  21  23
ATOM     22  C   UNL     1      -1.734  10.026  17.620  0.00  0.00    +0.000 C 
ATOM     23  C   UNL     1      -0.478  10.371  18.393  0.00  0.00    +0.000 C 
ENDBRANCH  21  23
ENDBRANCH  20  21
ENDBRANCH  19  20
ENDBRANCH  18  19
ENDBRANCH  16  18
ENDBRANCH  14  16
ENDBRANCH   1  14
TORSDOF 10
ENDMDL
MODEL 9
REMARK VINA RESULT:      -5.7      3.910      5.533
REMARK  Name = 
REMARK  13 active torsions:
REMARK  status: ('A' for Active; 'I' for Inactive)
REMARK    1  A    between atoms: C_1  and  C_2
REMARK    2  A    between atoms: C_2  and  O_3
REMARK    3  A    between atoms: O_3  and  C_4
REMARK    4  A    between atoms: C_4  and  C_5
REMARK    5  A    between atoms: C_5  and  C_6
REMARK    6  A    between atoms: C_6  and  N_7
REMARK    7  A    between atoms: N_7  and  C_8
REMARK    8  A    between atoms: C_8  and  N_10
REMARK    9  A    between atoms: N_10  and  C_11
REMARK   10  A    between atoms: C_13  and  O_14
REMARK   11  A    between atoms: O_14  and  C_15
REMARK   12  A    between atoms: C_19  and  O_20
REMARK   13  A    between atoms: O_20  and  C_21
REMARK                            x       y       z     vdW  Elec       q    Type
REMARK                         _______ _______ _______ _____ _____    ______ ____
ROOT
ATOM      1  N   UNL     1       6.292   6.561  16.848  0.00  0.00    +0.000 N 
ATOM      2  H   UNL     1       6.526   6.760  15.890  0.00  0.00    +0.000 HD
ENDROOT
BRANCH   1   3
ATOM      3  C   UNL     1       5.190   5.712  17.095  0.00  0.00    +0.000 A 
ATOM      4  C   UNL     1       4.144   6.244  17.872  0.00  0.00    +0.000 A 
ATOM      5  C   UNL     1       2.986   5.529  18.205  0.00  0.00    +0.000 A 
ATOM      6  C   UNL     1       2.867   4.230  17.722  0.00  0.00    +0.000 A 
ATOM      7 CL   UNL     1       1.544   3.165  18.032  0.00  0.00    +0.000 Cl
ATOM      8  C   UNL     1       3.877   3.709  16.898  0.00  0.00    +0.000 A 
ATOM      9  C   UNL     1       5.035   4.431  16.557  0.00  0.00    +0.000 A 
BRANCH   5  10
ATOM     10  O   UNL     1       2.153   6.291  18.971  0.00  0.00    +0.000 OA
ATOM     11  C   UNL     1       1.929   5.984  20.333  0.00  0.00    +0.000 C 
ENDBRANCH   5  10
BRANCH   9  12
ATOM     12  O   UNL     1       5.840   3.686  15.743  0.00  0.00    +0.000 OA
ATOM     13  C   UNL     1       6.359   4.184  14.529  0.00  0.00    +0.000 C 
ENDBRANCH   9  12
ENDBRANCH   1   3
BRANCH   1  14
ATOM     14  C   UNL     1       7.333   6.864  17.724  0.00  0.00    +0.000 C 
ATOM     15  S   UNL     1       7.819   5.954  19.044  0.00  0.00    +0.000 S 
BRANCH  14  16
ATOM     16  N   UNL     1       7.992   7.991  17.270  0.00  0.00    +0.000 N 
ATOM     17  H   UNL     1       8.519   7.889  16.412  0.00  0.00    +0.000 HD
BRANCH  16  18
ATOM     18  C   UNL     1       7.859   9.348  17.784  0.00  0.00    +0.000 C 
BRANCH  18  19
ATOM     19  C   UNL     1       9.001   9.701  18.740  0.00  0.00    +0.000 C 
BRANCH  19  20
ATOM     20  C   UNL     1       9.611  11.065  18.444  0.00  0.00    +0.000 C 
BRANCH  20  21
ATOM     21  O   UNL     1       9.382  11.926  19.557  0.00  0.00    +0.000 OA
BRANCH  21  23
ATOM     22  C   UNL     1      11.706  12.127  20.028  0.00  0.00    +0.000 C 
ATOM     23  C   UNL     1      10.352  11.735  20.582  0.00  0.00    +0.000 C 
ENDBRANCH  21  23
ENDBRANCH  20  21
ENDBRANCH  19  20
ENDBRANCH  18  19
ENDBRANCH  16  18
ENDBRANCH  14  16
ENDBRANCH   1  14
TORSDOF 10
ENDMDL
