MODEL 1
REMARK VINA RESULT:      -7.4      0.000      0.000
REMARK  Name = 
REMARK  4 active torsions:
REMARK  status: ('A' for Active; 'I' for Inactive)
REMARK    1  A    between atoms: C_1  and  C_2
REMARK    2  A    between atoms: C_4  and  C_5
REMARK    3  A    between atoms: C_6  and  C_7
REMARK    4  A    between atoms: C_10  and  C_11
REMARK                            x       y       z     vdW  Elec       q    Type
REMARK                         _______ _______ _______ _____ _____    ______ ____
ROOT
ATOM      1  C   UNL     1       9.031  10.323  18.660  0.00  0.00    +0.000 A 
ATOM      2  C   UNL     1       9.726  10.335  19.860  0.00  0.00    +0.000 A 
ATOM      3  C   UNL     1      10.222  11.545  20.354  0.00  0.00    +0.000 A 
ATOM      4  C   UNL     1      10.026  12.730  19.634  0.00  0.00    +0.000 A 
ATOM      5  N   UNL     1       9.417  12.705  18.424  0.00  0.00    +0.000 NA
ATOM      6  C   UNL     1       8.918  11.522  17.977  0.00  0.00    +0.000 A 
ENDROOT
BRANCH   4   7
ATOM      7  C   UNL     1      10.410  14.057  20.186  0.00  0.00    +0.000 A 
ATOM      8  C   UNL     1      11.512  14.752  19.627  0.00  0.00    +0.000 A 
ATOM      9  C   UNL     1      12.012  15.936  20.183  0.00  0.00    +0.000 A 
ATOM     10  C   UNL     1      11.403  16.488  21.299  0.00  0.00    +0.000 A 
ATOM     11  C   UNL     1      10.288  15.862  21.848  0.00  0.00    +0.000 A 
ATOM     12  C   UNL     1       9.795  14.662  21.307  0.00  0.00    +0.000 A 
ATOM     13 CL   UNL     1       8.453  13.972  22.164  0.00  0.00    +0.000 Cl
ENDBRANCH   4   7
BRANCH   1  15
ATOM     14  C   UNL     1       7.923   8.085  17.822  0.00  0.00    +0.000 C 
ATOM     15  C   UNL     1       8.416   9.122  18.182  0.00  0.00    +0.000 C 
BRANCH  14  19
ATOM     16  C   UNL     1       6.666   4.400  14.846  0.00  0.00    +0.000 C 
ATOM     17  C   UNL     1       6.785   5.218  16.086  0.00  0.00    +0.000 A 
ATOM     18  N   UNL     1       7.415   6.373  16.175  0.00  0.00    +0.000 NA
ATOM     19  C   UNL     1       7.316   6.847  17.469  0.00  0.00    +0.000 A 
ATOM     20  C   UNL     1       6.622   6.049  18.351  0.00  0.00    +0.000 A 
ATOM     21  S   UNL     1       6.055   4.652  17.539  0.00  0.00    +0.000 S 
ENDBRANCH  14  19
ENDBRANCH   1  15
TORSDOF 3
ENDMDL
MODEL 2
REMARK VINA RESULT:      -7.4      1.359      1.712
REMARK  Name = 
REMARK  4 active torsions:
REMARK  status: ('A' for Active; 'I' for Inactive)
REMARK    1  A    between atoms: C_1  and  C_2
REMARK    2  A    between atoms: C_4  and  C_5
REMARK    3  A    between atoms: C_6  and  C_7
REMARK    4  A    between atoms: C_10  and  C_11
REMARK                            x       y       z     vdW  Elec       q    Type
REMARK                         _______ _______ _______ _____ _____    ______ ____
ROOT
ATOM      1  C   UNL     1       8.967  10.261  18.585  0.00  0.00    +0.000 A 
ATOM      2  C   UNL     1       9.659  10.190  19.785  0.00  0.00    +0.000 A 
ATOM      3  C   UNL     1      10.234  11.347  20.316  0.00  0.00    +0.000 A 
ATOM      4  C   UNL     1      10.119  12.564  19.633  0.00  0.00    +0.000 A 
ATOM      5  N   UNL     1       9.514  12.618  18.423  0.00  0.00    +0.000 NA
ATOM      6  C   UNL     1       8.938  11.486  17.939  0.00  0.00    +0.000 A 
ENDROOT
BRANCH   4   7
ATOM      7  C   UNL     1      10.590  13.845  20.226  0.00  0.00    +0.000 A 
ATOM      8  C   UNL     1      10.020  14.304  21.439  0.00  0.00    +0.000 A 
ATOM      9  C   UNL     1      10.317  15.561  21.980  0.00  0.00    +0.000 A 
ATOM     10  C   UNL     1      11.225  16.392  21.343  0.00  0.00    +0.000 A 
ATOM     11  C   UNL     1      11.845  15.957  20.175  0.00  0.00    +0.000 A 
ATOM     12  C   UNL     1      11.535  14.704  19.617  0.00  0.00    +0.000 A 
ATOM     13 CL   UNL     1      12.333  14.357  18.116  0.00  0.00    +0.000 Cl
ENDBRANCH   4   7
BRANCH   1  15
ATOM     14  C   UNL     1       7.643   8.184  17.653  0.00  0.00    +0.000 C 
ATOM     15  C   UNL     1       8.274   9.119  18.069  0.00  0.00    +0.000 C 
BRANCH  14  19
ATOM     16  C   UNL     1       6.720   4.188  14.970  0.00  0.00    +0.000 C 
ATOM     17  C   UNL     1       6.496   5.329  15.902  0.00  0.00    +0.000 A 
ATOM     18  N   UNL     1       7.412   6.210  16.255  0.00  0.00    +0.000 NA
ATOM     19  C   UNL     1       6.850   7.127  17.123  0.00  0.00    +0.000 A 
ATOM     20  C   UNL     1       5.521   6.932  17.428  0.00  0.00    +0.000 A 
ATOM     21  S   UNL     1       4.935   5.558  16.593  0.00  0.00    +0.000 S 
ENDBRANCH  14  19
ENDBRANCH   1  15
TORSDOF 3
ENDMDL
MODEL 3
REMARK VINA RESULT:      -7.3      1.479      1.773
REMARK  Name = 
REMARK  4 active torsions:
REMARK  status: ('A' for Active; 'I' for Inactive)
REMARK    1  A    between atoms: C_1  and  C_2
REMARK    2  A    between atoms: C_4  and  C_5
REMARK    3  A    between atoms: C_6  and  C_7
REMARK    4  A    between atoms: C_10  and  C_11
REMARK                            x       y       z     vdW  Elec       q    Type
REMARK                         _______ _______ _______ _____ _____    ______ ____
ROOT
ATOM      1  C   UNL     1       9.258  10.653  18.685  0.00  0.00    +0.000 A 
ATOM      2  C   UNL     1      10.095  10.784  19.782  0.00  0.00    +0.000 A 
ATOM      3  C   UNL     1      10.600  12.044  20.113  0.00  0.00    +0.000 A 
ATOM      4  C   UNL     1      10.268  13.160  19.334  0.00  0.00    +0.000 A 
ATOM      5  N   UNL     1       9.516  13.017  18.217  0.00  0.00    +0.000 NA
ATOM      6  C   UNL     1       9.014  11.788  17.930  0.00  0.00    +0.000 A 
ENDROOT
BRANCH   4   7
ATOM      7  C   UNL     1      10.665  14.539  19.728  0.00  0.00    +0.000 A 
ATOM      8  C   UNL     1      10.455  14.971  21.061  0.00  0.00    +0.000 A 
ATOM      9  C   UNL     1      10.677  16.293  21.465  0.00  0.00    +0.000 A 
ATOM     10  C   UNL     1      11.153  17.225  20.555  0.00  0.00    +0.000 A 
ATOM     11  C   UNL     1      11.418  16.827  19.249  0.00  0.00    +0.000 A 
ATOM     12  C   UNL     1      11.177  15.506  18.832  0.00  0.00    +0.000 A 
ATOM     13 CL   UNL     1      11.482  15.204  17.151  0.00  0.00    +0.000 Cl
ENDBRANCH   4   7
BRANCH   1  15
ATOM     14  C   UNL     1       8.157   8.334  18.093  0.00  0.00    +0.000 C 
ATOM     15  C   UNL     1       8.637   9.398  18.383  0.00  0.00    +0.000 C 
BRANCH  14  19
ATOM     16  C   UNL     1       6.637   4.742  15.125  0.00  0.00    +0.000 C 
ATOM     17  C   UNL     1       6.990   5.464  16.380  0.00  0.00    +0.000 A 
ATOM     18  N   UNL     1       7.447   6.700  16.441  0.00  0.00    +0.000 NA
ATOM     19  C   UNL     1       7.658   7.042  17.763  0.00  0.00    +0.000 A 
ATOM     20  C   UNL     1       7.370   6.066  18.691  0.00  0.00    +0.000 A 
ATOM     21  S   UNL     1       6.800   4.664  17.893  0.00  0.00    +0.000 S 
ENDBRANCH  14  19
ENDBRANCH   1  15
TORSDOF 3
ENDMDL
MODEL 4
REMARK VINA RESULT:      -7.2      1.540      2.035
REMARK  Name = 
REMARK  4 active torsions:
REMARK  status: ('A' for Active; 'I' for Inactive)
REMARK    1  A    between atoms: C_1  and  C_2
REMARK    2  A    between atoms: C_4  and  C_5
REMARK    3  A    between atoms: C_6  and  C_7
REMARK    4  A    between atoms: C_10  and  C_11
REMARK                            x       y       z     vdW  Elec       q    Type
REMARK                         _______ _______ _______ _____ _____    ______ ____
ROOT
ATOM      1  C   UNL     1       9.064  10.988  18.335  0.00  0.00    +0.000 A 
ATOM      2  C   UNL     1       8.370  12.043  17.761  0.00  0.00    +0.000 A 
ATOM      3  C   UNL     1       8.907  13.331  17.819  0.00  0.00    +0.000 A 
ATOM      4  C   UNL     1      10.131  13.552  18.462  0.00  0.00    +0.000 A 
ATOM      5  N   UNL     1      10.768  12.537  19.092  0.00  0.00    +0.000 NA
ATOM      6  C   UNL     1      10.242  11.288  18.999  0.00  0.00    +0.000 A 
ENDROOT
BRANCH   4   7
ATOM      7  C   UNL     1      10.809  14.877  18.427  0.00  0.00    +0.000 A 
ATOM      8  C   UNL     1      11.271  15.391  17.190  0.00  0.00    +0.000 A 
ATOM      9  C   UNL     1      12.034  16.562  17.102  0.00  0.00    +0.000 A 
ATOM     10  C   UNL     1      12.333  17.281  18.249  0.00  0.00    +0.000 A 
ATOM     11  C   UNL     1      11.856  16.835  19.477  0.00  0.00    +0.000 A 
ATOM     12  C   UNL     1      11.106  15.649  19.574  0.00  0.00    +0.000 A 
ATOM     13 CL   UNL     1      10.664  15.195  21.189  0.00  0.00    +0.000 Cl
ENDBRANCH   4   7
BRANCH   1  15
ATOM     14  C   UNL     1       8.181   8.525  18.034  0.00  0.00    +0.000 C 
ATOM     15  C   UNL     1       8.597   9.642  18.198  0.00  0.00    +0.000 C 
BRANCH  14  19
ATOM     16  C   UNL     1       6.138   4.941  15.389  0.00  0.00    +0.000 C 
ATOM     17  C   UNL     1       6.797   5.634  16.532  0.00  0.00    +0.000 A 
ATOM     18  N   UNL     1       7.140   6.907  16.550  0.00  0.00    +0.000 NA
ATOM     19  C   UNL     1       7.719   7.205  17.769  0.00  0.00    +0.000 A 
ATOM     20  C   UNL     1       7.818   6.160  18.660  0.00  0.00    +0.000 A 
ATOM     21  S   UNL     1       7.154   4.745  17.962  0.00  0.00    +0.000 S 
ENDBRANCH  14  19
ENDBRANCH   1  15
TORSDOF 3
ENDMDL
MODEL 5
REMARK VINA RESULT:      -7.2      1.744      2.279
REMARK  Name = 
REMARK  4 active torsions:
REMARK  status: ('A' for Active; 'I' for Inactive)
REMARK    1  A    between atoms: C_1  and  C_2
REMARK    2  A    between atoms: C_4  and  C_5
REMARK    3  A    between atoms: C_6  and  C_7
REMARK    4  A    between atoms: C_10  and  C_11
REMARK                            x       y       z     vdW  Elec       q    Type
REMARK                         _______ _______ _______ _____ _____    ______ ____
ROOT
ATOM      1  C   UNL     1       8.741  10.447  18.315  0.00  0.00    +0.000 A 
ATOM      2  C   UNL     1       8.246  11.523  17.595  0.00  0.00    +0.000 A 
ATOM      3  C   UNL     1       8.771  12.799  17.817  0.00  0.00    +0.000 A 
ATOM      4  C   UNL     1       9.782  12.984  18.768  0.00  0.00    +0.000 A 
ATOM      5  N   UNL     1      10.208  11.948  19.528  0.00  0.00    +0.000 NA
ATOM      6  C   UNL     1       9.703  10.712  19.275  0.00  0.00    +0.000 A 
ENDROOT
BRANCH   4   7
ATOM      7  C   UNL     1      10.469  14.293  18.939  0.00  0.00    +0.000 A 
ATOM      8  C   UNL     1       9.994  15.208  19.912  0.00  0.00    +0.000 A 
ATOM      9  C   UNL     1      10.504  16.507  20.033  0.00  0.00    +0.000 A 
ATOM     10  C   UNL     1      11.535  16.926  19.206  0.00  0.00    +0.000 A 
ATOM     11  C   UNL     1      12.062  16.040  18.272  0.00  0.00    +0.000 A 
ATOM     12  C   UNL     1      11.540  14.742  18.132  0.00  0.00    +0.000 A 
ATOM     13 CL   UNL     1      12.256  13.800  16.862  0.00  0.00    +0.000 Cl
ENDBRANCH   4   7
BRANCH   1  15
ATOM     14  C   UNL     1       7.890   8.001  17.830  0.00  0.00    +0.000 C 
ATOM     15  C   UNL     1       8.303   9.113  18.034  0.00  0.00    +0.000 C 
BRANCH  14  19
ATOM     16  C   UNL     1       6.468   4.210  15.069  0.00  0.00    +0.000 C 
ATOM     17  C   UNL     1       6.717   5.043  16.280  0.00  0.00    +0.000 A 
ATOM     18  N   UNL     1       7.263   6.244  16.274  0.00  0.00    +0.000 NA
ATOM     19  C   UNL     1       7.332   6.718  17.571  0.00  0.00    +0.000 A 
ATOM     20  C   UNL     1       6.849   5.875  18.547  0.00  0.00    +0.000 A 
ATOM     21  S   UNL     1       6.272   4.433  17.827  0.00  0.00    +0.000 S 
ENDBRANCH  14  19
ENDBRANCH   1  15
TORSDOF 3
ENDMDL
MODEL 6
REMARK VINA RESULT:      -7.2      1.596      1.909
REMARK  Name = 
REMARK  4 active torsions:
REMARK  status: ('A' for Active; 'I' for Inactive)
REMARK    1  A    between atoms: C_1  and  C_2
REMARK    2  A    between atoms: C_4  and  C_5
REMARK    3  A    between atoms: C_6  and  C_7
REMARK    4  A    between atoms: C_10  and  C_11
REMARK                            x       y       z     vdW  Elec       q    Type
REMARK                         _______ _______ _______ _____ _____    ______ ____
ROOT
ATOM      1  C   UNL     1       9.307  11.250  17.999  0.00  0.00    +0.000 A 
ATOM      2  C   UNL     1      10.652  11.416  18.296  0.00  0.00    +0.000 A 
ATOM      3  C   UNL     1      11.178  12.705  18.405  0.00  0.00    +0.000 A 
ATOM      4  C   UNL     1      10.352  13.819  18.205  0.00  0.00    +0.000 A 
ATOM      5  N   UNL     1       9.059  13.656  17.836  0.00  0.00    +0.000 NA
ATOM      6  C   UNL     1       8.562  12.393  17.764  0.00  0.00    +0.000 A 
ENDROOT
BRANCH   4   7
ATOM      7  C   UNL     1      10.831  15.206  18.449  0.00  0.00    +0.000 A 
ATOM      8  C   UNL     1      11.227  16.010  17.351  0.00  0.00    +0.000 A 
ATOM      9  C   UNL     1      11.815  17.270  17.517  0.00  0.00    +0.000 A 
ATOM     10  C   UNL     1      11.994  17.788  18.790  0.00  0.00    +0.000 A 
ATOM     11  C   UNL     1      11.572  17.050  19.892  0.00  0.00    +0.000 A 
ATOM     12  C   UNL     1      11.002  15.776  19.732  0.00  0.00    +0.000 A 
ATOM     13 CL   UNL     1      10.612  14.960  21.213  0.00  0.00    +0.000 Cl
ENDBRANCH   4   7
BRANCH   1  15
ATOM     14  C   UNL     1       8.204   8.860  17.925  0.00  0.00    +0.000 C 
ATOM     15  C   UNL     1       8.713   9.947  17.989  0.00  0.00    +0.000 C 
BRANCH  14  19
ATOM     16  C   UNL     1       5.490   5.345  15.850  0.00  0.00    +0.000 C 
ATOM     17  C   UNL     1       6.412   6.018  16.809  0.00  0.00    +0.000 A 
ATOM     18  N   UNL     1       6.799   7.276  16.731  0.00  0.00    +0.000 NA
ATOM     19  C   UNL     1       7.645   7.558  17.788  0.00  0.00    +0.000 A 
ATOM     20  C   UNL     1       7.899   6.515  18.650  0.00  0.00    +0.000 A 
ATOM     21  S   UNL     1       7.043   5.124  18.138  0.00  0.00    +0.000 S 
ENDBRANCH  14  19
ENDBRANCH   1  15
TORSDOF 3
ENDMDL
MODEL 7
REMARK VINA RESULT:      -7.1      4.167      9.893
REMARK  Name = 
REMARK  4 active torsions:
REMARK  status: ('A' for Active; 'I' for Inactive)
REMARK    1  A    between atoms: C_1  and  C_2
REMARK    2  A    between atoms: C_4  and  C_5
REMARK    3  A    between atoms: C_6  and  C_7
REMARK    4  A    between atoms: C_10  and  C_11
REMARK                            x       y       z     vdW  Elec       q    Type
REMARK                         _______ _______ _______ _____ _____    ______ ____
ROOT
ATOM      1  C   UNL     1       7.140   7.409  17.972  0.00  0.00    +0.000 A 
ATOM      2  C   UNL     1       6.159   7.446  16.993  0.00  0.00    +0.000 A 
ATOM      3  C   UNL     1       5.208   6.424  16.935  0.00  0.00    +0.000 A 
ATOM      4  C   UNL     1       5.255   5.368  17.853  0.00  0.00    +0.000 A 
ATOM      5  N   UNL     1       6.260   5.290  18.757  0.00  0.00    +0.000 NA
ATOM      6  C   UNL     1       7.158   6.309  18.814  0.00  0.00    +0.000 A 
ENDROOT
BRANCH   4   7
ATOM      7  C   UNL     1       4.185   4.336  17.920  0.00  0.00    +0.000 A 
ATOM      8  C   UNL     1       4.527   2.968  17.781  0.00  0.00    +0.000 A 
ATOM      9  C   UNL     1       3.560   1.958  17.697  0.00  0.00    +0.000 A 
ATOM     10  C   UNL     1       2.214   2.279  17.785  0.00  0.00    +0.000 A 
ATOM     11  C   UNL     1       1.840   3.606  17.972  0.00  0.00    +0.000 A 
ATOM     12  C   UNL     1       2.806   4.626  18.036  0.00  0.00    +0.000 A 
ATOM     13 CL   UNL     1       2.163   6.231  18.185  0.00  0.00    +0.000 Cl
ENDBRANCH   4   7
BRANCH   1  15
ATOM     14  C   UNL     1       8.800   9.428  18.297  0.00  0.00    +0.000 C 
ATOM     15  C   UNL     1       8.062   8.493  18.129  0.00  0.00    +0.000 C 
BRANCH  14  19
ATOM     16  C   UNL     1      11.910  13.059  17.222  0.00  0.00    +0.000 C 
ATOM     17  C   UNL     1      11.056  12.142  18.029  0.00  0.00    +0.000 A 
ATOM     18  N   UNL     1      10.317  11.167  17.537  0.00  0.00    +0.000 NA
ATOM     19  C   UNL     1       9.667  10.523  18.573  0.00  0.00    +0.000 A 
ATOM     20  C   UNL     1       9.909  11.015  19.836  0.00  0.00    +0.000 A 
ATOM     21  S   UNL     1      11.001  12.331  19.739  0.00  0.00    +0.000 S 
ENDBRANCH  14  19
ENDBRANCH   1  15
TORSDOF 3
ENDMDL
MODEL 8
REMARK VINA RESULT:      -7.0      8.641     11.605
REMARK  Name = 
REMARK  4 active torsions:
REMARK  status: ('A' for Active; 'I' for Inactive)
REMARK    1  A    between atoms: C_1  and  C_2
REMARK    2  A    between atoms: C_4  and  C_5
REMARK    3  A    between atoms: C_6  and  C_7
REMARK    4  A    between atoms: C_10  and  C_11
REMARK                            x       y       z     vdW  Elec       q    Type
REMARK                         _______ _______ _______ _____ _____    ______ ____
ROOT
ATOM      1  C   UNL     1       1.010   9.276  19.724  0.00  0.00    +0.000 A 
ATOM      2  C   UNL     1       1.343   9.421  18.385  0.00  0.00    +0.000 A 
ATOM      3  C   UNL     1       2.151   8.462  17.771  0.00  0.00    +0.000 A 
ATOM      4  C   UNL     1       2.628   7.370  18.507  0.00  0.00    +0.000 A 
ATOM      5  N   UNL     1       2.370   7.272  19.833  0.00  0.00    +0.000 NA
ATOM      6  C   UNL     1       1.559   8.201  20.403  0.00  0.00    +0.000 A 
ENDROOT
BRANCH   4   7
ATOM      7  C   UNL     1       3.372   6.254  17.864  0.00  0.00    +0.000 A 
ATOM      8  C   UNL     1       4.556   6.532  17.137  0.00  0.00    +0.000 A 
ATOM      9  C   UNL     1       5.228   5.553  16.395  0.00  0.00    +0.000 A 
ATOM     10  C   UNL     1       4.759   4.249  16.384  0.00  0.00    +0.000 A 
ATOM     11  C   UNL     1       3.627   3.924  17.126  0.00  0.00    +0.000 A 
ATOM     12  C   UNL     1       2.936   4.908  17.855  0.00  0.00    +0.000 A 
ATOM     13 CL   UNL     1       1.500   4.350  18.653  0.00  0.00    +0.000 Cl
ENDBRANCH   4   7
BRANCH   1  15
ATOM     14  C   UNL     1      -0.678  10.966  20.835  0.00  0.00    +0.000 C 
ATOM     15  C   UNL     1       0.096  10.180  20.354  0.00  0.00    +0.000 C 
BRANCH  14  19
ATOM     16  C   UNL     1      -3.731  12.862  24.166  0.00  0.00    +0.000 C 
ATOM     17  C   UNL     1      -2.993  12.691  22.883  0.00  0.00    +0.000 A 
ATOM     18  N   UNL     1      -2.121  11.734  22.632  0.00  0.00    +0.000 NA
ATOM     19  C   UNL     1      -1.641  11.881  21.344  0.00  0.00    +0.000 A 
ATOM     20  C   UNL     1      -2.144  12.948  20.633  0.00  0.00    +0.000 A 
ATOM     21  S   UNL     1      -3.271  13.802  21.598  0.00  0.00    +0.000 S 
ENDBRANCH  14  19
ENDBRANCH   1  15
TORSDOF 3
ENDMDL
MODEL 9
REMARK VINA RESULT:      -7.0      8.395     11.432
REMARK  Name = 
REMARK  4 active torsions:
REMARK  status: ('A' for Active; 'I' for Inactive)
REMARK    1  A    between atoms: C_1  and  C_2
REMARK    2  A    between atoms: C_4  and  C_5
REMARK    3  A    between atoms: C_6  and  C_7
REMARK    4  A    between atoms: C_10  and  C_11
REMARK                            x       y       z     vdW  Elec       q    Type
REMARK                         _______ _______ _______ _____ _____    ______ ____
ROOT
ATOM      1  C   UNL     1       1.069   8.963  20.200  0.00  0.00    +0.000 A 
ATOM      2  C   UNL     1       1.486   7.773  20.777  0.00  0.00    +0.000 A 
ATOM      3  C   UNL     1       2.239   6.870  20.022  0.00  0.00    +0.000 A 
ATOM      4  C   UNL     1       2.558   7.165  18.690  0.00  0.00    +0.000 A 
ATOM      5  N   UNL     1       2.082   8.288  18.103  0.00  0.00    +0.000 NA
ATOM      6  C   UNL     1       1.375   9.165  18.864  0.00  0.00    +0.000 A 
ENDROOT
BRANCH   4   7
ATOM      7  C   UNL     1       3.472   6.303  17.892  0.00  0.00    +0.000 A 
ATOM      8  C   UNL     1       4.623   6.874  17.295  0.00  0.00    +0.000 A 
ATOM      9  C   UNL     1       5.450   6.156  16.422  0.00  0.00    +0.000 A 
ATOM     10  C   UNL     1       5.174   4.827  16.144  0.00  0.00    +0.000 A 
ATOM     11  C   UNL     1       4.081   4.215  16.750  0.00  0.00    +0.000 A 
ATOM     12  C   UNL     1       3.235   4.938  17.610  0.00  0.00    +0.000 A 
ATOM     13 CL   UNL     1       1.873   4.047  18.211  0.00  0.00    +0.000 Cl
ENDBRANCH   4   7
BRANCH   1  15
ATOM     14  C   UNL     1      -0.177  10.826  21.584  0.00  0.00    +0.000 C 
ATOM     15  C   UNL     1       0.392   9.957  20.977  0.00  0.00    +0.000 C 
BRANCH  14  19
ATOM     16  C   UNL     1      -3.814  12.748  24.247  0.00  0.00    +0.000 C 
ATOM     17  C   UNL     1      -2.558  12.665  23.449  0.00  0.00    +0.000 A 
ATOM     18  N   UNL     1      -2.070  11.560  22.918  0.00  0.00    +0.000 NA
ATOM     19  C   UNL     1      -0.901  11.858  22.244  0.00  0.00    +0.000 A 
ATOM     20  C   UNL     1      -0.507  13.178  22.275  0.00  0.00    +0.000 A 
ATOM     21  S   UNL     1      -1.642  14.095  23.170  0.00  0.00    +0.000 S 
ENDBRANCH  14  19
ENDBRANCH   1  15
TORSDOF 3
ENDMDL
