MODEL 1
REMARK VINA RESULT:      -8.6      0.000      0.000
REMARK  Name = 
REMARK  3 active torsions:
REMARK  status: ('A' for Active; 'I' for Inactive)
REMARK    1  A    between atoms: N_10  and  C_11
REMARK    2  A    between atoms: N_14  and  C_15
REMARK    3  A    between atoms: C_15  and  C_16
REMARK                            x       y       z     vdW  Elec       q    Type
REMARK                         _______ _______ _______ _____ _____    ______ ____
ROOT
ATOM      1  C   UNL     1       0.771   9.635  19.219  0.00  0.00    +0.000 C 
ATOM      2  C   UNL     1       2.024   9.355  18.399  0.00  0.00    +0.000 C 
ATOM      3  C   UNL     1       2.262   7.842  18.460  0.00  0.00    +0.000 C 
ATOM      4  N   UNL     1       2.387   7.310  19.834  0.00  0.00    +0.000 NA
ATOM      5  C   UNL     1       1.348   7.798  20.770  0.00  0.00    +0.000 C 
ATOM      6  C   UNL     1       1.067   9.314  20.684  0.00  0.00    +0.000 C 
ENDROOT
BRANCH   1  16
ATOM      7  O   UNL     1      -3.252  11.634  17.441  0.00  0.00    +0.000 OA
ATOM      8  C   UNL     1      -2.143  11.794  17.936  0.00  0.00    +0.000 A 
ATOM      9  N   UNL     1      -1.643  13.034  18.166  0.00  0.00    +0.000 N 
ATOM     10  C   UNL     1      -0.381  13.261  18.700  0.00  0.00    +0.000 A 
ATOM     11  C   UNL     1       0.021  14.596  18.816  0.00  0.00    +0.000 A 
ATOM     12  C   UNL     1       1.280  14.897  19.311  0.00  0.00    +0.000 A 
ATOM     13  C   UNL     1       2.122  13.861  19.705  0.00  0.00    +0.000 A 
ATOM     14  C   UNL     1       1.704  12.521  19.615  0.00  0.00    +0.000 A 
ATOM     15  C   UNL     1       0.451  12.189  19.091  0.00  0.00    +0.000 A 
ATOM     16  N   UNL     1      -0.008  10.842  18.917  0.00  0.00    +0.000 N 
ATOM     17  C   UNL     1      -1.282  10.594  18.345  0.00  0.00    +0.000 A 
ATOM     18  O   UNL     1      -1.745   9.475  18.127  0.00  0.00    +0.000 OA
ATOM     19  H   UNL     1      -2.237  13.794  17.875  0.00  0.00    +0.000 HD
ENDBRANCH   1  16
BRANCH   4  20
ATOM     20  C   UNL     1       2.343   5.818  19.796  0.00  0.00    +0.000 C 
BRANCH  20  21
ATOM     21  C   UNL     1       3.469   5.213  18.977  0.00  0.00    +0.000 A 
ATOM     22  C   UNL     1       4.794   5.508  19.357  0.00  0.00    +0.000 A 
ATOM     23  C   UNL     1       5.821   5.076  18.548  0.00  0.00    +0.000 A 
ATOM     24  C   UNL     1       5.583   4.391  17.381  0.00  0.00    +0.000 A 
ATOM     25  C   UNL     1       4.310   4.059  16.978  0.00  0.00    +0.000 A 
ATOM     26  C   UNL     1       3.246   4.449  17.801  0.00  0.00    +0.000 A 
ATOM     27 CL   UNL     1       1.664   3.952  17.309  0.00  0.00    +0.000 Cl
ATOM     28  O   UNL     1       6.730   4.085  16.718  0.00  0.00    +0.000 OA
ATOM     29  C   UNL     1       7.710   4.479  17.702  0.00  0.00    +0.000 C 
ATOM     30  O   UNL     1       7.148   5.267  18.772  0.00  0.00    +0.000 OA
ENDBRANCH  20  21
ENDBRANCH   4  20
TORSDOF 3
ENDMDL
MODEL 2
REMARK VINA RESULT:      -8.5      1.442      2.742
REMARK  Name = 
REMARK  3 active torsions:
REMARK  status: ('A' for Active; 'I' for Inactive)
REMARK    1  A    between atoms: N_10  and  C_11
REMARK    2  A    between atoms: N_14  and  C_15
REMARK    3  A    between atoms: C_15  and  C_16
REMARK                            x       y       z     vdW  Elec       q    Type
REMARK                         _______ _______ _______ _____ _____    ______ ____
ROOT
ATOM      1  C   UNL     1       0.841   9.561  19.004  0.00  0.00    +0.000 C 
ATOM      2  C   UNL     1       2.084   9.267  18.173  0.00  0.00    +0.000 C 
ATOM      3  C   UNL     1       2.364   7.767  18.315  0.00  0.00    +0.000 C 
ATOM      4  N   UNL     1       2.533   7.318  19.714  0.00  0.00    +0.000 NA
ATOM      5  C   UNL     1       1.501   7.833  20.644  0.00  0.00    +0.000 C 
ATOM      6  C   UNL     1       1.177   9.334  20.478  0.00  0.00    +0.000 C 
ENDROOT
BRANCH   1  16
ATOM      7  O   UNL     1       0.368  14.363  18.743  0.00  0.00    +0.000 OA
ATOM      8  C   UNL     1      -0.136  13.258  18.581  0.00  0.00    +0.000 A 
ATOM      9  N   UNL     1      -1.407  13.120  18.126  0.00  0.00    +0.000 N 
ATOM     10  C   UNL     1      -2.027  11.888  17.953  0.00  0.00    +0.000 A 
ATOM     11  C   UNL     1      -3.363  11.911  17.540  0.00  0.00    +0.000 A 
ATOM     12  C   UNL     1      -4.055  10.720  17.379  0.00  0.00    +0.000 A 
ATOM     13  C   UNL     1      -3.400   9.516  17.613  0.00  0.00    +0.000 A 
ATOM     14  C   UNL     1      -2.048   9.495  17.999  0.00  0.00    +0.000 A 
ATOM     15  C   UNL     1      -1.336  10.682  18.199  0.00  0.00    +0.000 A 
ATOM     16  N   UNL     1       0.024  10.729  18.651  0.00  0.00    +0.000 N 
ATOM     17  C   UNL     1       0.660  11.979  18.860  0.00  0.00    +0.000 A 
ATOM     18  O   UNL     1       1.809  12.118  19.277  0.00  0.00    +0.000 OA
ATOM     19  H   UNL     1      -1.898  13.985  17.963  0.00  0.00    +0.000 HD
ENDBRANCH   1  16
BRANCH   4  20
ATOM     20  C   UNL     1       2.528   5.827  19.762  0.00  0.00    +0.000 C 
BRANCH  20  21
ATOM     21  C   UNL     1       3.583   5.201  18.867  0.00  0.00    +0.000 A 
ATOM     22  C   UNL     1       4.932   5.525  19.112  0.00  0.00    +0.000 A 
ATOM     23  C   UNL     1       5.887   5.073  18.228  0.00  0.00    +0.000 A 
ATOM     24  C   UNL     1       5.552   4.340  17.114  0.00  0.00    +0.000 A 
ATOM     25  C   UNL     1       4.253   3.980  16.844  0.00  0.00    +0.000 A 
ATOM     26  C   UNL     1       3.263   4.391  17.746  0.00  0.00    +0.000 A 
ATOM     27 CL   UNL     1       1.650   3.859  17.421  0.00  0.00    +0.000 Cl
ATOM     28  O   UNL     1       6.638   4.021  16.360  0.00  0.00    +0.000 OA
ATOM     29  C   UNL     1       7.698   4.463  17.234  0.00  0.00    +0.000 C 
ATOM     30  O   UNL     1       7.227   5.286  18.322  0.00  0.00    +0.000 OA
ENDBRANCH  20  21
ENDBRANCH   4  20
TORSDOF 3
ENDMDL
MODEL 3
REMARK VINA RESULT:      -8.3      2.871      8.706
REMARK  Name = 
REMARK  3 active torsions:
REMARK  status: ('A' for Active; 'I' for Inactive)
REMARK    1  A    between atoms: N_10  and  C_11
REMARK    2  A    between atoms: N_14  and  C_15
REMARK    3  A    between atoms: C_15  and  C_16
REMARK                            x       y       z     vdW  Elec       q    Type
REMARK                         _______ _______ _______ _____ _____    ______ ____
ROOT
ATOM      1  C   UNL     1       2.591   6.673  18.598  0.00  0.00    +0.000 C 
ATOM      2  C   UNL     1       2.667   6.856  20.109  0.00  0.00    +0.000 C 
ATOM      3  C   UNL     1       1.466   7.721  20.508  0.00  0.00    +0.000 C 
ATOM      4  N   UNL     1       1.407   9.023  19.811  0.00  0.00    +0.000 NA
ATOM      5  C   UNL     1       1.633   8.938  18.349  0.00  0.00    +0.000 C 
ATOM      6  C   UNL     1       2.811   8.031  17.932  0.00  0.00    +0.000 C 
ENDROOT
BRANCH   1  16
ATOM      7  O   UNL     1       2.444   1.963  17.528  0.00  0.00    +0.000 OA
ATOM      8  C   UNL     1       3.074   3.014  17.512  0.00  0.00    +0.000 A 
ATOM      9  N   UNL     1       4.327   3.079  16.996  0.00  0.00    +0.000 N 
ATOM     10  C   UNL     1       5.087   4.243  16.982  0.00  0.00    +0.000 A 
ATOM     11  C   UNL     1       6.387   4.137  16.476  0.00  0.00    +0.000 A 
ATOM     12  C   UNL     1       7.214   5.250  16.461  0.00  0.00    +0.000 A 
ATOM     13  C   UNL     1       6.728   6.464  16.934  0.00  0.00    +0.000 A 
ATOM     14  C   UNL     1       5.411   6.575  17.414  0.00  0.00    +0.000 A 
ATOM     15  C   UNL     1       4.567   5.461  17.469  0.00  0.00    +0.000 A 
ATOM     16  N   UNL     1       3.237   5.495  18.003  0.00  0.00    +0.000 N 
ATOM     17  C   UNL     1       2.460   4.310  18.051  0.00  0.00    +0.000 A 
ATOM     18  O   UNL     1       1.325   4.235  18.521  0.00  0.00    +0.000 OA
ATOM     19  H   UNL     1       4.697   2.204  16.660  0.00  0.00    +0.000 HD
ENDBRANCH   1  16
BRANCH   4  20
ATOM     20  C   UNL     1       0.080   9.661  20.059  0.00  0.00    +0.000 C 
BRANCH  20  21
ATOM     21  C   UNL     1      -0.003  11.081  19.527  0.00  0.00    +0.000 A 
ATOM     22  C   UNL     1       0.777  12.069  20.160  0.00  0.00    +0.000 A 
ATOM     23  C   UNL     1       0.611  13.381  19.775  0.00  0.00    +0.000 A 
ATOM     24  C   UNL     1      -0.303  13.744  18.815  0.00  0.00    +0.000 A 
ATOM     25  C   UNL     1      -1.071  12.814  18.153  0.00  0.00    +0.000 A 
ATOM     26  C   UNL     1      -0.897  11.467  18.493  0.00  0.00    +0.000 A 
ATOM     27 CL   UNL     1      -1.819  10.315  17.592  0.00  0.00    +0.000 Cl
ATOM     28  O   UNL     1      -0.329  15.088  18.607  0.00  0.00    +0.000 OA
ATOM     29  C   UNL     1       0.808  15.493  19.398  0.00  0.00    +0.000 C 
ATOM     30  O   UNL     1       1.286  14.451  20.274  0.00  0.00    +0.000 OA
ENDBRANCH  20  21
ENDBRANCH   4  20
TORSDOF 3
ENDMDL
MODEL 4
REMARK VINA RESULT:      -8.2      3.208      9.314
REMARK  Name = 
REMARK  3 active torsions:
REMARK  status: ('A' for Active; 'I' for Inactive)
REMARK    1  A    between atoms: N_10  and  C_11
REMARK    2  A    between atoms: N_14  and  C_15
REMARK    3  A    between atoms: C_15  and  C_16
REMARK                            x       y       z     vdW  Elec       q    Type
REMARK                         _______ _______ _______ _____ _____    ______ ____
ROOT
ATOM      1  C   UNL     1       2.579   7.067  18.817  0.00  0.00    +0.000 C 
ATOM      2  C   UNL     1       1.768   7.760  17.730  0.00  0.00    +0.000 C 
ATOM      3  C   UNL     1       1.677   9.239  18.123  0.00  0.00    +0.000 C 
ATOM      4  N   UNL     1       1.090   9.468  19.460  0.00  0.00    +0.000 NA
ATOM      5  C   UNL     1       1.640   8.592  20.521  0.00  0.00    +0.000 C 
ATOM      6  C   UNL     1       1.780   7.107  20.120  0.00  0.00    +0.000 C 
ENDROOT
BRANCH   1  16
ATOM      7  O   UNL     1       6.443   4.902  16.887  0.00  0.00    +0.000 OA
ATOM      8  C   UNL     1       5.345   4.788  17.418  0.00  0.00    +0.000 A 
ATOM      9  N   UNL     1       4.795   3.571  17.651  0.00  0.00    +0.000 N 
ATOM     10  C   UNL     1       3.541   3.397  18.225  0.00  0.00    +0.000 A 
ATOM     11  C   UNL     1       3.081   2.081  18.341  0.00  0.00    +0.000 A 
ATOM     12  C   UNL     1       1.826   1.833  18.874  0.00  0.00    +0.000 A 
ATOM     13  C   UNL     1       1.047   2.902  19.306  0.00  0.00    +0.000 A 
ATOM     14  C   UNL     1       1.524   4.222  19.216  0.00  0.00    +0.000 A 
ATOM     15  C   UNL     1       2.774   4.502  18.654  0.00  0.00    +0.000 A 
ATOM     16  N   UNL     1       3.290   5.827  18.478  0.00  0.00    +0.000 N 
ATOM     17  C   UNL     1       4.555   6.022  17.867  0.00  0.00    +0.000 A 
ATOM     18  O   UNL     1       5.063   7.121  17.644  0.00  0.00    +0.000 OA
ATOM     19  H   UNL     1       5.342   2.787  17.333  0.00  0.00    +0.000 HD
ENDBRANCH   1  16
BRANCH   4  20
ATOM     20  C   UNL     1       1.295  10.893  19.855  0.00  0.00    +0.000 C 
BRANCH  20  21
ATOM     21  C   UNL     1       0.045  11.531  20.436  0.00  0.00    +0.000 A 
ATOM     22  C   UNL     1      -0.325  11.180  21.750  0.00  0.00    +0.000 A 
ATOM     23  C   UNL     1      -1.525  11.646  22.240  0.00  0.00    +0.000 A 
ATOM     24  C   UNL     1      -2.367  12.419  21.477  0.00  0.00    +0.000 A 
ATOM     25  C   UNL     1      -2.040  12.808  20.199  0.00  0.00    +0.000 A 
ATOM     26  C   UNL     1      -0.808  12.383  19.685  0.00  0.00    +0.000 A 
ATOM     27 CL   UNL     1      -0.390  12.949  18.106  0.00  0.00    +0.000 Cl
ATOM     28  O   UNL     1      -3.509  12.747  22.139  0.00  0.00    +0.000 OA
ATOM     29  C   UNL     1      -3.191  12.261  23.459  0.00  0.00    +0.000 C 
ATOM     30  O   UNL     1      -2.026  11.411  23.482  0.00  0.00    +0.000 OA
ENDBRANCH  20  21
ENDBRANCH   4  20
TORSDOF 3
ENDMDL
MODEL 5
REMARK VINA RESULT:      -8.1      3.071      9.412
REMARK  Name = 
REMARK  3 active torsions:
REMARK  status: ('A' for Active; 'I' for Inactive)
REMARK    1  A    between atoms: N_10  and  C_11
REMARK    2  A    between atoms: N_14  and  C_15
REMARK    3  A    between atoms: C_15  and  C_16
REMARK                            x       y       z     vdW  Elec       q    Type
REMARK                         _______ _______ _______ _____ _____    ______ ____
ROOT
ATOM      1  C   UNL     1       2.564   6.987  18.917  0.00  0.00    +0.000 C 
ATOM      2  C   UNL     1       1.755   7.838  17.946  0.00  0.00    +0.000 C 
ATOM      3  C   UNL     1       1.607   9.221  18.590  0.00  0.00    +0.000 C 
ATOM      4  N   UNL     1       0.984   9.195  19.930  0.00  0.00    +0.000 NA
ATOM      5  C   UNL     1       1.538   8.161  20.836  0.00  0.00    +0.000 C 
ATOM      6  C   UNL     1       1.735   6.774  20.184  0.00  0.00    +0.000 C 
ENDROOT
BRANCH   1  16
ATOM      7  O   UNL     1       6.443   5.325  16.564  0.00  0.00    +0.000 OA
ATOM      8  C   UNL     1       5.377   5.079  17.116  0.00  0.00    +0.000 A 
ATOM      9  N   UNL     1       4.902   3.811  17.203  0.00  0.00    +0.000 N 
ATOM     10  C   UNL     1       3.687   3.490  17.795  0.00  0.00    +0.000 A 
ATOM     11  C   UNL     1       3.301   2.146  17.748  0.00  0.00    +0.000 A 
ATOM     12  C   UNL     1       2.086   1.758  18.290  0.00  0.00    +0.000 A 
ATOM     13  C   UNL     1       1.274   2.713  18.892  0.00  0.00    +0.000 A 
ATOM     14  C   UNL     1       1.677   4.058  18.965  0.00  0.00    +0.000 A 
ATOM     15  C   UNL     1       2.884   4.482  18.399  0.00  0.00    +0.000 A 
ATOM     16  N   UNL     1       3.322   5.847  18.385  0.00  0.00    +0.000 N 
ATOM     17  C   UNL     1       4.546   6.194  17.759  0.00  0.00    +0.000 A 
ATOM     18  O   UNL     1       4.986   7.340  17.668  0.00  0.00    +0.000 OA
ATOM     19  H   UNL     1       5.475   3.110  16.760  0.00  0.00    +0.000 HD
ENDBRANCH   1  16
BRANCH   4  20
ATOM     20  C   UNL     1       1.133  10.532  20.575  0.00  0.00    +0.000 C 
BRANCH  20  21
ATOM     21  C   UNL     1      -0.167  11.056  21.160  0.00  0.00    +0.000 A 
ATOM     22  C   UNL     1      -0.913  11.973  20.394  0.00  0.00    +0.000 A 
ATOM     23  C   UNL     1      -2.022  12.557  20.966  0.00  0.00    +0.000 A 
ATOM     24  C   UNL     1      -2.398  12.282  22.259  0.00  0.00    +0.000 A 
ATOM     25  C   UNL     1      -1.716  11.377  23.039  0.00  0.00    +0.000 A 
ATOM     26  C   UNL     1      -0.606  10.737  22.472  0.00  0.00    +0.000 A 
ATOM     27 CL   UNL     1       0.185   9.550  23.449  0.00  0.00    +0.000 Cl
ATOM     28  O   UNL     1      -3.500  12.985  22.637  0.00  0.00    +0.000 OA
ATOM     29  C   UNL     1      -3.879  13.570  21.374  0.00  0.00    +0.000 C 
ATOM     30  O   UNL     1      -2.853  13.450  20.366  0.00  0.00    +0.000 OA
ENDBRANCH  20  21
ENDBRANCH   4  20
TORSDOF 3
ENDMDL
MODEL 6
REMARK VINA RESULT:      -8.1      3.181      9.039
REMARK  Name = 
REMARK  3 active torsions:
REMARK  status: ('A' for Active; 'I' for Inactive)
REMARK    1  A    between atoms: N_10  and  C_11
REMARK    2  A    between atoms: N_14  and  C_15
REMARK    3  A    between atoms: C_15  and  C_16
REMARK                            x       y       z     vdW  Elec       q    Type
REMARK                         _______ _______ _______ _____ _____    ______ ____
ROOT
ATOM      1  C   UNL     1       2.599   6.788  18.770  0.00  0.00    +0.000 C 
ATOM      2  C   UNL     1       1.746   7.670  17.868  0.00  0.00    +0.000 C 
ATOM      3  C   UNL     1       1.638   9.034  18.560  0.00  0.00    +0.000 C 
ATOM      4  N   UNL     1       1.084   8.969  19.929  0.00  0.00    +0.000 NA
ATOM      5  C   UNL     1       1.678   7.907  20.773  0.00  0.00    +0.000 C 
ATOM      6  C   UNL     1       1.835   6.540  20.071  0.00  0.00    +0.000 C 
ENDROOT
BRANCH   1  16
ATOM      7  O   UNL     1       2.746   2.100  17.607  0.00  0.00    +0.000 OA
ATOM      8  C   UNL     1       3.315   3.186  17.624  0.00  0.00    +0.000 A 
ATOM      9  N   UNL     1       4.571   3.334  17.137  0.00  0.00    +0.000 N 
ATOM     10  C   UNL     1       5.263   4.539  17.161  0.00  0.00    +0.000 A 
ATOM     11  C   UNL     1       6.577   4.518  16.682  0.00  0.00    +0.000 A 
ATOM     12  C   UNL     1       7.338   5.676  16.706  0.00  0.00    +0.000 A 
ATOM     13  C   UNL     1       6.774   6.852  17.191  0.00  0.00    +0.000 A 
ATOM     14  C   UNL     1       5.443   6.876  17.645  0.00  0.00    +0.000 A 
ATOM     15  C   UNL     1       4.663   5.715  17.660  0.00  0.00    +0.000 A 
ATOM     16  N   UNL     1       3.323   5.662  18.166  0.00  0.00    +0.000 N 
ATOM     17  C   UNL     1       2.615   4.433  18.175  0.00  0.00    +0.000 A 
ATOM     18  O   UNL     1       1.477   4.284  18.619  0.00  0.00    +0.000 OA
ATOM     19  H   UNL     1       4.998   2.488  16.792  0.00  0.00    +0.000 HD
ENDBRANCH   1  16
BRANCH   4  20
ATOM     20  C   UNL     1       1.272  10.287  20.604  0.00  0.00    +0.000 C 
BRANCH  20  21
ATOM     21  C   UNL     1      -0.022  10.861  21.154  0.00  0.00    +0.000 A 
ATOM     22  C   UNL     1      -0.744  11.757  20.341  0.00  0.00    +0.000 A 
ATOM     23  C   UNL     1      -1.846  12.387  20.876  0.00  0.00    +0.000 A 
ATOM     24  C   UNL     1      -2.238  12.178  22.177  0.00  0.00    +0.000 A 
ATOM     25  C   UNL     1      -1.580  11.296  23.003  0.00  0.00    +0.000 A 
ATOM     26  C   UNL     1      -0.479  10.610  22.475  0.00  0.00    +0.000 A 
ATOM     27 CL   UNL     1       0.282   9.453  23.511  0.00  0.00    +0.000 Cl
ATOM     28  O   UNL     1      -3.329  12.917  22.513  0.00  0.00    +0.000 OA
ATOM     29  C   UNL     1      -3.686  13.452  21.221  0.00  0.00    +0.000 C 
ATOM     30  O   UNL     1      -2.655  13.267  20.229  0.00  0.00    +0.000 OA
ENDBRANCH  20  21
ENDBRANCH   4  20
TORSDOF 3
ENDMDL
MODEL 7
REMARK VINA RESULT:      -8.1      3.152      8.844
REMARK  Name = 
REMARK  3 active torsions:
REMARK  status: ('A' for Active; 'I' for Inactive)
REMARK    1  A    between atoms: N_10  and  C_11
REMARK    2  A    between atoms: N_14  and  C_15
REMARK    3  A    between atoms: C_15  and  C_16
REMARK                            x       y       z     vdW  Elec       q    Type
REMARK                         _______ _______ _______ _____ _____    ______ ____
ROOT
ATOM      1  C   UNL     1       2.512   6.876  18.443  0.00  0.00    +0.000 C 
ATOM      2  C   UNL     1       2.601   7.197  19.929  0.00  0.00    +0.000 C 
ATOM      3  C   UNL     1       1.358   8.025  20.276  0.00  0.00    +0.000 C 
ATOM      4  N   UNL     1       1.212   9.254  19.467  0.00  0.00    +0.000 NA
ATOM      5  C   UNL     1       1.420   9.051  18.014  0.00  0.00    +0.000 C 
ATOM      6  C   UNL     1       2.643   8.179  17.655  0.00  0.00    +0.000 C 
ENDROOT
BRANCH   1  16
ATOM      7  O   UNL     1       2.500   2.133  17.521  0.00  0.00    +0.000 OA
ATOM      8  C   UNL     1       3.119   3.191  17.521  0.00  0.00    +0.000 A 
ATOM      9  N   UNL     1       4.408   3.255  17.105  0.00  0.00    +0.000 N 
ATOM     10  C   UNL     1       5.155   4.427  17.114  0.00  0.00    +0.000 A 
ATOM     11  C   UNL     1       6.493   4.322  16.718  0.00  0.00    +0.000 A 
ATOM     12  C   UNL     1       7.307   5.444  16.732  0.00  0.00    +0.000 A 
ATOM     13  C   UNL     1       6.772   6.667  17.124  0.00  0.00    +0.000 A 
ATOM     14  C   UNL     1       5.419   6.776  17.493  0.00  0.00    +0.000 A 
ATOM     15  C   UNL     1       4.585   5.654  17.516  0.00  0.00    +0.000 A 
ATOM     16  N   UNL     1       3.216   5.688  17.940  0.00  0.00    +0.000 N 
ATOM     17  C   UNL     1       2.450   4.495  17.965  0.00  0.00    +0.000 A 
ATOM     18  O   UNL     1       1.281   4.421  18.345  0.00  0.00    +0.000 OA
ATOM     19  H   UNL     1       4.812   2.375  16.829  0.00  0.00    +0.000 HD
ENDBRANCH   1  16
BRANCH   4  20
ATOM     20  C   UNL     1      -0.145   9.836  19.686  0.00  0.00    +0.000 C 
BRANCH  20  21
ATOM     21  C   UNL     1      -0.103  11.291  20.117  0.00  0.00    +0.000 A 
ATOM     22  C   UNL     1       0.224  12.258  19.146  0.00  0.00    +0.000 A 
ATOM     23  C   UNL     1       0.396  13.563  19.552  0.00  0.00    +0.000 A 
ATOM     24  C   UNL     1       0.278  13.933  20.870  0.00  0.00    +0.000 A 
ATOM     25  C   UNL     1      -0.061  13.031  21.851  0.00  0.00    +0.000 A 
ATOM     26  C   UNL     1      -0.282  11.703  21.465  0.00  0.00    +0.000 A 
ATOM     27 CL   UNL     1      -0.782  10.608  22.706  0.00  0.00    +0.000 Cl
ATOM     28  O   UNL     1       0.516  15.259  21.059  0.00  0.00    +0.000 OA
ATOM     29  C   UNL     1       0.596  15.704  19.688  0.00  0.00    +0.000 C 
ATOM     30  O   UNL     1       0.702  14.616  18.747  0.00  0.00    +0.000 OA
ENDBRANCH  20  21
ENDBRANCH   4  20
TORSDOF 3
ENDMDL
MODEL 8
REMARK VINA RESULT:      -8.0      3.379      8.997
REMARK  Name = 
REMARK  3 active torsions:
REMARK  status: ('A' for Active; 'I' for Inactive)
REMARK    1  A    between atoms: N_10  and  C_11
REMARK    2  A    between atoms: N_14  and  C_15
REMARK    3  A    between atoms: C_15  and  C_16
REMARK                            x       y       z     vdW  Elec       q    Type
REMARK                         _______ _______ _______ _____ _____    ______ ____
ROOT
ATOM      1  C   UNL     1       2.576   6.884  18.361  0.00  0.00    +0.000 C 
ATOM      2  C   UNL     1       2.584   7.209  19.850  0.00  0.00    +0.000 C 
ATOM      3  C   UNL     1       1.359   8.093  20.114  0.00  0.00    +0.000 C 
ATOM      4  N   UNL     1       1.319   9.322  19.294  0.00  0.00    +0.000 NA
ATOM      5  C   UNL     1       1.609   9.102  17.858  0.00  0.00    +0.000 C 
ATOM      6  C   UNL     1       2.813   8.175  17.579  0.00  0.00    +0.000 C 
ENDROOT
BRANCH   1  16
ATOM      7  O   UNL     1       2.461   2.114  17.595  0.00  0.00    +0.000 OA
ATOM      8  C   UNL     1       3.105   3.157  17.569  0.00  0.00    +0.000 A 
ATOM      9  N   UNL     1       4.401   3.177  17.170  0.00  0.00    +0.000 N 
ATOM     10  C   UNL     1       5.176   4.330  17.151  0.00  0.00    +0.000 A 
ATOM     11  C   UNL     1       6.516   4.180  16.778  0.00  0.00    +0.000 A 
ATOM     12  C   UNL     1       7.357   5.282  16.768  0.00  0.00    +0.000 A 
ATOM     13  C   UNL     1       6.847   6.530  17.112  0.00  0.00    +0.000 A 
ATOM     14  C   UNL     1       5.492   6.683  17.457  0.00  0.00    +0.000 A 
ATOM     15  C   UNL     1       4.630   5.583  17.505  0.00  0.00    +0.000 A 
ATOM     16  N   UNL     1       3.257   5.664  17.908  0.00  0.00    +0.000 N 
ATOM     17  C   UNL     1       2.462   4.490  17.961  0.00  0.00    +0.000 A 
ATOM     18  O   UNL     1       1.287   4.457  18.326  0.00  0.00    +0.000 OA
ATOM     19  H   UNL     1       4.787   2.278  16.929  0.00  0.00    +0.000 HD
ENDBRANCH   1  16
BRANCH   4  20
ATOM     20  C   UNL     1      -0.023   9.964  19.424  0.00  0.00    +0.000 C 
BRANCH  20  21
ATOM     21  C   UNL     1       0.001  11.217  20.282  0.00  0.00    +0.000 A 
ATOM     22  C   UNL     1      -0.799  11.238  21.441  0.00  0.00    +0.000 A 
ATOM     23  C   UNL     1      -0.891  12.413  22.155  0.00  0.00    +0.000 A 
ATOM     24  C   UNL     1      -0.243  13.555  21.752  0.00  0.00    +0.000 A 
ATOM     25  C   UNL     1       0.568  13.580  20.641  0.00  0.00    +0.000 A 
ATOM     26  C   UNL     1       0.713  12.390  19.916  0.00  0.00    +0.000 A 
ATOM     27 CL   UNL     1       1.797  12.430  18.570  0.00  0.00    +0.000 Cl
ATOM     28  O   UNL     1      -0.489  14.608  22.578  0.00  0.00    +0.000 OA
ATOM     29  C   UNL     1      -1.197  13.939  23.643  0.00  0.00    +0.000 C 
ATOM     30  O   UNL     1      -1.607  12.601  23.295  0.00  0.00    +0.000 OA
ENDBRANCH  20  21
ENDBRANCH   4  20
TORSDOF 3
ENDMDL
MODEL 9
REMARK VINA RESULT:      -8.0      3.115      9.199
REMARK  Name = 
REMARK  3 active torsions:
REMARK  status: ('A' for Active; 'I' for Inactive)
REMARK    1  A    between atoms: N_10  and  C_11
REMARK    2  A    between atoms: N_14  and  C_15
REMARK    3  A    between atoms: C_15  and  C_16
REMARK                            x       y       z     vdW  Elec       q    Type
REMARK                         _______ _______ _______ _____ _____    ______ ____
ROOT
ATOM      1  C   UNL     1       2.611   7.274  19.055  0.00  0.00    +0.000 C 
ATOM      2  C   UNL     1       1.852   7.655  17.789  0.00  0.00    +0.000 C 
ATOM      3  C   UNL     1       1.695   9.179  17.811  0.00  0.00    +0.000 C 
ATOM      4  N   UNL     1       1.018   9.695  19.020  0.00  0.00    +0.000 NA
ATOM      5  C   UNL     1       1.522   9.119  20.289  0.00  0.00    +0.000 C 
ATOM      6  C   UNL     1       1.729   7.589  20.263  0.00  0.00    +0.000 C 
ENDROOT
BRANCH   1  16
ATOM      7  O   UNL     1       6.301   4.662  17.351  0.00  0.00    +0.000 OA
ATOM      8  C   UNL     1       5.321   4.723  18.084  0.00  0.00    +0.000 A 
ATOM      9  N   UNL     1       4.941   3.667  18.845  0.00  0.00    +0.000 N 
ATOM     10  C   UNL     1       3.822   3.683  19.669  0.00  0.00    +0.000 A 
ATOM     11  C   UNL     1       3.520   2.494  20.341  0.00  0.00    +0.000 A 
ATOM     12  C   UNL     1       2.400   2.426  21.155  0.00  0.00    +0.000 A 
ATOM     13  C   UNL     1       1.601   3.555  21.307  0.00  0.00    +0.000 A 
ATOM     14  C   UNL     1       1.923   4.758  20.654  0.00  0.00    +0.000 A 
ATOM     15  C   UNL     1       3.030   4.843  19.803  0.00  0.00    +0.000 A 
ATOM     16  N   UNL     1       3.376   6.021  19.062  0.00  0.00    +0.000 N 
ATOM     17  C   UNL     1       4.498   6.010  18.194  0.00  0.00    +0.000 A 
ATOM     18  O   UNL     1       4.850   6.959  17.495  0.00  0.00    +0.000 OA
ATOM     19  H   UNL     1       5.504   2.838  18.737  0.00  0.00    +0.000 HD
ENDBRANCH   1  16
BRANCH   4  20
ATOM     20  C   UNL     1       1.157  11.180  19.073  0.00  0.00    +0.000 C 
BRANCH  20  21
ATOM     21  C   UNL     1       0.074  11.847  19.902  0.00  0.00    +0.000 A 
ATOM     22  C   UNL     1       0.419  12.317  21.185  0.00  0.00    +0.000 A 
ATOM     23  C   UNL     1      -0.581  12.802  21.998  0.00  0.00    +0.000 A 
ATOM     24  C   UNL     1      -1.896  12.817  21.597  0.00  0.00    +0.000 A 
ATOM     25  C   UNL     1      -2.280  12.391  20.347  0.00  0.00    +0.000 A 
ATOM     26  C   UNL     1      -1.280  11.928  19.482  0.00  0.00    +0.000 A 
ATOM     27 CL   UNL     1      -1.783  11.471  17.892  0.00  0.00    +0.000 Cl
ATOM     28  O   UNL     1      -2.724  13.307  22.558  0.00  0.00    +0.000 OA
ATOM     29  C   UNL     1      -1.755  13.778  23.518  0.00  0.00    +0.000 C 
ATOM     30  O   UNL     1      -0.420  13.300  23.253  0.00  0.00    +0.000 OA
ENDBRANCH  20  21
ENDBRANCH   4  20
TORSDOF 3
ENDMDL
