MODEL 1
REMARK VINA RESULT:      -8.9      0.000      0.000
REMARK  Name = 
REMARK  8 active torsions:
REMARK  status: ('A' for Active; 'I' for Inactive)
REMARK    1  A    between atoms: C_1  and  C_2
REMARK    2  A    between atoms: N_6  and  C_7
REMARK    3  A    between atoms: C_7  and  C_8
REMARK    4  A    between atoms: C_8  and  C_9
REMARK    5  A    between atoms: C_9  and  N_10
REMARK    6  A    between atoms: C_14  and  C_16
REMARK    7  A    between atoms: C_26  and  C_27
REMARK    8  A    between atoms: N_34  and  C_35
REMARK                            x       y       z     vdW  Elec       q    Type
REMARK                         _______ _______ _______ _____ _____    ______ ____
ROOT
ATOM      1  C   UNL     1       2.060   3.255  21.570  0.00  0.00    +0.000 C 
ATOM      2  C   UNL     1       2.350   4.446  20.724  0.00  0.00    +0.000 A 
ATOM      3  C   UNL     1       1.728   5.668  20.722  0.00  0.00    +0.000 A 
ATOM      4  C   UNL     1       2.299   6.467  19.689  0.00  0.00    +0.000 A 
ATOM      5  C   UNL     1       1.986   7.777  19.254  0.00  0.00    +0.000 A 
ATOM      6  N   UNL     1       0.967   8.505  19.866  0.00  0.00    +0.000 N 
ATOM      7  N   UNL     1       2.698   8.251  18.212  0.00  0.00    +0.000 NA
ATOM      8  N   UNL     1       3.672   7.487  17.573  0.00  0.00    +0.000 NA
ATOM      9  C   UNL     1       3.977   6.208  17.927  0.00  0.00    +0.000 A 
ATOM     10  C   UNL     1       3.285   5.689  19.046  0.00  0.00    +0.000 A 
ATOM     11  N   UNL     1       3.343   4.491  19.762  0.00  0.00    +0.000 N 
ATOM     12  C   UNL     1       4.275   3.395  19.591  0.00  0.00    +0.000 C 
ATOM     13  H   UNL     1       0.874   8.287  20.850  0.00  0.00    +0.000 HD
ENDROOT
BRANCH   9  14
ATOM     14  C   UNL     1       5.002   5.550  17.100  0.00  0.00    +0.000 A 
ATOM     15  C   UNL     1       4.648   4.525  16.200  0.00  0.00    +0.000 A 
ATOM     16  C   UNL     1       5.592   3.938  15.348  0.00  0.00    +0.000 A 
ATOM     17  C   UNL     1       6.911   4.378  15.364  0.00  0.00    +0.000 A 
ATOM     18  C   UNL     1       7.302   5.339  16.289  0.00  0.00    +0.000 A 
ATOM     19  C   UNL     1       6.365   5.874  17.181  0.00  0.00    +0.000 A 
ENDBRANCH   9  14
BRANCH   6  20
ATOM     20  C   UNL     1       0.759   9.895  19.486  0.00  0.00    +0.000 C 
BRANCH  20  21
ATOM     21  C   UNL     1       0.992  10.759  20.734  0.00  0.00    +0.000 C 
BRANCH  21  22
ATOM     22  C   UNL     1       0.772  12.260  20.518  0.00  0.00    +0.000 C 
BRANCH  22  23
ATOM     23  N   UNL     1      -0.397  12.816  21.201  0.00  0.00    +0.000 NA
ATOM     24  C   UNL     1      -0.767  11.992  22.373  0.00  0.00    +0.000 C 
ATOM     25  C   UNL     1      -1.855  12.704  23.190  0.00  0.00    +0.000 C 
ATOM     26  N   UNL     1      -3.047  12.946  22.373  0.00  0.00    +0.000 N 
ATOM     27  C   UNL     1      -4.302  12.628  22.913  0.00  0.00    +0.000 C 
ATOM     28  O   UNL     1      -4.395  12.097  24.026  0.00  0.00    +0.000 OA
ATOM     29  C   UNL     1      -2.771  13.608  21.091  0.00  0.00    +0.000 C 
ATOM     30  C   UNL     1      -1.585  12.963  20.339  0.00  0.00    +0.000 C 
BRANCH  27  31
ATOM     31  C   UNL     1      -5.578  12.871  22.140  0.00  0.00    +0.000 A 
ATOM     32  N   UNL     1      -6.144  14.088  22.303  0.00  0.00    +0.000 NA
ATOM     33  C   UNL     1      -7.302  14.296  21.656  0.00  0.00    +0.000 A 
ATOM     34  C   UNL     1      -7.917  13.348  20.869  0.00  0.00    +0.000 A 
ATOM     35  C   UNL     1      -7.252  12.153  20.758  0.00  0.00    +0.000 A 
ATOM     36  N   UNL     1      -6.077  11.887  21.363  0.00  0.00    +0.000 NA
ENDBRANCH  27  31
ENDBRANCH  22  23
ENDBRANCH  21  22
ENDBRANCH  20  21
ENDBRANCH   6  20
TORSDOF 6
ENDMDL
MODEL 2
REMARK VINA RESULT:      -8.8      0.995      1.338
REMARK  Name = 
REMARK  8 active torsions:
REMARK  status: ('A' for Active; 'I' for Inactive)
REMARK    1  A    between atoms: C_1  and  C_2
REMARK    2  A    between atoms: N_6  and  C_7
REMARK    3  A    between atoms: C_7  and  C_8
REMARK    4  A    between atoms: C_8  and  C_9
REMARK    5  A    between atoms: C_9  and  N_10
REMARK    6  A    between atoms: C_14  and  C_16
REMARK    7  A    between atoms: C_26  and  C_27
REMARK    8  A    between atoms: N_34  and  C_35
REMARK                            x       y       z     vdW  Elec       q    Type
REMARK                         _______ _______ _______ _____ _____    ______ ____
ROOT
ATOM      1  C   UNL     1       2.355   2.820  21.490  0.00  0.00    +0.000 C 
ATOM      2  C   UNL     1       2.541   4.096  20.744  0.00  0.00    +0.000 A 
ATOM      3  C   UNL     1       1.875   5.284  20.898  0.00  0.00    +0.000 A 
ATOM      4  C   UNL     1       2.343   6.200  19.911  0.00  0.00    +0.000 A 
ATOM      5  C   UNL     1       1.952   7.530  19.624  0.00  0.00    +0.000 A 
ATOM      6  N   UNL     1       0.951   8.152  20.367  0.00  0.00    +0.000 N 
ATOM      7  N   UNL     1       2.573   8.129  18.588  0.00  0.00    +0.000 NA
ATOM      8  N   UNL     1       3.529   7.470  17.818  0.00  0.00    +0.000 NA
ATOM      9  C   UNL     1       3.905   6.179  18.027  0.00  0.00    +0.000 A 
ATOM     10  C   UNL     1       3.312   5.529  19.135  0.00  0.00    +0.000 A 
ATOM     11  N   UNL     1       3.463   4.273  19.729  0.00  0.00    +0.000 N 
ATOM     12  C   UNL     1       4.422   3.240  19.394  0.00  0.00    +0.000 C 
ATOM     13  H   UNL     1       0.934   7.841  21.330  0.00  0.00    +0.000 HD
ENDROOT
BRANCH   9  14
ATOM     14  C   UNL     1       4.895   5.646  17.078  0.00  0.00    +0.000 A 
ATOM     15  C   UNL     1       6.208   6.158  17.047  0.00  0.00    +0.000 A 
ATOM     16  C   UNL     1       7.188   5.616  16.208  0.00  0.00    +0.000 A 
ATOM     17  C   UNL     1       6.882   4.533  15.391  0.00  0.00    +0.000 A 
ATOM     18  C   UNL     1       5.579   4.052  15.351  0.00  0.00    +0.000 A 
ATOM     19  C   UNL     1       4.590   4.642  16.145  0.00  0.00    +0.000 A 
ENDBRANCH   9  14
BRANCH   6  20
ATOM     20  C   UNL     1       0.665   9.561  20.136  0.00  0.00    +0.000 C 
BRANCH  20  21
ATOM     21  C   UNL     1       0.102  10.143  21.441  0.00  0.00    +0.000 C 
BRANCH  21  22
ATOM     22  C   UNL     1       0.250  11.662  21.575  0.00  0.00    +0.000 C 
BRANCH  22  23
ATOM     23  N   UNL     1      -1.011  12.396  21.687  0.00  0.00    +0.000 NA
ATOM     24  C   UNL     1      -1.860  11.832  22.758  0.00  0.00    +0.000 C 
ATOM     25  C   UNL     1      -3.075  12.740  22.997  0.00  0.00    +0.000 C 
ATOM     26  N   UNL     1      -3.870  12.880  21.773  0.00  0.00    +0.000 N 
ATOM     27  C   UNL     1      -5.263  12.735  21.863  0.00  0.00    +0.000 C 
ATOM     28  O   UNL     1      -5.799  12.433  22.935  0.00  0.00    +0.000 OA
ATOM     29  C   UNL     1      -3.088  13.270  20.592  0.00  0.00    +0.000 C 
ATOM     30  C   UNL     1      -1.798  12.434  20.439  0.00  0.00    +0.000 C 
BRANCH  27  31
ATOM     31  C   UNL     1      -6.151  12.888  20.649  0.00  0.00    +0.000 A 
ATOM     32  N   UNL     1      -6.712  14.106  20.478  0.00  0.00    +0.000 NA
ATOM     33  C   UNL     1      -7.538  14.238  19.429  0.00  0.00    +0.000 A 
ATOM     34  C   UNL     1      -7.833  13.214  18.557  0.00  0.00    +0.000 A 
ATOM     35  C   UNL     1      -7.200  12.024  18.811  0.00  0.00    +0.000 A 
ATOM     36  N   UNL     1      -6.343  11.831  19.834  0.00  0.00    +0.000 NA
ENDBRANCH  27  31
ENDBRANCH  22  23
ENDBRANCH  21  22
ENDBRANCH  20  21
ENDBRANCH   6  20
TORSDOF 6
ENDMDL
MODEL 3
REMARK VINA RESULT:      -8.7      1.141      1.254
REMARK  Name = 
REMARK  8 active torsions:
REMARK  status: ('A' for Active; 'I' for Inactive)
REMARK    1  A    between atoms: C_1  and  C_2
REMARK    2  A    between atoms: N_6  and  C_7
REMARK    3  A    between atoms: C_7  and  C_8
REMARK    4  A    between atoms: C_8  and  C_9
REMARK    5  A    between atoms: C_9  and  N_10
REMARK    6  A    between atoms: C_14  and  C_16
REMARK    7  A    between atoms: C_26  and  C_27
REMARK    8  A    between atoms: N_34  and  C_35
REMARK                            x       y       z     vdW  Elec       q    Type
REMARK                         _______ _______ _______ _____ _____    ______ ____
ROOT
ATOM      1  C   UNL     1       2.081   3.419  21.646  0.00  0.00    +0.000 C 
ATOM      2  C   UNL     1       2.381   4.567  20.747  0.00  0.00    +0.000 A 
ATOM      3  C   UNL     1       1.759   5.787  20.679  0.00  0.00    +0.000 A 
ATOM      4  C   UNL     1       2.343   6.536  19.615  0.00  0.00    +0.000 A 
ATOM      5  C   UNL     1       2.036   7.824  19.114  0.00  0.00    +0.000 A 
ATOM      6  N   UNL     1       1.010   8.580  19.677  0.00  0.00    +0.000 N 
ATOM      7  N   UNL     1       2.761   8.247  18.059  0.00  0.00    +0.000 NA
ATOM      8  N   UNL     1       3.744   7.454  17.471  0.00  0.00    +0.000 NA
ATOM      9  C   UNL     1       4.044   6.193  17.889  0.00  0.00    +0.000 A 
ATOM     10  C   UNL     1       3.338   5.729  19.024  0.00  0.00    +0.000 A 
ATOM     11  N   UNL     1       3.387   4.567  19.798  0.00  0.00    +0.000 N 
ATOM     12  C   UNL     1       4.321   3.464  19.691  0.00  0.00    +0.000 C 
ATOM     13  H   UNL     1       0.904   8.409  20.669  0.00  0.00    +0.000 HD
ENDROOT
BRANCH   9  14
ATOM     14  C   UNL     1       5.080   5.497  17.109  0.00  0.00    +0.000 A 
ATOM     15  C   UNL     1       4.727   4.495  16.182  0.00  0.00    +0.000 A 
ATOM     16  C   UNL     1       5.685   3.874  15.373  0.00  0.00    +0.000 A 
ATOM     17  C   UNL     1       7.020   4.254  15.459  0.00  0.00    +0.000 A 
ATOM     18  C   UNL     1       7.405   5.190  16.411  0.00  0.00    +0.000 A 
ATOM     19  C   UNL     1       6.450   5.759  17.261  0.00  0.00    +0.000 A 
ENDBRANCH   9  14
BRANCH   6  20
ATOM     20  C   UNL     1       0.806   9.949  19.228  0.00  0.00    +0.000 C 
BRANCH  20  21
ATOM     21  C   UNL     1      -0.693  10.130  18.945  0.00  0.00    +0.000 C 
BRANCH  21  22
ATOM     22  C   UNL     1      -1.118  11.576  18.669  0.00  0.00    +0.000 C 
BRANCH  22  23
ATOM     23  N   UNL     1      -1.628  12.301  19.833  0.00  0.00    +0.000 NA
ATOM     24  C   UNL     1      -1.364  11.552  21.081  0.00  0.00    +0.000 C 
ATOM     25  C   UNL     1      -1.716  12.421  22.297  0.00  0.00    +0.000 C 
ATOM     26  N   UNL     1      -3.125  12.822  22.263  0.00  0.00    +0.000 N 
ATOM     27  C   UNL     1      -3.884  12.693  23.436  0.00  0.00    +0.000 C 
ATOM     28  O   UNL     1      -3.392  12.194  24.454  0.00  0.00    +0.000 OA
ATOM     29  C   UNL     1      -3.546  13.423  20.990  0.00  0.00    +0.000 C 
ATOM     30  C   UNL     1      -3.070  12.606  19.768  0.00  0.00    +0.000 C 
BRANCH  27  31
ATOM     31  C   UNL     1      -5.337  13.107  23.484  0.00  0.00    +0.000 A 
ATOM     32  N   UNL     1      -5.574  14.384  23.860  0.00  0.00    +0.000 NA
ATOM     33  C   UNL     1      -6.863  14.746  23.950  0.00  0.00    +0.000 A 
ATOM     34  C   UNL     1      -7.914  13.896  23.692  0.00  0.00    +0.000 A 
ATOM     35  C   UNL     1      -7.565  12.628  23.303  0.00  0.00    +0.000 A 
ATOM     36  N   UNL     1      -6.291  12.206  23.173  0.00  0.00    +0.000 NA
ENDBRANCH  27  31
ENDBRANCH  22  23
ENDBRANCH  21  22
ENDBRANCH  20  21
ENDBRANCH   6  20
TORSDOF 6
ENDMDL
MODEL 4
REMARK VINA RESULT:      -8.7      3.951      6.581
REMARK  Name = 
REMARK  8 active torsions:
REMARK  status: ('A' for Active; 'I' for Inactive)
REMARK    1  A    between atoms: C_1  and  C_2
REMARK    2  A    between atoms: N_6  and  C_7
REMARK    3  A    between atoms: C_7  and  C_8
REMARK    4  A    between atoms: C_8  and  C_9
REMARK    5  A    between atoms: C_9  and  N_10
REMARK    6  A    between atoms: C_14  and  C_16
REMARK    7  A    between atoms: C_26  and  C_27
REMARK    8  A    between atoms: N_34  and  C_35
REMARK                            x       y       z     vdW  Elec       q    Type
REMARK                         _______ _______ _______ _____ _____    ______ ____
ROOT
ATOM      1  C   UNL     1       2.008   3.566  21.590  0.00  0.00    +0.000 C 
ATOM      2  C   UNL     1       2.336   4.707  20.691  0.00  0.00    +0.000 A 
ATOM      3  C   UNL     1       1.758   5.949  20.637  0.00  0.00    +0.000 A 
ATOM      4  C   UNL     1       2.352   6.682  19.568  0.00  0.00    +0.000 A 
ATOM      5  C   UNL     1       2.084   7.982  19.077  0.00  0.00    +0.000 A 
ATOM      6  N   UNL     1       1.094   8.771  19.659  0.00  0.00    +0.000 N 
ATOM      7  N   UNL     1       2.806   8.384  18.012  0.00  0.00    +0.000 NA
ATOM      8  N   UNL     1       3.750   7.558  17.405  0.00  0.00    +0.000 NA
ATOM      9  C   UNL     1       4.012   6.286  17.813  0.00  0.00    +0.000 A 
ATOM     10  C   UNL     1       3.307   5.842  18.957  0.00  0.00    +0.000 A 
ATOM     11  N   UNL     1       3.326   4.675  19.725  0.00  0.00    +0.000 N 
ATOM     12  C   UNL     1       4.218   3.540  19.599  0.00  0.00    +0.000 C 
ATOM     13  H   UNL     1       0.997   8.601  20.651  0.00  0.00    +0.000 HD
ENDROOT
BRANCH   9  14
ATOM     14  C   UNL     1       5.009   5.556  17.014  0.00  0.00    +0.000 A 
ATOM     15  C   UNL     1       4.612   4.523  16.141  0.00  0.00    +0.000 A 
ATOM     16  C   UNL     1       5.531   3.868  15.313  0.00  0.00    +0.000 A 
ATOM     17  C   UNL     1       6.869   4.244  15.326  0.00  0.00    +0.000 A 
ATOM     18  C   UNL     1       7.300   5.213  16.225  0.00  0.00    +0.000 A 
ATOM     19  C   UNL     1       6.385   5.817  17.095  0.00  0.00    +0.000 A 
ENDBRANCH   9  14
BRANCH   6  20
ATOM     20  C   UNL     1       0.933  10.150  19.219  0.00  0.00    +0.000 C 
BRANCH  20  21
ATOM     21  C   UNL     1       0.882  11.036  20.471  0.00  0.00    +0.000 C 
BRANCH  21  22
ATOM     22  C   UNL     1       0.043  12.310  20.316  0.00  0.00    +0.000 C 
BRANCH  22  23
ATOM     23  N   UNL     1       0.815  13.551  20.253  0.00  0.00    +0.000 NA
ATOM     24  C   UNL     1       0.505  14.306  19.019  0.00  0.00    +0.000 C 
ATOM     25  C   UNL     1       1.162  15.693  19.075  0.00  0.00    +0.000 C 
ATOM     26  N   UNL     1       2.616  15.577  19.219  0.00  0.00    +0.000 N 
ATOM     27  C   UNL     1       3.432  16.364  18.392  0.00  0.00    +0.000 C 
ATOM     28  O   UNL     1       2.938  17.089  17.522  0.00  0.00    +0.000 OA
ATOM     29  C   UNL     1       3.041  14.699  20.316  0.00  0.00    +0.000 C 
ATOM     30  C   UNL     1       2.276  13.356  20.326  0.00  0.00    +0.000 C 
BRANCH  27  31
ATOM     31  C   UNL     1       4.940  16.316  18.498  0.00  0.00    +0.000 A 
ATOM     32  N   UNL     1       5.520  17.358  19.134  0.00  0.00    +0.000 NA
ATOM     33  C   UNL     1       6.861  17.347  19.191  0.00  0.00    +0.000 A 
ATOM     34  C   UNL     1       7.639  16.355  18.640  0.00  0.00    +0.000 A 
ATOM     35  C   UNL     1       6.952  15.336  18.031  0.00  0.00    +0.000 A 
ATOM     36  N   UNL     1       5.606  15.276  17.957  0.00  0.00    +0.000 NA
ENDBRANCH  27  31
ENDBRANCH  22  23
ENDBRANCH  21  22
ENDBRANCH  20  21
ENDBRANCH   6  20
TORSDOF 6
ENDMDL
MODEL 5
REMARK VINA RESULT:      -8.4      1.245      1.527
REMARK  Name = 
REMARK  8 active torsions:
REMARK  status: ('A' for Active; 'I' for Inactive)
REMARK    1  A    between atoms: C_1  and  C_2
REMARK    2  A    between atoms: N_6  and  C_7
REMARK    3  A    between atoms: C_7  and  C_8
REMARK    4  A    between atoms: C_8  and  C_9
REMARK    5  A    between atoms: C_9  and  N_10
REMARK    6  A    between atoms: C_14  and  C_16
REMARK    7  A    between atoms: C_26  and  C_27
REMARK    8  A    between atoms: N_34  and  C_35
REMARK                            x       y       z     vdW  Elec       q    Type
REMARK                         _______ _______ _______ _____ _____    ______ ____
ROOT
ATOM      1  C   UNL     1       0.828   1.683  19.222  0.00  0.00    +0.000 C 
ATOM      2  C   UNL     1       1.539   2.991  19.231  0.00  0.00    +0.000 A 
ATOM      3  C   UNL     1       1.213   4.139  19.907  0.00  0.00    +0.000 A 
ATOM      4  C   UNL     1       2.146   5.157  19.551  0.00  0.00    +0.000 A 
ATOM      5  C   UNL     1       2.223   6.516  19.938  0.00  0.00    +0.000 A 
ATOM      6  N   UNL     1       1.284   7.061  20.811  0.00  0.00    +0.000 N 
ATOM      7  N   UNL     1       3.221   7.240  19.393  0.00  0.00    +0.000 NA
ATOM      8  N   UNL     1       4.116   6.694  18.475  0.00  0.00    +0.000 NA
ATOM      9  C   UNL     1       4.055   5.405  18.039  0.00  0.00    +0.000 A 
ATOM     10  C   UNL     1       3.050   4.598  18.622  0.00  0.00    +0.000 A 
ATOM     11  N   UNL     1       2.695   3.251  18.518  0.00  0.00    +0.000 N 
ATOM     12  C   UNL     1       3.381   2.203  17.788  0.00  0.00    +0.000 C 
ATOM     13  H   UNL     1       0.944   6.386  21.483  0.00  0.00    +0.000 HD
ENDROOT
BRANCH   9  14
ATOM     14  C   UNL     1       5.060   5.029  17.032  0.00  0.00    +0.000 A 
ATOM     15  C   UNL     1       4.703   4.907  15.674  0.00  0.00    +0.000 A 
ATOM     16  C   UNL     1       5.656   4.628  14.687  0.00  0.00    +0.000 A 
ATOM     17  C   UNL     1       6.994   4.480  15.035  0.00  0.00    +0.000 A 
ATOM     18  C   UNL     1       7.363   4.528  16.374  0.00  0.00    +0.000 A 
ATOM     19  C   UNL     1       6.394   4.744  17.361  0.00  0.00    +0.000 A 
ENDBRANCH   9  14
BRANCH   6  20
ATOM     20  C   UNL     1       1.467   8.422  21.294  0.00  0.00    +0.000 C 
BRANCH  20  21
ATOM     21  C   UNL     1       0.251   9.244  20.843  0.00  0.00    +0.000 C 
BRANCH  21  22
ATOM     22  C   UNL     1       0.534  10.736  20.632  0.00  0.00    +0.000 C 
BRANCH  22  23
ATOM     23  N   UNL     1      -0.468  11.639  21.198  0.00  0.00    +0.000 NA
ATOM     24  C   UNL     1      -0.987  11.118  22.482  0.00  0.00    +0.000 C 
ATOM     25  C   UNL     1      -1.874  12.175  23.156  0.00  0.00    +0.000 C 
ATOM     26  N   UNL     1      -3.000  12.540  22.292  0.00  0.00    +0.000 N 
ATOM     27  C   UNL     1      -4.283  12.599  22.857  0.00  0.00    +0.000 C 
ATOM     28  O   UNL     1      -4.466  12.289  24.040  0.00  0.00    +0.000 OA
ATOM     29  C   UNL     1      -2.611  12.908  20.924  0.00  0.00    +0.000 C 
ATOM     30  C   UNL     1      -1.613  11.904  20.305  0.00  0.00    +0.000 C 
BRANCH  27  31
ATOM     31  C   UNL     1      -5.489  12.990  22.035  0.00  0.00    +0.000 A 
ATOM     32  N   UNL     1      -6.252  11.969  21.583  0.00  0.00    +0.000 NA
ATOM     33  C   UNL     1      -7.299  12.306  20.814  0.00  0.00    +0.000 A 
ATOM     34  C   UNL     1      -7.610  13.602  20.474  0.00  0.00    +0.000 A 
ATOM     35  C   UNL     1      -6.783  14.564  20.997  0.00  0.00    +0.000 A 
ATOM     36  N   UNL     1      -5.727  14.295  21.793  0.00  0.00    +0.000 NA
ENDBRANCH  27  31
ENDBRANCH  22  23
ENDBRANCH  21  22
ENDBRANCH  20  21
ENDBRANCH   6  20
TORSDOF 6
ENDMDL
MODEL 6
REMARK VINA RESULT:      -8.3      1.232      1.480
REMARK  Name = 
REMARK  8 active torsions:
REMARK  status: ('A' for Active; 'I' for Inactive)
REMARK    1  A    between atoms: C_1  and  C_2
REMARK    2  A    between atoms: N_6  and  C_7
REMARK    3  A    between atoms: C_7  and  C_8
REMARK    4  A    between atoms: C_8  and  C_9
REMARK    5  A    between atoms: C_9  and  N_10
REMARK    6  A    between atoms: C_14  and  C_16
REMARK    7  A    between atoms: C_26  and  C_27
REMARK    8  A    between atoms: N_34  and  C_35
REMARK                            x       y       z     vdW  Elec       q    Type
REMARK                         _______ _______ _______ _____ _____    ______ ____
ROOT
ATOM      1  C   UNL     1       0.935   1.652  19.277  0.00  0.00    +0.000 C 
ATOM      2  C   UNL     1       1.606   2.982  19.280  0.00  0.00    +0.000 A 
ATOM      3  C   UNL     1       1.258   4.115  19.970  0.00  0.00    +0.000 A 
ATOM      4  C   UNL     1       2.151   5.163  19.601  0.00  0.00    +0.000 A 
ATOM      5  C   UNL     1       2.195   6.522  19.995  0.00  0.00    +0.000 A 
ATOM      6  N   UNL     1       1.258   7.032  20.891  0.00  0.00    +0.000 N 
ATOM      7  N   UNL     1       3.158   7.280  19.434  0.00  0.00    +0.000 NA
ATOM      8  N   UNL     1       4.050   6.768  18.494  0.00  0.00    +0.000 NA
ATOM      9  C   UNL     1       4.019   5.480  18.051  0.00  0.00    +0.000 A 
ATOM     10  C   UNL     1       3.053   4.639  18.650  0.00  0.00    +0.000 A 
ATOM     11  N   UNL     1       2.738   3.282  18.544  0.00  0.00    +0.000 N 
ATOM     12  C   UNL     1       3.440   2.260  17.793  0.00  0.00    +0.000 C 
ATOM     13  H   UNL     1       0.953   6.343  21.566  0.00  0.00    +0.000 HD
ENDROOT
BRANCH   9  14
ATOM     14  C   UNL     1       5.014   5.142  17.021  0.00  0.00    +0.000 A 
ATOM     15  C   UNL     1       6.343   4.839  17.379  0.00  0.00    +0.000 A 
ATOM     16  C   UNL     1       7.287   4.439  16.426  0.00  0.00    +0.000 A 
ATOM     17  C   UNL     1       6.917   4.314  15.091  0.00  0.00    +0.000 A 
ATOM     18  C   UNL     1       5.632   4.671  14.700  0.00  0.00    +0.000 A 
ATOM     19  C   UNL     1       4.714   5.132  15.650  0.00  0.00    +0.000 A 
ENDBRANCH   9  14
BRANCH   6  20
ATOM     20  C   UNL     1       1.408   8.396  21.379  0.00  0.00    +0.000 C 
BRANCH  20  21
ATOM     21  C   UNL     1       0.219   9.213  20.854  0.00  0.00    +0.000 C 
BRANCH  21  22
ATOM     22  C   UNL     1       0.513  10.703  20.649  0.00  0.00    +0.000 C 
BRANCH  22  23
ATOM     23  N   UNL     1      -0.487  11.611  21.214  0.00  0.00    +0.000 NA
ATOM     24  C   UNL     1      -0.984  11.109  22.513  0.00  0.00    +0.000 C 
ATOM     25  C   UNL     1      -1.867  12.173  23.182  0.00  0.00    +0.000 C 
ATOM     26  N   UNL     1      -3.007  12.517  22.328  0.00  0.00    +0.000 N 
ATOM     27  C   UNL     1      -4.282  12.578  22.911  0.00  0.00    +0.000 C 
ATOM     28  O   UNL     1      -4.447  12.288  24.101  0.00  0.00    +0.000 OA
ATOM     29  C   UNL     1      -2.640  12.864  20.949  0.00  0.00    +0.000 C 
ATOM     30  C   UNL     1      -1.646  11.854  20.333  0.00  0.00    +0.000 C 
BRANCH  27  31
ATOM     31  C   UNL     1      -5.503  12.949  22.100  0.00  0.00    +0.000 A 
ATOM     32  N   UNL     1      -5.731  14.273  21.949  0.00  0.00    +0.000 NA
ATOM     33  C   UNL     1      -6.838  14.610  21.269  0.00  0.00    +0.000 A 
ATOM     34  C   UNL     1      -7.722  13.693  20.747  0.00  0.00    +0.000 A 
ATOM     35  C   UNL     1      -7.389  12.377  20.943  0.00  0.00    +0.000 A 
ATOM     36  N   UNL     1      -6.283  11.970  21.597  0.00  0.00    +0.000 NA
ENDBRANCH  27  31
ENDBRANCH  22  23
ENDBRANCH  21  22
ENDBRANCH  20  21
ENDBRANCH   6  20
TORSDOF 6
ENDMDL
MODEL 7
REMARK VINA RESULT:      -8.3      1.982      2.532
REMARK  Name = 
REMARK  8 active torsions:
REMARK  status: ('A' for Active; 'I' for Inactive)
REMARK    1  A    between atoms: C_1  and  C_2
REMARK    2  A    between atoms: N_6  and  C_7
REMARK    3  A    between atoms: C_7  and  C_8
REMARK    4  A    between atoms: C_8  and  C_9
REMARK    5  A    between atoms: C_9  and  N_10
REMARK    6  A    between atoms: C_14  and  C_16
REMARK    7  A    between atoms: C_26  and  C_27
REMARK    8  A    between atoms: N_34  and  C_35
REMARK                            x       y       z     vdW  Elec       q    Type
REMARK                         _______ _______ _______ _____ _____    ______ ____
ROOT
ATOM      1  C   UNL     1       2.010   3.206  21.438  0.00  0.00    +0.000 C 
ATOM      2  C   UNL     1       2.336   4.418  20.636  0.00  0.00    +0.000 A 
ATOM      3  C   UNL     1       1.748   5.657  20.678  0.00  0.00    +0.000 A 
ATOM      4  C   UNL     1       2.344   6.477  19.676  0.00  0.00    +0.000 A 
ATOM      5  C   UNL     1       2.070   7.810  19.289  0.00  0.00    +0.000 A 
ATOM      6  N   UNL     1       1.070   8.544  19.925  0.00  0.00    +0.000 N 
ATOM      7  N   UNL     1       2.798   8.302  18.266  0.00  0.00    +0.000 NA
ATOM      8  N   UNL     1       3.752   7.535  17.601  0.00  0.00    +0.000 NA
ATOM      9  C   UNL     1       4.020   6.235  17.908  0.00  0.00    +0.000 A 
ATOM     10  C   UNL     1       3.311   5.696  19.007  0.00  0.00    +0.000 A 
ATOM     11  N   UNL     1       3.333   4.471  19.679  0.00  0.00    +0.000 N 
ATOM     12  C   UNL     1       4.234   3.356  19.469  0.00  0.00    +0.000 C 
ATOM     13  H   UNL     1       0.968   8.293  20.899  0.00  0.00    +0.000 HD
ENDROOT
BRANCH   9  14
ATOM     14  C   UNL     1       5.029   5.579  17.060  0.00  0.00    +0.000 A 
ATOM     15  C   UNL     1       4.637   4.715  16.018  0.00  0.00    +0.000 A 
ATOM     16  C   UNL     1       5.573   4.141  15.150  0.00  0.00    +0.000 A 
ATOM     17  C   UNL     1       6.925   4.434  15.293  0.00  0.00    +0.000 A 
ATOM     18  C   UNL     1       7.345   5.229  16.353  0.00  0.00    +0.000 A 
ATOM     19  C   UNL     1       6.409   5.746  17.255  0.00  0.00    +0.000 A 
ENDBRANCH   9  14
BRANCH   6  20
ATOM     20  C   UNL     1       0.901   9.952  19.596  0.00  0.00    +0.000 C 
BRANCH  20  21
ATOM     21  C   UNL     1      -0.144  10.047  18.475  0.00  0.00    +0.000 C 
BRANCH  21  22
ATOM     22  C   UNL     1      -0.821  11.416  18.353  0.00  0.00    +0.000 C 
BRANCH  22  23
ATOM     23  N   UNL     1      -2.198  11.468  18.847  0.00  0.00    +0.000 NA
ATOM     24  C   UNL     1      -3.165  11.330  17.738  0.00  0.00    +0.000 C 
ATOM     25  C   UNL     1      -4.587  11.176  18.298  0.00  0.00    +0.000 C 
ATOM     26  N   UNL     1      -4.953  12.335  19.117  0.00  0.00    +0.000 N 
ATOM     27  C   UNL     1      -6.209  12.925  18.914  0.00  0.00    +0.000 C 
ATOM     28  O   UNL     1      -6.962  12.517  18.022  0.00  0.00    +0.000 OA
ATOM     29  C   UNL     1      -3.965  12.675  20.150  0.00  0.00    +0.000 C 
ATOM     30  C   UNL     1      -2.522  12.697  19.599  0.00  0.00    +0.000 C 
BRANCH  27  31
ATOM     31  C   UNL     1      -6.667  14.109  19.735  0.00  0.00    +0.000 A 
ATOM     32  N   UNL     1      -7.312  13.814  20.886  0.00  0.00    +0.000 NA
ATOM     33  C   UNL     1      -7.762  14.858  21.599  0.00  0.00    +0.000 A 
ATOM     34  C   UNL     1      -7.606  16.170  21.212  0.00  0.00    +0.000 A 
ATOM     35  C   UNL     1      -6.924  16.360  20.037  0.00  0.00    +0.000 A 
ATOM     36  N   UNL     1      -6.428  15.357  19.285  0.00  0.00    +0.000 NA
ENDBRANCH  27  31
ENDBRANCH  22  23
ENDBRANCH  21  22
ENDBRANCH  20  21
ENDBRANCH   6  20
TORSDOF 6
ENDMDL
MODEL 8
REMARK VINA RESULT:      -8.2      2.097      3.473
REMARK  Name = 
REMARK  8 active torsions:
REMARK  status: ('A' for Active; 'I' for Inactive)
REMARK    1  A    between atoms: C_1  and  C_2
REMARK    2  A    between atoms: N_6  and  C_7
REMARK    3  A    between atoms: C_7  and  C_8
REMARK    4  A    between atoms: C_8  and  C_9
REMARK    5  A    between atoms: C_9  and  N_10
REMARK    6  A    between atoms: C_14  and  C_16
REMARK    7  A    between atoms: C_26  and  C_27
REMARK    8  A    between atoms: N_34  and  C_35
REMARK                            x       y       z     vdW  Elec       q    Type
REMARK                         _______ _______ _______ _____ _____    ______ ____
ROOT
ATOM      1  C   UNL     1       1.934   3.122  21.542  0.00  0.00    +0.000 C 
ATOM      2  C   UNL     1       2.293   4.315  20.726  0.00  0.00    +0.000 A 
ATOM      3  C   UNL     1       1.749   5.573  20.760  0.00  0.00    +0.000 A 
ATOM      4  C   UNL     1       2.364   6.363  19.745  0.00  0.00    +0.000 A 
ATOM      5  C   UNL     1       2.132   7.701  19.348  0.00  0.00    +0.000 A 
ATOM      6  N   UNL     1       1.163   8.474  19.984  0.00  0.00    +0.000 N 
ATOM      7  N   UNL     1       2.868   8.158  18.314  0.00  0.00    +0.000 NA
ATOM      8  N   UNL     1       3.790   7.352  17.650  0.00  0.00    +0.000 NA
ATOM      9  C   UNL     1       4.016   6.048  17.967  0.00  0.00    +0.000 A 
ATOM     10  C   UNL     1       3.298   5.543  19.077  0.00  0.00    +0.000 A 
ATOM     11  N   UNL     1       3.284   4.325  19.760  0.00  0.00    +0.000 N 
ATOM     12  C   UNL     1       4.145   3.178  19.555  0.00  0.00    +0.000 C 
ATOM     13  H   UNL     1       1.060   8.236  20.962  0.00  0.00    +0.000 HD
ENDROOT
BRANCH   9  14
ATOM     14  C   UNL     1       4.995   5.350  17.118  0.00  0.00    +0.000 A 
ATOM     15  C   UNL     1       4.591   4.731  15.918  0.00  0.00    +0.000 A 
ATOM     16  C   UNL     1       5.515   4.130  15.055  0.00  0.00    +0.000 A 
ATOM     17  C   UNL     1       6.870   4.149  15.365  0.00  0.00    +0.000 A 
ATOM     18  C   UNL     1       7.289   4.692  16.574  0.00  0.00    +0.000 A 
ATOM     19  C   UNL     1       6.351   5.233  17.461  0.00  0.00    +0.000 A 
ENDBRANCH   9  14
BRANCH   6  20
ATOM     20  C   UNL     1       1.040   9.884  19.643  0.00  0.00    +0.000 C 
BRANCH  20  21
ATOM     21  C   UNL     1      -0.380  10.111  19.104  0.00  0.00    +0.000 C 
BRANCH  21  22
ATOM     22  C   UNL     1      -0.876  11.558  19.210  0.00  0.00    +0.000 C 
BRANCH  22  23
ATOM     23  N   UNL     1      -1.320  11.960  20.545  0.00  0.00    +0.000 NA
ATOM     24  C   UNL     1      -2.591  12.714  20.476  0.00  0.00    +0.000 C 
ATOM     25  C   UNL     1      -3.142  12.942  21.891  0.00  0.00    +0.000 C 
ATOM     26  N   UNL     1      -2.182  13.686  22.711  0.00  0.00    +0.000 N 
ATOM     27  C   UNL     1      -2.652  14.768  23.472  0.00  0.00    +0.000 C 
ATOM     28  O   UNL     1      -3.834  15.123  23.401  0.00  0.00    +0.000 OA
ATOM     29  C   UNL     1      -0.827  13.119  22.710  0.00  0.00    +0.000 C 
ATOM     30  C   UNL     1      -0.336  12.772  21.287  0.00  0.00    +0.000 C 
BRANCH  27  31
ATOM     31  C   UNL     1      -1.727  15.568  24.360  0.00  0.00    +0.000 A 
ATOM     32  N   UNL     1      -0.921  16.451  23.730  0.00  0.00    +0.000 NA
ATOM     33  C   UNL     1      -0.065  17.133  24.506  0.00  0.00    +0.000 A 
ATOM     34  C   UNL     1       0.027  16.966  25.869  0.00  0.00    +0.000 A 
ATOM     35  C   UNL     1      -0.846  16.057  26.412  0.00  0.00    +0.000 A 
ATOM     36  N   UNL     1      -1.744  15.356  25.692  0.00  0.00    +0.000 NA
ENDBRANCH  27  31
ENDBRANCH  22  23
ENDBRANCH  21  22
ENDBRANCH  20  21
ENDBRANCH   6  20
TORSDOF 6
ENDMDL
MODEL 9
REMARK VINA RESULT:      -8.1      2.175      2.570
REMARK  Name = 
REMARK  8 active torsions:
REMARK  status: ('A' for Active; 'I' for Inactive)
REMARK    1  A    between atoms: C_1  and  C_2
REMARK    2  A    between atoms: N_6  and  C_7
REMARK    3  A    between atoms: C_7  and  C_8
REMARK    4  A    between atoms: C_8  and  C_9
REMARK    5  A    between atoms: C_9  and  N_10
REMARK    6  A    between atoms: C_14  and  C_16
REMARK    7  A    between atoms: C_26  and  C_27
REMARK    8  A    between atoms: N_34  and  C_35
REMARK                            x       y       z     vdW  Elec       q    Type
REMARK                         _______ _______ _______ _____ _____    ______ ____
ROOT
ATOM      1  C   UNL     1       2.081   2.789  21.515  0.00  0.00    +0.000 C 
ATOM      2  C   UNL     1       2.394   4.021  20.738  0.00  0.00    +0.000 A 
ATOM      3  C   UNL     1       1.806   5.257  20.818  0.00  0.00    +0.000 A 
ATOM      4  C   UNL     1       2.387   6.101  19.827  0.00  0.00    +0.000 A 
ATOM      5  C   UNL     1       2.106   7.443  19.476  0.00  0.00    +0.000 A 
ATOM      6  N   UNL     1       1.115   8.160  20.143  0.00  0.00    +0.000 N 
ATOM      7  N   UNL     1       2.819   7.960  18.455  0.00  0.00    +0.000 NA
ATOM      8  N   UNL     1       3.765   7.210  17.759  0.00  0.00    +0.000 NA
ATOM      9  C   UNL     1       4.039   5.904  18.032  0.00  0.00    +0.000 A 
ATOM     10  C   UNL     1       3.345   5.338  19.127  0.00  0.00    +0.000 A 
ATOM     11  N   UNL     1       3.377   4.097  19.769  0.00  0.00    +0.000 N 
ATOM     12  C   UNL     1       4.277   2.989  19.520  0.00  0.00    +0.000 C 
ATOM     13  H   UNL     1       1.026   7.886  21.113  0.00  0.00    +0.000 HD
ENDROOT
BRANCH   9  14
ATOM     14  C   UNL     1       5.036   5.270  17.154  0.00  0.00    +0.000 A 
ATOM     15  C   UNL     1       4.642   4.652  15.950  0.00  0.00    +0.000 A 
ATOM     16  C   UNL     1       5.580   4.112  15.062  0.00  0.00    +0.000 A 
ATOM     17  C   UNL     1       6.938   4.192  15.351  0.00  0.00    +0.000 A 
ATOM     18  C   UNL     1       7.350   4.735  16.562  0.00  0.00    +0.000 A 
ATOM     19  C   UNL     1       6.402   5.214  17.473  0.00  0.00    +0.000 A 
ENDBRANCH   9  14
BRANCH   6  20
ATOM     20  C   UNL     1       0.940   9.575  19.850  0.00  0.00    +0.000 C 
BRANCH  20  21
ATOM     21  C   UNL     1      -0.461   9.981  20.328  0.00  0.00    +0.000 C 
BRANCH  21  22
ATOM     22  C   UNL     1      -1.075  11.162  19.568  0.00  0.00    +0.000 C 
BRANCH  22  23
ATOM     23  N   UNL     1      -0.993  12.449  20.260  0.00  0.00    +0.000 NA
ATOM     24  C   UNL     1      -0.406  12.290  21.608  0.00  0.00    +0.000 C 
ATOM     25  C   UNL     1      -0.137  13.668  22.229  0.00  0.00    +0.000 C 
ATOM     26  N   UNL     1      -1.375  14.445  22.330  0.00  0.00    +0.000 N 
ATOM     27  C   UNL     1      -1.653  15.103  23.538  0.00  0.00    +0.000 C 
ATOM     28  O   UNL     1      -0.903  14.976  24.513  0.00  0.00    +0.000 OA
ATOM     29  C   UNL     1      -2.139  14.522  21.078  0.00  0.00    +0.000 C 
ATOM     30  C   UNL     1      -2.288  13.144  20.395  0.00  0.00    +0.000 C 
BRANCH  27  31
ATOM     31  C   UNL     1      -2.898  15.942  23.711  0.00  0.00    +0.000 A 
ATOM     32  N   UNL     1      -4.009  15.278  24.101  0.00  0.00    +0.000 NA
ATOM     33  C   UNL     1      -5.129  16.008  24.212  0.00  0.00    +0.000 A 
ATOM     34  C   UNL     1      -5.190  17.356  23.945  0.00  0.00    +0.000 A 
ATOM     35  C   UNL     1      -4.005  17.938  23.571  0.00  0.00    +0.000 A 
ATOM     36  N   UNL     1      -2.841  17.266  23.461  0.00  0.00    +0.000 NA
ENDBRANCH  27  31
ENDBRANCH  22  23
ENDBRANCH  21  22
ENDBRANCH  20  21
ENDBRANCH   6  20
TORSDOF 6
ENDMDL
