MODEL 1
REMARK VINA RESULT:      -7.3      0.000      0.000
REMARK  Name = 
REMARK  4 active torsions:
REMARK  status: ('A' for Active; 'I' for Inactive)
REMARK    1  A    between atoms: C_1  and  C_2
REMARK    2  A    between atoms: C_4  and  O_5
REMARK    3  A    between atoms: O_5  and  C_6
REMARK    4  A    between atoms: C_15  and  C_16
REMARK                            x       y       z     vdW  Elec       q    Type
REMARK                         _______ _______ _______ _____ _____    ______ ____
ROOT
ATOM      1  C   UNL     1       8.070   8.217  17.741  0.00  0.00    +0.000 C 
ATOM      2  C   UNL     1       7.457   6.868  17.518  0.00  0.00    +0.000 A 
ATOM      3  C   UNL     1       6.963   6.126  18.572  0.00  0.00    +0.000 A 
ATOM      4  C   UNL     1       6.414   4.908  18.245  0.00  0.00    +0.000 A 
ATOM      5  N   UNL     1       6.392   4.401  16.997  0.00  0.00    +0.000 NA
ATOM      6  C   UNL     1       6.892   5.198  16.044  0.00  0.00    +0.000 A 
ATOM      7  N   UNL     1       7.414   6.425  16.243  0.00  0.00    +0.000 NA
ENDROOT
BRANCH   6   8
ATOM      8  C   UNL     1       6.818   4.725  14.686  0.00  0.00    +0.000 C 
ATOM      9  N   UNL     1       6.771   4.332  13.589  0.00  0.00    +0.000 NA
ENDBRANCH   6   8
BRANCH   4  10
ATOM     10  O   UNL     1       5.838   4.187  19.288  0.00  0.00    +0.000 OA
BRANCH  10  11
ATOM     11  C   UNL     1       4.513   3.823  19.165  0.00  0.00    +0.000 A 
ATOM     12  C   UNL     1       3.569   4.644  18.530  0.00  0.00    +0.000 A 
ATOM     13  C   UNL     1       2.247   4.225  18.393  0.00  0.00    +0.000 A 
ATOM     14  C   UNL     1       1.847   3.009  18.941  0.00  0.00    +0.000 A 
ATOM     15 CL   UNL     1       0.217   2.494  18.757  0.00  0.00    +0.000 Cl
ATOM     16  C   UNL     1       2.755   2.215  19.639  0.00  0.00    +0.000 A 
ATOM     17  C   UNL     1       4.086   2.624  19.752  0.00  0.00    +0.000 A 
ATOM     18 CL   UNL     1       5.174   1.625  20.649  0.00  0.00    +0.000 Cl
ENDBRANCH  10  11
ENDBRANCH   4  10
TORSDOF 3
ENDMDL
MODEL 2
REMARK VINA RESULT:      -7.2      1.261      1.614
REMARK  Name = 
REMARK  4 active torsions:
REMARK  status: ('A' for Active; 'I' for Inactive)
REMARK    1  A    between atoms: C_1  and  C_2
REMARK    2  A    between atoms: C_4  and  O_5
REMARK    3  A    between atoms: O_5  and  C_6
REMARK    4  A    between atoms: C_15  and  C_16
REMARK                            x       y       z     vdW  Elec       q    Type
REMARK                         _______ _______ _______ _____ _____    ______ ____
ROOT
ATOM      1  C   UNL     1       7.997   8.186  17.629  0.00  0.00    +0.000 C 
ATOM      2  C   UNL     1       7.380   6.832  17.453  0.00  0.00    +0.000 A 
ATOM      3  C   UNL     1       6.903   6.119  18.534  0.00  0.00    +0.000 A 
ATOM      4  C   UNL     1       6.348   4.893  18.249  0.00  0.00    +0.000 A 
ATOM      5  N   UNL     1       6.307   4.352  17.016  0.00  0.00    +0.000 NA
ATOM      6  C   UNL     1       6.792   5.123  16.034  0.00  0.00    +0.000 A 
ATOM      7  N   UNL     1       7.317   6.354  16.191  0.00  0.00    +0.000 NA
ENDROOT
BRANCH   6   8
ATOM      8  C   UNL     1       6.697   4.613  14.691  0.00  0.00    +0.000 C 
ATOM      9  N   UNL     1       6.633   4.208  13.599  0.00  0.00    +0.000 NA
ENDBRANCH   6   8
BRANCH   4  10
ATOM     10  O   UNL     1       5.789   4.200  19.320  0.00  0.00    +0.000 OA
BRANCH  10  11
ATOM     11  C   UNL     1       4.525   3.672  19.156  0.00  0.00    +0.000 A 
ATOM     12  C   UNL     1       4.313   2.313  18.885  0.00  0.00    +0.000 A 
ATOM     13  C   UNL     1       3.018   1.810  18.763  0.00  0.00    +0.000 A 
ATOM     14  C   UNL     1       1.931   2.674  18.853  0.00  0.00    +0.000 A 
ATOM     15 CL   UNL     1       0.337   2.044  18.713  0.00  0.00    +0.000 Cl
ATOM     16  C   UNL     1       2.126   4.040  19.048  0.00  0.00    +0.000 A 
ATOM     17  C   UNL     1       3.423   4.537  19.198  0.00  0.00    +0.000 A 
ATOM     18 CL   UNL     1       3.625   6.240  19.411  0.00  0.00    +0.000 Cl
ENDBRANCH  10  11
ENDBRANCH   4  10
TORSDOF 3
ENDMDL
MODEL 3
REMARK VINA RESULT:      -7.2      2.120      3.448
REMARK  Name = 
REMARK  4 active torsions:
REMARK  status: ('A' for Active; 'I' for Inactive)
REMARK    1  A    between atoms: C_1  and  C_2
REMARK    2  A    between atoms: C_4  and  O_5
REMARK    3  A    between atoms: O_5  and  C_6
REMARK    4  A    between atoms: C_15  and  C_16
REMARK                            x       y       z     vdW  Elec       q    Type
REMARK                         _______ _______ _______ _____ _____    ______ ____
ROOT
ATOM      1  C   UNL     1       7.434   4.813  13.746  0.00  0.00    +0.000 C 
ATOM      2  C   UNL     1       6.712   4.733  15.057  0.00  0.00    +0.000 A 
ATOM      3  C   UNL     1       5.364   4.448  15.113  0.00  0.00    +0.000 A 
ATOM      4  C   UNL     1       4.813   4.390  16.372  0.00  0.00    +0.000 A 
ATOM      5  N   UNL     1       5.492   4.649  17.506  0.00  0.00    +0.000 NA
ATOM      6  C   UNL     1       6.796   4.912  17.347  0.00  0.00    +0.000 A 
ATOM      7  N   UNL     1       7.449   4.953  16.168  0.00  0.00    +0.000 NA
ENDROOT
BRANCH   6   8
ATOM      8  C   UNL     1       7.575   5.121  18.540  0.00  0.00    +0.000 C 
ATOM      9  N   UNL     1       8.198   5.278  19.513  0.00  0.00    +0.000 NA
ENDBRANCH   6   8
BRANCH   4  10
ATOM     10  O   UNL     1       3.471   4.022  16.447  0.00  0.00    +0.000 OA
BRANCH  10  11
ATOM     11  C   UNL     1       2.972   3.652  17.679  0.00  0.00    +0.000 A 
ATOM     12  C   UNL     1       2.931   2.314  18.097  0.00  0.00    +0.000 A 
ATOM     13  C   UNL     1       2.454   1.984  19.365  0.00  0.00    +0.000 A 
ATOM     14  C   UNL     1       1.962   2.984  20.199  0.00  0.00    +0.000 A 
ATOM     15 CL   UNL     1       1.387   2.570  21.765  0.00  0.00    +0.000 Cl
ATOM     16  C   UNL     1       1.927   4.310  19.771  0.00  0.00    +0.000 A 
ATOM     17  C   UNL     1       2.431   4.642  18.511  0.00  0.00    +0.000 A 
ATOM     18 CL   UNL     1       2.345   6.292  18.006  0.00  0.00    +0.000 Cl
ENDBRANCH  10  11
ENDBRANCH   4  10
TORSDOF 3
ENDMDL
MODEL 4
REMARK VINA RESULT:      -7.1      2.173      2.577
REMARK  Name = 
REMARK  4 active torsions:
REMARK  status: ('A' for Active; 'I' for Inactive)
REMARK    1  A    between atoms: C_1  and  C_2
REMARK    2  A    between atoms: C_4  and  O_5
REMARK    3  A    between atoms: O_5  and  C_6
REMARK    4  A    between atoms: C_15  and  C_16
REMARK                            x       y       z     vdW  Elec       q    Type
REMARK                         _______ _______ _______ _____ _____    ______ ____
ROOT
ATOM      1  C   UNL     1       7.861   7.337  17.908  0.00  0.00    +0.000 C 
ATOM      2  C   UNL     1       6.752   6.599  17.222  0.00  0.00    +0.000 A 
ATOM      3  C   UNL     1       5.462   6.636  17.710  0.00  0.00    +0.000 A 
ATOM      4  C   UNL     1       4.526   5.929  16.990  0.00  0.00    +0.000 A 
ATOM      5  N   UNL     1       4.814   5.183  15.906  0.00  0.00    +0.000 NA
ATOM      6  C   UNL     1       6.094   5.216  15.509  0.00  0.00    +0.000 A 
ATOM      7  N   UNL     1       7.083   5.906  16.111  0.00  0.00    +0.000 NA
ENDROOT
BRANCH   6   8
ATOM      8  C   UNL     1       6.428   4.492  14.311  0.00  0.00    +0.000 C 
ATOM      9  N   UNL     1       6.712   3.915  13.338  0.00  0.00    +0.000 NA
ENDBRANCH   6   8
BRANCH   4  10
ATOM     10  O   UNL     1       3.207   6.025  17.425  0.00  0.00    +0.000 OA
BRANCH  10  11
ATOM     11  C   UNL     1       2.801   5.181  18.440  0.00  0.00    +0.000 A 
ATOM     12  C   UNL     1       2.775   3.788  18.286  0.00  0.00    +0.000 A 
ATOM     13  C   UNL     1       2.394   2.967  19.347  0.00  0.00    +0.000 A 
ATOM     14  C   UNL     1       1.981   3.538  20.547  0.00  0.00    +0.000 A 
ATOM     15 CL   UNL     1       1.524   2.518  21.854  0.00  0.00    +0.000 Cl
ATOM     16  C   UNL     1       1.930   4.923  20.692  0.00  0.00    +0.000 A 
ATOM     17  C   UNL     1       2.338   5.743  19.637  0.00  0.00    +0.000 A 
ATOM     18 CL   UNL     1       2.235   7.455  19.847  0.00  0.00    +0.000 Cl
ENDBRANCH  10  11
ENDBRANCH   4  10
TORSDOF 3
ENDMDL
MODEL 5
REMARK VINA RESULT:      -7.0      1.023      2.511
REMARK  Name = 
REMARK  4 active torsions:
REMARK  status: ('A' for Active; 'I' for Inactive)
REMARK    1  A    between atoms: C_1  and  C_2
REMARK    2  A    between atoms: C_4  and  O_5
REMARK    3  A    between atoms: O_5  and  C_6
REMARK    4  A    between atoms: C_15  and  C_16
REMARK                            x       y       z     vdW  Elec       q    Type
REMARK                         _______ _______ _______ _____ _____    ______ ____
ROOT
ATOM      1  C   UNL     1       6.968   4.624  14.457  0.00  0.00    +0.000 C 
ATOM      2  C   UNL     1       6.892   5.095  15.877  0.00  0.00    +0.000 A 
ATOM      3  C   UNL     1       6.337   4.305  16.862  0.00  0.00    +0.000 A 
ATOM      4  C   UNL     1       6.333   4.837  18.130  0.00  0.00    +0.000 A 
ATOM      5  N   UNL     1       6.775   6.074  18.431  0.00  0.00    +0.000 NA
ATOM      6  C   UNL     1       7.299   6.761  17.406  0.00  0.00    +0.000 A 
ATOM      7  N   UNL     1       7.394   6.322  16.136  0.00  0.00    +0.000 NA
ENDROOT
BRANCH   6   8
ATOM      8  C   UNL     1       7.851   8.058  17.700  0.00  0.00    +0.000 C 
ATOM      9  N   UNL     1       8.293   9.107  17.952  0.00  0.00    +0.000 NA
ENDBRANCH   6   8
BRANCH   4  10
ATOM     10  O   UNL     1       5.850   4.017  19.147  0.00  0.00    +0.000 OA
BRANCH  10  11
ATOM     11  C   UNL     1       4.492   3.770  19.185  0.00  0.00    +0.000 A 
ATOM     12  C   UNL     1       3.557   4.656  18.632  0.00  0.00    +0.000 A 
ATOM     13  C   UNL     1       2.196   4.353  18.657  0.00  0.00    +0.000 A 
ATOM     14  C   UNL     1       1.759   3.191  19.286  0.00  0.00    +0.000 A 
ATOM     15 CL   UNL     1       0.080   2.819  19.302  0.00  0.00    +0.000 Cl
ATOM     16  C   UNL     1       2.669   2.336  19.905  0.00  0.00    +0.000 A 
ATOM     17  C   UNL     1       4.034   2.628  19.855  0.00  0.00    +0.000 A 
ATOM     18 CL   UNL     1       5.128   1.557  20.658  0.00  0.00    +0.000 Cl
ENDBRANCH  10  11
ENDBRANCH   4  10
TORSDOF 3
ENDMDL
MODEL 6
REMARK VINA RESULT:      -7.0      2.274      3.471
REMARK  Name = 
REMARK  4 active torsions:
REMARK  status: ('A' for Active; 'I' for Inactive)
REMARK    1  A    between atoms: C_1  and  C_2
REMARK    2  A    between atoms: C_4  and  O_5
REMARK    3  A    between atoms: O_5  and  C_6
REMARK    4  A    between atoms: C_15  and  C_16
REMARK                            x       y       z     vdW  Elec       q    Type
REMARK                         _______ _______ _______ _____ _____    ______ ____
ROOT
ATOM      1  C   UNL     1       7.126   5.074  14.371  0.00  0.00    +0.000 C 
ATOM      2  C   UNL     1       6.522   5.220  15.735  0.00  0.00    +0.000 A 
ATOM      3  C   UNL     1       5.160   5.357  15.902  0.00  0.00    +0.000 A 
ATOM      4  C   UNL     1       4.721   5.472  17.200  0.00  0.00    +0.000 A 
ATOM      5  N   UNL     1       5.536   5.517  18.271  0.00  0.00    +0.000 NA
ATOM      6  C   UNL     1       6.842   5.372  18.006  0.00  0.00    +0.000 A 
ATOM      7  N   UNL     1       7.378   5.210  16.780  0.00  0.00    +0.000 NA
ENDROOT
BRANCH   6   8
ATOM      8  C   UNL     1       7.741   5.339  19.130  0.00  0.00    +0.000 C 
ATOM      9  N   UNL     1       8.459   5.303  20.048  0.00  0.00    +0.000 NA
ENDBRANCH   6   8
BRANCH   4  10
ATOM     10  O   UNL     1       3.341   5.528  17.387  0.00  0.00    +0.000 OA
BRANCH  10  11
ATOM     11  C   UNL     1       2.804   4.812  18.438  0.00  0.00    +0.000 A 
ATOM     12  C   UNL     1       2.676   3.416  18.403  0.00  0.00    +0.000 A 
ATOM     13  C   UNL     1       2.163   2.726  19.500  0.00  0.00    +0.000 A 
ATOM     14  C   UNL     1       1.721   3.432  20.615  0.00  0.00    +0.000 A 
ATOM     15 CL   UNL     1       1.101   2.572  21.968  0.00  0.00    +0.000 Cl
ATOM     16  C   UNL     1       1.773   4.825  20.637  0.00  0.00    +0.000 A 
ATOM     17  C   UNL     1       2.313   5.513  19.548  0.00  0.00    +0.000 A 
ATOM     18 CL   UNL     1       2.335   7.240  19.602  0.00  0.00    +0.000 Cl
ENDBRANCH  10  11
ENDBRANCH   4  10
TORSDOF 3
ENDMDL
MODEL 7
REMARK VINA RESULT:      -6.9      1.626      2.975
REMARK  Name = 
REMARK  4 active torsions:
REMARK  status: ('A' for Active; 'I' for Inactive)
REMARK    1  A    between atoms: C_1  and  C_2
REMARK    2  A    between atoms: C_4  and  O_5
REMARK    3  A    between atoms: O_5  and  C_6
REMARK    4  A    between atoms: C_15  and  C_16
REMARK                            x       y       z     vdW  Elec       q    Type
REMARK                         _______ _______ _______ _____ _____    ______ ____
ROOT
ATOM      1  C   UNL     1       6.919   4.625  14.588  0.00  0.00    +0.000 C 
ATOM      2  C   UNL     1       6.845   5.145  15.991  0.00  0.00    +0.000 A 
ATOM      3  C   UNL     1       6.260   4.404  16.996  0.00  0.00    +0.000 A 
ATOM      4  C   UNL     1       6.260   4.979  18.246  0.00  0.00    +0.000 A 
ATOM      5  N   UNL     1       6.732   6.213  18.509  0.00  0.00    +0.000 NA
ATOM      6  C   UNL     1       7.283   6.851  17.467  0.00  0.00    +0.000 A 
ATOM      7  N   UNL     1       7.377   6.367  16.213  0.00  0.00    +0.000 NA
ENDROOT
BRANCH   6   8
ATOM      8  C   UNL     1       7.869   8.141  17.722  0.00  0.00    +0.000 C 
ATOM      9  N   UNL     1       8.356   9.180  17.929  0.00  0.00    +0.000 NA
ENDBRANCH   6   8
BRANCH   4  10
ATOM     10  O   UNL     1       5.746   4.207  19.285  0.00  0.00    +0.000 OA
BRANCH  10  11
ATOM     11  C   UNL     1       4.484   3.671  19.126  0.00  0.00    +0.000 A 
ATOM     12  C   UNL     1       4.282   2.324  18.793  0.00  0.00    +0.000 A 
ATOM     13  C   UNL     1       2.991   1.811  18.678  0.00  0.00    +0.000 A 
ATOM     14  C   UNL     1       1.895   2.655  18.839  0.00  0.00    +0.000 A 
ATOM     15 CL   UNL     1       0.307   2.012  18.707  0.00  0.00    +0.000 Cl
ATOM     16  C   UNL     1       2.080   4.012  19.097  0.00  0.00    +0.000 A 
ATOM     17  C   UNL     1       3.374   4.518  19.239  0.00  0.00    +0.000 A 
ATOM     18 CL   UNL     1       3.561   6.211  19.533  0.00  0.00    +0.000 Cl
ENDBRANCH  10  11
ENDBRANCH   4  10
TORSDOF 3
ENDMDL
MODEL 8
REMARK VINA RESULT:      -6.8      3.488      5.891
REMARK  Name = 
REMARK  4 active torsions:
REMARK  status: ('A' for Active; 'I' for Inactive)
REMARK    1  A    between atoms: C_1  and  C_2
REMARK    2  A    between atoms: C_4  and  O_5
REMARK    3  A    between atoms: O_5  and  C_6
REMARK    4  A    between atoms: C_15  and  C_16
REMARK                            x       y       z     vdW  Elec       q    Type
REMARK                         _______ _______ _______ _____ _____    ______ ____
ROOT
ATOM      1  C   UNL     1       1.084   2.909  21.020  0.00  0.00    +0.000 C 
ATOM      2  C   UNL     1       2.085   3.877  20.466  0.00  0.00    +0.000 A 
ATOM      3  C   UNL     1       3.368   3.476  20.154  0.00  0.00    +0.000 A 
ATOM      4  C   UNL     1       4.194   4.449  19.641  0.00  0.00    +0.000 A 
ATOM      5  N   UNL     1       3.838   5.740  19.493  0.00  0.00    +0.000 NA
ATOM      6  C   UNL     1       2.571   6.028  19.821  0.00  0.00    +0.000 A 
ATOM      7  N   UNL     1       1.665   5.148  20.290  0.00  0.00    +0.000 NA
ENDROOT
BRANCH   6   8
ATOM      8  C   UNL     1       2.128   7.381  19.606  0.00  0.00    +0.000 C 
ATOM      9  N   UNL     1       1.776   8.477  19.419  0.00  0.00    +0.000 NA
ENDBRANCH   6   8
BRANCH   4  10
ATOM     10  O   UNL     1       5.465   4.040  19.246  0.00  0.00    +0.000 OA
BRANCH  10  11
ATOM     11  C   UNL     1       5.822   4.232  17.926  0.00  0.00    +0.000 A 
ATOM     12  C   UNL     1       5.109   3.651  16.868  0.00  0.00    +0.000 A 
ATOM     13  C   UNL     1       5.478   3.899  15.547  0.00  0.00    +0.000 A 
ATOM     14  C   UNL     1       6.598   4.682  15.278  0.00  0.00    +0.000 A 
ATOM     15 CL   UNL     1       7.039   4.993  13.646  0.00  0.00    +0.000 Cl
ATOM     16  C   UNL     1       7.361   5.207  16.320  0.00  0.00    +0.000 A 
ATOM     17  C   UNL     1       6.973   4.979  17.642  0.00  0.00    +0.000 A 
ATOM     18 CL   UNL     1       7.961   5.624  18.905  0.00  0.00    +0.000 Cl
ENDBRANCH  10  11
ENDBRANCH   4  10
TORSDOF 3
ENDMDL
MODEL 9
REMARK VINA RESULT:      -6.7      1.941      2.603
REMARK  Name = 
REMARK  4 active torsions:
REMARK  status: ('A' for Active; 'I' for Inactive)
REMARK    1  A    between atoms: C_1  and  C_2
REMARK    2  A    between atoms: C_4  and  O_5
REMARK    3  A    between atoms: O_5  and  C_6
REMARK    4  A    between atoms: C_15  and  C_16
REMARK                            x       y       z     vdW  Elec       q    Type
REMARK                         _______ _______ _______ _____ _____    ______ ____
ROOT
ATOM      1  C   UNL     1       7.634   5.788  18.631  0.00  0.00    +0.000 C 
ATOM      2  C   UNL     1       6.854   5.369  17.422  0.00  0.00    +0.000 A 
ATOM      3  C   UNL     1       5.568   4.880  17.536  0.00  0.00    +0.000 A 
ATOM      4  C   UNL     1       4.948   4.538  16.357  0.00  0.00    +0.000 A 
ATOM      5  N   UNL     1       5.539   4.598  15.148  0.00  0.00    +0.000 NA
ATOM      6  C   UNL     1       6.786   5.089  15.142  0.00  0.00    +0.000 A 
ATOM      7  N   UNL     1       7.473   5.495  16.228  0.00  0.00    +0.000 NA
ENDROOT
BRANCH   6   8
ATOM      8  C   UNL     1       7.425   5.240  13.861  0.00  0.00    +0.000 C 
ATOM      9  N   UNL     1       7.946   5.348  12.824  0.00  0.00    +0.000 NA
ENDBRANCH   6   8
BRANCH   4  10
ATOM     10  O   UNL     1       3.622   4.121  16.452  0.00  0.00    +0.000 OA
BRANCH  10  11
ATOM     11  C   UNL     1       3.160   3.718  17.688  0.00  0.00    +0.000 A 
ATOM     12  C   UNL     1       3.256   2.388  18.123  0.00  0.00    +0.000 A 
ATOM     13  C   UNL     1       2.811   2.027  19.395  0.00  0.00    +0.000 A 
ATOM     14  C   UNL     1       2.217   2.982  20.215  0.00  0.00    +0.000 A 
ATOM     15 CL   UNL     1       1.682   2.531  21.785  0.00  0.00    +0.000 Cl
ATOM     16  C   UNL     1       2.047   4.291  19.770  0.00  0.00    +0.000 A 
ATOM     17  C   UNL     1       2.518   4.657  18.506  0.00  0.00    +0.000 A 
ATOM     18 CL   UNL     1       2.264   6.283  17.980  0.00  0.00    +0.000 Cl
ENDBRANCH  10  11
ENDBRANCH   4  10
TORSDOF 3
ENDMDL
