MODEL 1
REMARK VINA RESULT:      -7.3      0.000      0.000
REMARK  Name = 
REMARK  11 active torsions:
REMARK  status: ('A' for Active; 'I' for Inactive)
REMARK    1  A    between atoms: C_1  and  C_2
REMARK    2  A    between atoms: C_2  and  C_3
REMARK    3  A    between atoms: C_3  and  C_4
REMARK    4  A    between atoms: C_4  and  O_5
REMARK    5  A    between atoms: O_5  and  C_6
REMARK    6  A    between atoms: N_8  and  C_9
REMARK    7  A    between atoms: C_13  and  S_14
REMARK    8  A    between atoms: S_14  and  C_15
REMARK    9  A    between atoms: C_24  and  N_25
REMARK   10  A    between atoms: N_25  and  C_26
REMARK   11  A    between atoms: N_25  and  C_27
REMARK                            x       y       z     vdW  Elec       q    Type
REMARK                         _______ _______ _______ _____ _____    ______ ____
ROOT
ATOM      1  C   UNL     1       4.172   5.452  17.115  0.00  0.00    +0.000 A 
ATOM      2  C   UNL     1       4.116   6.857  16.855  0.00  0.00    +0.000 A 
ATOM      3  C   UNL     1       3.271   7.677  17.612  0.00  0.00    +0.000 A 
ATOM      4  N   UNL     1       2.972   9.036  17.518  0.00  0.00    +0.000 NA
ATOM      5  C   UNL     1       2.086   9.252  18.461  0.00  0.00    +0.000 A 
ATOM      6  N   UNL     1       1.823   8.110  19.172  0.00  0.00    +0.000 N 
ATOM      7  C   UNL     1       2.549   7.080  18.627  0.00  0.00    +0.000 A 
ATOM      8  C   UNL     1       2.627   5.705  18.934  0.00  0.00    +0.000 A 
ATOM      9  C   UNL     1       3.447   4.840  18.177  0.00  0.00    +0.000 A 
ATOM     10  H   UNL     1       1.169   8.049  19.931  0.00  0.00    +0.000 HD
ENDROOT
BRANCH   1  13
ATOM     11  C   UNL     1       6.241   4.477  16.227  0.00  0.00    +0.000 C 
ATOM     12  O   UNL     1       6.982   4.842  17.125  0.00  0.00    +0.000 OA
ATOM     13  N   UNL     1       4.883   4.660  16.181  0.00  0.00    +0.000 N 
ATOM     14  H   UNL     1       4.358   4.051  15.575  0.00  0.00    +0.000 HD
BRANCH  11  15
ATOM     15  O   UNL     1       6.658   3.810  15.114  0.00  0.00    +0.000 OA
BRANCH  15  16
ATOM     16  C   UNL     1       5.722   3.849  14.023  0.00  0.00    +0.000 C 
BRANCH  16  17
ATOM     17  C   UNL     1       6.413   3.629  12.682  0.00  0.00    +0.000 C 
BRANCH  17  19
ATOM     18  C   UNL     1       4.228   3.256  11.448  0.00  0.00    +0.000 C 
ATOM     19  C   UNL     1       5.581   2.677  11.822  0.00  0.00    +0.000 C 
ENDBRANCH  17  19
ENDBRANCH  16  17
ENDBRANCH  15  16
ENDBRANCH  11  15
ENDBRANCH   1  13
BRANCH   9  20
ATOM     20  N   UNL     1       3.558   3.486  18.522  0.00  0.00    +0.000 N 
ATOM     21  C   UNL     1       2.677   2.446  17.987  0.00  0.00    +0.000 C 
ATOM     22  C   UNL     1       4.459   2.998  19.572  0.00  0.00    +0.000 C 
ENDBRANCH   9  20
BRANCH   5  23
ATOM     23  S   UNL     1       1.180  10.670  18.885  0.00  0.00    +0.000 S 
BRANCH  23  24
ATOM     24  C   UNL     1      -0.427  10.088  19.544  0.00  0.00    +0.000 C 
ATOM     25  C   UNL     1      -0.801  10.732  20.883  0.00  0.00    +0.000 C 
ATOM     26  C   UNL     1      -1.131  12.224  20.785  0.00  0.00    +0.000 C 
ATOM     27  C   UNL     1      -2.186  12.540  19.728  0.00  0.00    +0.000 C 
ATOM     28  C   UNL     1      -1.932  11.856  18.388  0.00  0.00    +0.000 C 
ATOM     29  C   UNL     1      -1.559  10.377  18.528  0.00  0.00    +0.000 C 
ENDBRANCH  23  24
ENDBRANCH   5  23
TORSDOF 8
ENDMDL
MODEL 2
REMARK VINA RESULT:      -7.1      1.210      1.803
REMARK  Name = 
REMARK  11 active torsions:
REMARK  status: ('A' for Active; 'I' for Inactive)
REMARK    1  A    between atoms: C_1  and  C_2
REMARK    2  A    between atoms: C_2  and  C_3
REMARK    3  A    between atoms: C_3  and  C_4
REMARK    4  A    between atoms: C_4  and  O_5
REMARK    5  A    between atoms: O_5  and  C_6
REMARK    6  A    between atoms: N_8  and  C_9
REMARK    7  A    between atoms: C_13  and  S_14
REMARK    8  A    between atoms: S_14  and  C_15
REMARK    9  A    between atoms: C_24  and  N_25
REMARK   10  A    between atoms: N_25  and  C_26
REMARK   11  A    between atoms: N_25  and  C_27
REMARK                            x       y       z     vdW  Elec       q    Type
REMARK                         _______ _______ _______ _____ _____    ______ ____
ROOT
ATOM      1  C   UNL     1       3.552   4.835  18.142  0.00  0.00    +0.000 A 
ATOM      2  C   UNL     1       3.337   6.242  18.006  0.00  0.00    +0.000 A 
ATOM      3  C   UNL     1       2.605   6.937  18.976  0.00  0.00    +0.000 A 
ATOM      4  N   UNL     1       2.191   8.268  19.047  0.00  0.00    +0.000 NA
ATOM      5  C   UNL     1       1.504   8.347  20.161  0.00  0.00    +0.000 A 
ATOM      6  N   UNL     1       1.480   7.146  20.822  0.00  0.00    +0.000 N 
ATOM      7  C   UNL     1       2.154   6.219  20.066  0.00  0.00    +0.000 A 
ATOM      8  C   UNL     1       2.398   4.841  20.246  0.00  0.00    +0.000 A 
ATOM      9  C   UNL     1       3.108   4.099  19.278  0.00  0.00    +0.000 A 
ATOM     10  H   UNL     1       1.002   6.982  21.689  0.00  0.00    +0.000 HD
ENDROOT
BRANCH   1  13
ATOM     11  C   UNL     1       5.463   4.032  16.831  0.00  0.00    +0.000 C 
ATOM     12  O   UNL     1       6.336   4.336  17.628  0.00  0.00    +0.000 OA
ATOM     13  N   UNL     1       4.114   4.166  17.027  0.00  0.00    +0.000 N 
ATOM     14  H   UNL     1       3.508   3.599  16.457  0.00  0.00    +0.000 HD
BRANCH  11  15
ATOM     15  O   UNL     1       5.703   3.493  15.602  0.00  0.00    +0.000 OA
BRANCH  15  16
ATOM     16  C   UNL     1       6.607   4.263  14.792  0.00  0.00    +0.000 C 
BRANCH  16  17
ATOM     17  C   UNL     1       5.996   4.606  13.438  0.00  0.00    +0.000 C 
BRANCH  17  19
ATOM     18  C   UNL     1       4.739   3.227  11.719  0.00  0.00    +0.000 C 
ATOM     19  C   UNL     1       6.010   3.369  12.538  0.00  0.00    +0.000 C 
ENDBRANCH  17  19
ENDBRANCH  16  17
ENDBRANCH  15  16
ENDBRANCH  11  15
ENDBRANCH   1  13
BRANCH   9  20
ATOM     20  N   UNL     1       3.390   2.742  19.490  0.00  0.00    +0.000 N 
ATOM     21  C   UNL     1       4.575   2.272  20.212  0.00  0.00    +0.000 C 
ATOM     22  C   UNL     1       2.617   1.658  18.877  0.00  0.00    +0.000 C 
ENDBRANCH   9  20
BRANCH   5  23
ATOM     23  S   UNL     1       0.600   9.651  20.864  0.00  0.00    +0.000 S 
BRANCH  23  24
ATOM     24  C   UNL     1       0.631  11.024  19.652  0.00  0.00    +0.000 C 
ATOM     25  C   UNL     1      -0.202  10.743  18.397  0.00  0.00    +0.000 C 
ATOM     26  C   UNL     1      -1.711  10.705  18.648  0.00  0.00    +0.000 C 
ATOM     27  C   UNL     1      -2.234  11.945  19.368  0.00  0.00    +0.000 C 
ATOM     28  C   UNL     1      -1.398  12.345  20.579  0.00  0.00    +0.000 C 
ATOM     29  C   UNL     1       0.109  12.326  20.305  0.00  0.00    +0.000 C 
ENDBRANCH  23  24
ENDBRANCH   5  23
TORSDOF 8
ENDMDL
MODEL 3
REMARK VINA RESULT:      -7.0      1.281      1.694
REMARK  Name = 
REMARK  11 active torsions:
REMARK  status: ('A' for Active; 'I' for Inactive)
REMARK    1  A    between atoms: C_1  and  C_2
REMARK    2  A    between atoms: C_2  and  C_3
REMARK    3  A    between atoms: C_3  and  C_4
REMARK    4  A    between atoms: C_4  and  O_5
REMARK    5  A    between atoms: O_5  and  C_6
REMARK    6  A    between atoms: N_8  and  C_9
REMARK    7  A    between atoms: C_13  and  S_14
REMARK    8  A    between atoms: S_14  and  C_15
REMARK    9  A    between atoms: C_24  and  N_25
REMARK   10  A    between atoms: N_25  and  C_26
REMARK   11  A    between atoms: N_25  and  C_27
REMARK                            x       y       z     vdW  Elec       q    Type
REMARK                         _______ _______ _______ _____ _____    ______ ____
ROOT
ATOM      1  C   UNL     1       3.657   4.884  18.030  0.00  0.00    +0.000 A 
ATOM      2  C   UNL     1       3.478   6.291  17.853  0.00  0.00    +0.000 A 
ATOM      3  C   UNL     1       2.732   7.026  18.782  0.00  0.00    +0.000 A 
ATOM      4  N   UNL     1       2.346   8.367  18.807  0.00  0.00    +0.000 NA
ATOM      5  C   UNL     1       1.627   8.489  19.898  0.00  0.00    +0.000 A 
ATOM      6  N   UNL     1       1.556   7.305  20.587  0.00  0.00    +0.000 N 
ATOM      7  C   UNL     1       2.232   6.346  19.875  0.00  0.00    +0.000 A 
ATOM      8  C   UNL     1       2.440   4.968  20.097  0.00  0.00    +0.000 A 
ATOM      9  C   UNL     1       3.163   4.187  19.169  0.00  0.00    +0.000 A 
ATOM     10  H   UNL     1       1.048   7.174  21.442  0.00  0.00    +0.000 HD
ENDROOT
BRANCH   1  13
ATOM     11  C   UNL     1       5.591   4.066  16.762  0.00  0.00    +0.000 C 
ATOM     12  O   UNL     1       6.454   4.432  17.544  0.00  0.00    +0.000 OA
ATOM     13  N   UNL     1       4.238   4.176  16.950  0.00  0.00    +0.000 N 
ATOM     14  H   UNL     1       3.648   3.566  16.408  0.00  0.00    +0.000 HD
BRANCH  11  15
ATOM     15  O   UNL     1       5.847   3.474  15.561  0.00  0.00    +0.000 OA
BRANCH  15  16
ATOM     16  C   UNL     1       5.603   4.322  14.427  0.00  0.00    +0.000 C 
BRANCH  16  17
ATOM     17  C   UNL     1       6.288   3.794  13.172  0.00  0.00    +0.000 C 
BRANCH  17  19
ATOM     18  C   UNL     1       5.557   2.077  11.453  0.00  0.00    +0.000 C 
ATOM     19  C   UNL     1       5.235   3.394  12.137  0.00  0.00    +0.000 C 
ENDBRANCH  17  19
ENDBRANCH  16  17
ENDBRANCH  15  16
ENDBRANCH  11  15
ENDBRANCH   1  13
BRANCH   9  20
ATOM     20  N   UNL     1       3.408   2.830  19.424  0.00  0.00    +0.000 N 
ATOM     21  C   UNL     1       4.633   2.341  20.060  0.00  0.00    +0.000 C 
ATOM     22  C   UNL     1       2.539   1.754  18.937  0.00  0.00    +0.000 C 
ENDBRANCH   9  20
BRANCH   5  23
ATOM     23  S   UNL     1       0.731   9.829  20.539  0.00  0.00    +0.000 S 
BRANCH  23  24
ATOM     24  C   UNL     1       0.130  10.794  19.103  0.00  0.00    +0.000 C 
ATOM     25  C   UNL     1      -1.270  11.383  19.312  0.00  0.00    +0.000 C 
ATOM     26  C   UNL     1      -1.326  12.494  20.363  0.00  0.00    +0.000 C 
ATOM     27  C   UNL     1      -0.311  13.607  20.120  0.00  0.00    +0.000 C 
ATOM     28  C   UNL     1       1.093  13.096  19.810  0.00  0.00    +0.000 C 
ATOM     29  C   UNL     1       1.107  11.953  18.790  0.00  0.00    +0.000 C 
ENDBRANCH  23  24
ENDBRANCH   5  23
TORSDOF 8
ENDMDL
MODEL 4
REMARK VINA RESULT:      -6.9      4.018     10.269
REMARK  Name = 
REMARK  11 active torsions:
REMARK  status: ('A' for Active; 'I' for Inactive)
REMARK    1  A    between atoms: C_1  and  C_2
REMARK    2  A    between atoms: C_2  and  C_3
REMARK    3  A    between atoms: C_3  and  C_4
REMARK    4  A    between atoms: C_4  and  O_5
REMARK    5  A    between atoms: O_5  and  C_6
REMARK    6  A    between atoms: N_8  and  C_9
REMARK    7  A    between atoms: C_13  and  S_14
REMARK    8  A    between atoms: S_14  and  C_15
REMARK    9  A    between atoms: C_24  and  N_25
REMARK   10  A    between atoms: N_25  and  C_26
REMARK   11  A    between atoms: N_25  and  C_27
REMARK                            x       y       z     vdW  Elec       q    Type
REMARK                         _______ _______ _______ _____ _____    ______ ____
ROOT
ATOM      1  C   UNL     1       0.384  10.072  20.385  0.00  0.00    +0.000 A 
ATOM      2  C   UNL     1       1.001   8.815  20.672  0.00  0.00    +0.000 A 
ATOM      3  C   UNL     1       1.763   8.167  19.692  0.00  0.00    +0.000 A 
ATOM      4  N   UNL     1       2.395   6.924  19.682  0.00  0.00    +0.000 NA
ATOM      5  C   UNL     1       2.925   6.825  18.486  0.00  0.00    +0.000 A 
ATOM      6  N   UNL     1       2.690   7.952  17.739  0.00  0.00    +0.000 N 
ATOM      7  C   UNL     1       1.921   8.813  18.481  0.00  0.00    +0.000 A 
ATOM      8  C   UNL     1       1.363  10.078  18.194  0.00  0.00    +0.000 A 
ATOM      9  C   UNL     1       0.567  10.750  19.146  0.00  0.00    +0.000 A 
ATOM     10  H   UNL     1       2.997   8.082  16.794  0.00  0.00    +0.000 HD
ENDROOT
BRANCH   1  13
ATOM     11  C   UNL     1      -0.387  10.381  22.693  0.00  0.00    +0.000 C 
ATOM     12  O   UNL     1       0.592   9.909  23.248  0.00  0.00    +0.000 OA
ATOM     13  N   UNL     1      -0.536  10.563  21.343  0.00  0.00    +0.000 N 
ATOM     14  H   UNL     1      -1.223  11.235  21.044  0.00  0.00    +0.000 HD
BRANCH  11  15
ATOM     15  O   UNL     1      -1.503  10.814  23.347  0.00  0.00    +0.000 OA
BRANCH  15  16
ATOM     16  C   UNL     1      -1.843  12.184  23.078  0.00  0.00    +0.000 C 
BRANCH  16  17
ATOM     17  C   UNL     1      -3.351  12.377  22.966  0.00  0.00    +0.000 C 
BRANCH  17  19
ATOM     18  C   UNL     1      -4.093  14.490  24.157  0.00  0.00    +0.000 C 
ATOM     19  C   UNL     1      -3.891  12.989  24.260  0.00  0.00    +0.000 C 
ENDBRANCH  17  19
ENDBRANCH  16  17
ENDBRANCH  15  16
ENDBRANCH  11  15
ENDBRANCH   1  13
BRANCH   9  20
ATOM     20  N   UNL     1       0.061  12.028  18.871  0.00  0.00    +0.000 N 
ATOM     21  C   UNL     1      -1.221  12.257  18.200  0.00  0.00    +0.000 C 
ATOM     22  C   UNL     1       0.832  13.258  19.080  0.00  0.00    +0.000 C 
ENDBRANCH   9  20
BRANCH   5  23
ATOM     23  S   UNL     1       3.773   5.527  17.708  0.00  0.00    +0.000 S 
BRANCH  23  24
ATOM     24  C   UNL     1       5.029   6.299  16.619  0.00  0.00    +0.000 C 
ATOM     25  C   UNL     1       6.291   6.739  17.369  0.00  0.00    +0.000 C 
ATOM     26  C   UNL     1       7.139   5.578  17.895  0.00  0.00    +0.000 C 
ATOM     27  C   UNL     1       7.488   4.551  16.821  0.00  0.00    +0.000 C 
ATOM     28  C   UNL     1       6.295   4.132  15.967  0.00  0.00    +0.000 C 
ATOM     29  C   UNL     1       5.442   5.315  15.498  0.00  0.00    +0.000 C 
ENDBRANCH  23  24
ENDBRANCH   5  23
TORSDOF 8
ENDMDL
MODEL 5
REMARK VINA RESULT:      -6.9      4.270      9.721
REMARK  Name = 
REMARK  11 active torsions:
REMARK  status: ('A' for Active; 'I' for Inactive)
REMARK    1  A    between atoms: C_1  and  C_2
REMARK    2  A    between atoms: C_2  and  C_3
REMARK    3  A    between atoms: C_3  and  C_4
REMARK    4  A    between atoms: C_4  and  O_5
REMARK    5  A    between atoms: O_5  and  C_6
REMARK    6  A    between atoms: N_8  and  C_9
REMARK    7  A    between atoms: C_13  and  S_14
REMARK    8  A    between atoms: S_14  and  C_15
REMARK    9  A    between atoms: C_24  and  N_25
REMARK   10  A    between atoms: N_25  and  C_26
REMARK   11  A    between atoms: N_25  and  C_27
REMARK                            x       y       z     vdW  Elec       q    Type
REMARK                         _______ _______ _______ _____ _____    ______ ____
ROOT
ATOM      1  C   UNL     1       0.434   9.737  20.435  0.00  0.00    +0.000 A 
ATOM      2  C   UNL     1       1.099   8.548  20.867  0.00  0.00    +0.000 A 
ATOM      3  C   UNL     1       1.884   7.816  19.968  0.00  0.00    +0.000 A 
ATOM      4  N   UNL     1       2.563   6.605  20.104  0.00  0.00    +0.000 NA
ATOM      5  C   UNL     1       3.095   6.383  18.925  0.00  0.00    +0.000 A 
ATOM      6  N   UNL     1       2.815   7.401  18.050  0.00  0.00    +0.000 N 
ATOM      7  C   UNL     1       2.015   8.317  18.687  0.00  0.00    +0.000 A 
ATOM      8  C   UNL     1       1.410   9.515  18.253  0.00  0.00    +0.000 A 
ATOM      9  C   UNL     1       0.590  10.267  19.122  0.00  0.00    +0.000 A 
ATOM     10  H   UNL     1       3.116   7.428  17.094  0.00  0.00    +0.000 HD
ENDROOT
BRANCH   1  13
ATOM     11  C   UNL     1      -0.367  10.253  22.695  0.00  0.00    +0.000 C 
ATOM     12  O   UNL     1       0.611   9.849  23.302  0.00  0.00    +0.000 OA
ATOM     13  N   UNL     1      -0.503  10.304  21.332  0.00  0.00    +0.000 N 
ATOM     14  H   UNL     1      -1.194  10.937  20.963  0.00  0.00    +0.000 HD
BRANCH  11  15
ATOM     15  O   UNL     1      -1.495  10.732  23.293  0.00  0.00    +0.000 OA
BRANCH  15  16
ATOM     16  C   UNL     1      -1.714  12.138  23.089  0.00  0.00    +0.000 C 
BRANCH  16  17
ATOM     17  C   UNL     1      -3.200  12.477  23.061  0.00  0.00    +0.000 C 
BRANCH  17  19
ATOM     18  C   UNL     1      -3.844  12.767  20.624  0.00  0.00    +0.000 C 
ATOM     19  C   UNL     1      -3.483  13.462  21.924  0.00  0.00    +0.000 C 
ENDBRANCH  17  19
ENDBRANCH  16  17
ENDBRANCH  15  16
ENDBRANCH  11  15
ENDBRANCH   1  13
BRANCH   9  20
ATOM     20  N   UNL     1       0.035  11.483  18.698  0.00  0.00    +0.000 N 
ATOM     21  C   UNL     1       0.686  12.778  18.905  0.00  0.00    +0.000 C 
ATOM     22  C   UNL     1      -1.321  11.597  18.150  0.00  0.00    +0.000 C 
ENDBRANCH   9  20
BRANCH   5  23
ATOM     23  S   UNL     1       3.991   5.034  18.304  0.00  0.00    +0.000 S 
BRANCH  23  24
ATOM     24  C   UNL     1       2.801   4.000  17.370  0.00  0.00    +0.000 C 
ATOM     25  C   UNL     1       3.196   2.520  17.317  0.00  0.00    +0.000 C 
ATOM     26  C   UNL     1       3.099   1.803  18.666  0.00  0.00    +0.000 C 
ATOM     27  C   UNL     1       1.741   1.968  19.342  0.00  0.00    +0.000 C 
ATOM     28  C   UNL     1       1.234   3.407  19.350  0.00  0.00    +0.000 C 
ATOM     29  C   UNL     1       1.390   4.109  17.997  0.00  0.00    +0.000 C 
ENDBRANCH  23  24
ENDBRANCH   5  23
TORSDOF 8
ENDMDL
MODEL 6
REMARK VINA RESULT:      -6.8      4.375     10.123
REMARK  Name = 
REMARK  11 active torsions:
REMARK  status: ('A' for Active; 'I' for Inactive)
REMARK    1  A    between atoms: C_1  and  C_2
REMARK    2  A    between atoms: C_2  and  C_3
REMARK    3  A    between atoms: C_3  and  C_4
REMARK    4  A    between atoms: C_4  and  O_5
REMARK    5  A    between atoms: O_5  and  C_6
REMARK    6  A    between atoms: N_8  and  C_9
REMARK    7  A    between atoms: C_13  and  S_14
REMARK    8  A    between atoms: S_14  and  C_15
REMARK    9  A    between atoms: C_24  and  N_25
REMARK   10  A    between atoms: N_25  and  C_26
REMARK   11  A    between atoms: N_25  and  C_27
REMARK                            x       y       z     vdW  Elec       q    Type
REMARK                         _______ _______ _______ _____ _____    ______ ____
ROOT
ATOM      1  C   UNL     1       0.307   9.845  20.358  0.00  0.00    +0.000 A 
ATOM      2  C   UNL     1       1.005   8.689  20.826  0.00  0.00    +0.000 A 
ATOM      3  C   UNL     1       1.792   7.939  19.944  0.00  0.00    +0.000 A 
ATOM      4  N   UNL     1       2.501   6.750  20.117  0.00  0.00    +0.000 NA
ATOM      5  C   UNL     1       3.020   6.493  18.940  0.00  0.00    +0.000 A 
ATOM      6  N   UNL     1       2.705   7.469  18.030  0.00  0.00    +0.000 N 
ATOM      7  C   UNL     1       1.893   8.391  18.643  0.00  0.00    +0.000 A 
ATOM      8  C   UNL     1       1.254   9.558  18.172  0.00  0.00    +0.000 A 
ATOM      9  C   UNL     1       0.431  10.326  19.023  0.00  0.00    +0.000 A 
ATOM     10  H   UNL     1       2.990   7.464  17.068  0.00  0.00    +0.000 HD
ENDROOT
BRANCH   1  13
ATOM     11  C   UNL     1      -0.366  11.547  21.991  0.00  0.00    +0.000 C 
ATOM     12  O   UNL     1       0.624  12.254  21.894  0.00  0.00    +0.000 OA
ATOM     13  N   UNL     1      -0.629  10.427  21.247  0.00  0.00    +0.000 N 
ATOM     14  H   UNL     1      -1.589  10.128  21.191  0.00  0.00    +0.000 HD
BRANCH  11  15
ATOM     15  O   UNL     1      -1.385  11.772  22.868  0.00  0.00    +0.000 OA
BRANCH  15  16
ATOM     16  C   UNL     1      -1.489  13.137  23.307  0.00  0.00    +0.000 C 
BRANCH  16  17
ATOM     17  C   UNL     1      -2.884  13.700  23.064  0.00  0.00    +0.000 C 
BRANCH  17  19
ATOM     18  C   UNL     1      -4.369  12.443  24.692  0.00  0.00    +0.000 C 
ATOM     19  C   UNL     1      -3.659  13.749  24.383  0.00  0.00    +0.000 C 
ENDBRANCH  17  19
ENDBRANCH  16  17
ENDBRANCH  15  16
ENDBRANCH  11  15
ENDBRANCH   1  13
BRANCH   9  20
ATOM     20  N   UNL     1      -0.158  11.511  18.560  0.00  0.00    +0.000 N 
ATOM     21  C   UNL     1      -1.496  11.564  17.966  0.00  0.00    +0.000 C 
ATOM     22  C   UNL     1       0.564  12.784  18.475  0.00  0.00    +0.000 C 
ENDBRANCH   9  20
BRANCH   5  23
ATOM     23  S   UNL     1       3.937   5.140  18.358  0.00  0.00    +0.000 S 
BRANCH  23  24
ATOM     24  C   UNL     1       2.775   4.088  17.409  0.00  0.00    +0.000 C 
ATOM     25  C   UNL     1       3.209   2.621  17.335  0.00  0.00    +0.000 C 
ATOM     26  C   UNL     1       3.134   1.881  18.672  0.00  0.00    +0.000 C 
ATOM     27  C   UNL     1       1.772   1.999  19.352  0.00  0.00    +0.000 C 
ATOM     28  C   UNL     1       1.227   3.423  19.381  0.00  0.00    +0.000 C 
ATOM     29  C   UNL     1       1.362   4.149  18.039  0.00  0.00    +0.000 C 
ENDBRANCH  23  24
ENDBRANCH   5  23
TORSDOF 8
ENDMDL
MODEL 7
REMARK VINA RESULT:      -6.8      0.584      1.109
REMARK  Name = 
REMARK  11 active torsions:
REMARK  status: ('A' for Active; 'I' for Inactive)
REMARK    1  A    between atoms: C_1  and  C_2
REMARK    2  A    between atoms: C_2  and  C_3
REMARK    3  A    between atoms: C_3  and  C_4
REMARK    4  A    between atoms: C_4  and  O_5
REMARK    5  A    between atoms: O_5  and  C_6
REMARK    6  A    between atoms: N_8  and  C_9
REMARK    7  A    between atoms: C_13  and  S_14
REMARK    8  A    between atoms: S_14  and  C_15
REMARK    9  A    between atoms: C_24  and  N_25
REMARK   10  A    between atoms: N_25  and  C_26
REMARK   11  A    between atoms: N_25  and  C_27
REMARK                            x       y       z     vdW  Elec       q    Type
REMARK                         _______ _______ _______ _____ _____    ______ ____
ROOT
ATOM      1  C   UNL     1       4.064   5.377  17.156  0.00  0.00    +0.000 A 
ATOM      2  C   UNL     1       3.989   6.779  16.891  0.00  0.00    +0.000 A 
ATOM      3  C   UNL     1       3.192   7.604  17.694  0.00  0.00    +0.000 A 
ATOM      4  N   UNL     1       2.886   8.962  17.611  0.00  0.00    +0.000 NA
ATOM      5  C   UNL     1       2.062   9.183  18.607  0.00  0.00    +0.000 A 
ATOM      6  N   UNL     1       1.846   8.045  19.341  0.00  0.00    +0.000 N 
ATOM      7  C   UNL     1       2.537   7.013  18.757  0.00  0.00    +0.000 A 
ATOM      8  C   UNL     1       2.637   5.640  19.068  0.00  0.00    +0.000 A 
ATOM      9  C   UNL     1       3.408   4.771  18.266  0.00  0.00    +0.000 A 
ATOM     10  H   UNL     1       1.242   7.989  20.140  0.00  0.00    +0.000 HD
ENDROOT
BRANCH   1  13
ATOM     11  C   UNL     1       6.062   4.328  16.194  0.00  0.00    +0.000 C 
ATOM     12  O   UNL     1       6.839   4.630  17.086  0.00  0.00    +0.000 OA
ATOM     13  N   UNL     1       4.715   4.579  16.184  0.00  0.00    +0.000 N 
ATOM     14  H   UNL     1       4.148   4.015  15.573  0.00  0.00    +0.000 HD
BRANCH  11  15
ATOM     15  O   UNL     1       6.422   3.675  15.053  0.00  0.00    +0.000 OA
BRANCH  15  16
ATOM     16  C   UNL     1       6.692   4.545  13.942  0.00  0.00    +0.000 C 
BRANCH  16  17
ATOM     17  C   UNL     1       6.582   3.808  12.612  0.00  0.00    +0.000 C 
BRANCH  17  19
ATOM     18  C   UNL     1       4.392   3.417  11.392  0.00  0.00    +0.000 C 
ATOM     19  C   UNL     1       5.271   3.021  12.564  0.00  0.00    +0.000 C 
ENDBRANCH  17  19
ENDBRANCH  16  17
ENDBRANCH  15  16
ENDBRANCH  11  15
ENDBRANCH   1  13
BRANCH   9  20
ATOM     20  N   UNL     1       3.543   3.419  18.613  0.00  0.00    +0.000 N 
ATOM     21  C   UNL     1       4.559   2.927  19.546  0.00  0.00    +0.000 C 
ATOM     22  C   UNL     1       2.791   2.345  17.957  0.00  0.00    +0.000 C 
ENDBRANCH   9  20
BRANCH   5  23
ATOM     23  S   UNL     1       1.183  10.603  19.078  0.00  0.00    +0.000 S 
BRANCH  23  24
ATOM     24  C   UNL     1      -0.449  10.032  19.684  0.00  0.00    +0.000 C 
ATOM     25  C   UNL     1      -0.438   9.624  21.161  0.00  0.00    +0.000 C 
ATOM     26  C   UNL     1      -0.241  10.794  22.128  0.00  0.00    +0.000 C 
ATOM     27  C   UNL     1      -1.225  11.938  21.899  0.00  0.00    +0.000 C 
ATOM     28  C   UNL     1      -1.363  12.341  20.434  0.00  0.00    +0.000 C 
ATOM     29  C   UNL     1      -1.510  11.143  19.490  0.00  0.00    +0.000 C 
ENDBRANCH  23  24
ENDBRANCH   5  23
TORSDOF 8
ENDMDL
MODEL 8
REMARK VINA RESULT:      -6.8      4.079     10.237
REMARK  Name = 
REMARK  11 active torsions:
REMARK  status: ('A' for Active; 'I' for Inactive)
REMARK    1  A    between atoms: C_1  and  C_2
REMARK    2  A    between atoms: C_2  and  C_3
REMARK    3  A    between atoms: C_3  and  C_4
REMARK    4  A    between atoms: C_4  and  O_5
REMARK    5  A    between atoms: O_5  and  C_6
REMARK    6  A    between atoms: N_8  and  C_9
REMARK    7  A    between atoms: C_13  and  S_14
REMARK    8  A    between atoms: S_14  and  C_15
REMARK    9  A    between atoms: C_24  and  N_25
REMARK   10  A    between atoms: N_25  and  C_26
REMARK   11  A    between atoms: N_25  and  C_27
REMARK                            x       y       z     vdW  Elec       q    Type
REMARK                         _______ _______ _______ _____ _____    ______ ____
ROOT
ATOM      1  C   UNL     1       0.182   9.794  20.334  0.00  0.00    +0.000 A 
ATOM      2  C   UNL     1       1.008   8.683  20.690  0.00  0.00    +0.000 A 
ATOM      3  C   UNL     1       1.818   8.073  19.725  0.00  0.00    +0.000 A 
ATOM      4  N   UNL     1       2.643   6.950  19.784  0.00  0.00    +0.000 NA
ATOM      5  C   UNL     1       3.125   6.822  18.571  0.00  0.00    +0.000 A 
ATOM      6  N   UNL     1       2.675   7.821  17.745  0.00  0.00    +0.000 N 
ATOM      7  C   UNL     1       1.812   8.617  18.456  0.00  0.00    +0.000 A 
ATOM      8  C   UNL     1       1.044   9.745  18.095  0.00  0.00    +0.000 A 
ATOM      9  C   UNL     1       0.194  10.371  19.032  0.00  0.00    +0.000 A 
ATOM     10  H   UNL     1       2.913   7.907  16.774  0.00  0.00    +0.000 HD
ENDROOT
BRANCH   1  13
ATOM     11  C   UNL     1      -0.543  11.277  22.148  0.00  0.00    +0.000 C 
ATOM     12  O   UNL     1       0.397  12.053  22.099  0.00  0.00    +0.000 OA
ATOM     13  N   UNL     1      -0.760  10.222  21.301  0.00  0.00    +0.000 N 
ATOM     14  H   UNL     1      -1.701   9.869  21.238  0.00  0.00    +0.000 HD
BRANCH  11  15
ATOM     15  O   UNL     1      -1.546  11.347  23.069  0.00  0.00    +0.000 OA
BRANCH  15  16
ATOM     16  C   UNL     1      -2.368  12.520  22.951  0.00  0.00    +0.000 C 
BRANCH  16  17
ATOM     17  C   UNL     1      -3.571  12.460  23.885  0.00  0.00    +0.000 C 
BRANCH  17  19
ATOM     18  C   UNL     1      -4.808  12.736  21.687  0.00  0.00    +0.000 C 
ATOM     19  C   UNL     1      -4.804  13.026  23.177  0.00  0.00    +0.000 C 
ENDBRANCH  17  19
ENDBRANCH  16  17
ENDBRANCH  15  16
ENDBRANCH  11  15
ENDBRANCH   1  13
BRANCH   9  20
ATOM     20  N   UNL     1      -0.525  11.521  18.679  0.00  0.00    +0.000 N 
ATOM     21  C   UNL     1       0.033  12.873  18.757  0.00  0.00    +0.000 C 
ATOM     22  C   UNL     1      -1.954  11.503  18.350  0.00  0.00    +0.000 C 
ENDBRANCH   9  20
BRANCH   5  23
ATOM     23  S   UNL     1       4.136   5.606  17.857  0.00  0.00    +0.000 S 
BRANCH  23  24
ATOM     24  C   UNL     1       5.460   6.490  16.950  0.00  0.00    +0.000 C 
ATOM     25  C   UNL     1       6.870   6.041  17.348  0.00  0.00    +0.000 C 
ATOM     26  C   UNL     1       7.216   4.616  16.910  0.00  0.00    +0.000 C 
ATOM     27  C   UNL     1       6.978   4.367  15.423  0.00  0.00    +0.000 C 
ATOM     28  C   UNL     1       5.627   4.874  14.928  0.00  0.00    +0.000 C 
ATOM     29  C   UNL     1       5.292   6.284  15.425  0.00  0.00    +0.000 C 
ENDBRANCH  23  24
ENDBRANCH   5  23
TORSDOF 8
ENDMDL
MODEL 9
REMARK VINA RESULT:      -6.8      1.103      1.457
REMARK  Name = 
REMARK  11 active torsions:
REMARK  status: ('A' for Active; 'I' for Inactive)
REMARK    1  A    between atoms: C_1  and  C_2
REMARK    2  A    between atoms: C_2  and  C_3
REMARK    3  A    between atoms: C_3  and  C_4
REMARK    4  A    between atoms: C_4  and  O_5
REMARK    5  A    between atoms: O_5  and  C_6
REMARK    6  A    between atoms: N_8  and  C_9
REMARK    7  A    between atoms: C_13  and  S_14
REMARK    8  A    between atoms: S_14  and  C_15
REMARK    9  A    between atoms: C_24  and  N_25
REMARK   10  A    between atoms: N_25  and  C_26
REMARK   11  A    between atoms: N_25  and  C_27
REMARK                            x       y       z     vdW  Elec       q    Type
REMARK                         _______ _______ _______ _____ _____    ______ ____
ROOT
ATOM      1  C   UNL     1       4.415   5.682  17.288  0.00  0.00    +0.000 A 
ATOM      2  C   UNL     1       4.214   7.080  17.071  0.00  0.00    +0.000 A 
ATOM      3  C   UNL     1       3.152   7.743  17.699  0.00  0.00    +0.000 A 
ATOM      4  N   UNL     1       2.692   9.056  17.602  0.00  0.00    +0.000 NA
ATOM      5  C   UNL     1       1.642   9.104  18.387  0.00  0.00    +0.000 A 
ATOM      6  N   UNL     1       1.422   7.899  19.003  0.00  0.00    +0.000 N 
ATOM      7  C   UNL     1       2.360   7.002  18.555  0.00  0.00    +0.000 A 
ATOM      8  C   UNL     1       2.572   5.633  18.824  0.00  0.00    +0.000 A 
ATOM      9  C   UNL     1       3.614   4.924  18.189  0.00  0.00    +0.000 A 
ATOM     10  H   UNL     1       0.667   7.713  19.636  0.00  0.00    +0.000 HD
ENDROOT
BRANCH   1  13
ATOM     11  C   UNL     1       6.717   5.287  16.537  0.00  0.00    +0.000 C 
ATOM     12  O   UNL     1       7.275   5.964  17.385  0.00  0.00    +0.000 OA
ATOM     13  N   UNL     1       5.371   5.041  16.463  0.00  0.00    +0.000 N 
ATOM     14  H   UNL     1       5.080   4.234  15.936  0.00  0.00    +0.000 HD
BRANCH  11  15
ATOM     15  O   UNL     1       7.362   4.654  15.516  0.00  0.00    +0.000 OA
BRANCH  15  16
ATOM     16  C   UNL     1       6.748   4.840  14.231  0.00  0.00    +0.000 C 
BRANCH  16  17
ATOM     17  C   UNL     1       6.088   3.559  13.733  0.00  0.00    +0.000 C 
BRANCH  17  19
ATOM     18  C   UNL     1       4.702   3.239  11.632  0.00  0.00    +0.000 C 
ATOM     19  C   UNL     1       6.075   3.546  12.203  0.00  0.00    +0.000 C 
ENDBRANCH  17  19
ENDBRANCH  16  17
ENDBRANCH  15  16
ENDBRANCH  11  15
ENDBRANCH   1  13
BRANCH   9  20
ATOM     20  N   UNL     1       3.849   3.578  18.502  0.00  0.00    +0.000 N 
ATOM     21  C   UNL     1       3.169   2.467  17.831  0.00  0.00    +0.000 C 
ATOM     22  C   UNL     1       4.674   3.150  19.636  0.00  0.00    +0.000 C 
ENDBRANCH   9  20
BRANCH   5  23
ATOM     23  S   UNL     1       0.496  10.368  18.698  0.00  0.00    +0.000 S 
BRANCH  23  24
ATOM     24  C   UNL     1       1.112  11.287  20.159  0.00  0.00    +0.000 C 
ATOM     25  C   UNL     1       0.478  12.673  20.314  0.00  0.00    +0.000 C 
ATOM     26  C   UNL     1      -1.007  12.640  20.684  0.00  0.00    +0.000 C 
ATOM     27  C   UNL     1      -1.305  11.779  21.908  0.00  0.00    +0.000 C 
ATOM     28  C   UNL     1      -0.628  10.412  21.871  0.00  0.00    +0.000 C 
ATOM     29  C   UNL     1       0.843  10.478  21.451  0.00  0.00    +0.000 C 
ENDBRANCH  23  24
ENDBRANCH   5  23
TORSDOF 8
ENDMDL
