MODEL 1
REMARK VINA RESULT:      -8.2      0.000      0.000
REMARK  Name = 
REMARK  7 active torsions:
REMARK  status: ('A' for Active; 'I' for Inactive)
REMARK    1  A    between atoms: C_1  and  O_2
REMARK    2  A    between atoms: O_2  and  C_3
REMARK    3  A    between atoms: C_3  and  C_5
REMARK    4  A    between atoms: C_8  and  N_9
REMARK    5  A    between atoms: C_10  and  C_12
REMARK    6  A    between atoms: C_12  and  C_13
REMARK    7  A    between atoms: C_12  and  N_14
REMARK                            x       y       z     vdW  Elec       q    Type
REMARK                         _______ _______ _______ _____ _____    ______ ____
ROOT
ATOM      1  N   UNL     1       2.686   6.607  19.993  0.00  0.00    +0.000 N 
ATOM      2  C   UNL     1       2.219   5.305  20.200  0.00  0.00    +0.000 C 
ATOM      3  O   UNL     1       1.073   5.034  20.544  0.00  0.00    +0.000 OA
ATOM      4  H   UNL     1       3.652   6.737  19.721  0.00  0.00    +0.000 HD
ENDROOT
BRANCH   1   8
ATOM      5  C   UNL     1       0.330  10.106  20.675  0.00  0.00    +0.000 A 
ATOM      6  C   UNL     1       0.769   9.791  19.397  0.00  0.00    +0.000 A 
ATOM      7  C   UNL     1       1.543   8.651  19.169  0.00  0.00    +0.000 A 
ATOM      8  C   UNL     1       1.902   7.785  20.209  0.00  0.00    +0.000 A 
ATOM      9  C   UNL     1       1.447   8.094  21.495  0.00  0.00    +0.000 A 
ATOM     10  C   UNL     1       0.679   9.253  21.728  0.00  0.00    +0.000 A 
BRANCH   5  11
ATOM     11  C   UNL     1      -0.515  11.309  20.894  0.00  0.00    +0.000 C 
ATOM     12  O   UNL     1      -1.422  11.656  20.149  0.00  0.00    +0.000 OA
BRANCH  11  14
ATOM     13  C   UNL     1      -1.210  12.242  22.931  0.00  0.00    +0.000 C 
ATOM     14  O   UNL     1      -0.141  11.943  22.035  0.00  0.00    +0.000 OA
ENDBRANCH  11  14
ENDBRANCH   5  11
ENDBRANCH   1   8
BRANCH   2  15
ATOM     15  C   UNL     1       3.219   4.143  20.035  0.00  0.00    +0.000 C 
ATOM     16  C   UNL     1       2.370   2.860  20.103  0.00  0.00    +0.000 C 
BRANCH  15  17
ATOM     17  N   UNL     1       4.026   4.217  18.800  0.00  0.00    +0.000 N 
ATOM     18  C   UNL     1       5.274   4.743  18.803  0.00  0.00    +0.000 C 
ATOM     19  O   UNL     1       5.823   5.376  19.695  0.00  0.00    +0.000 OA
ATOM     20  C   UNL     1       5.847   4.570  17.480  0.00  0.00    +0.000 A 
ATOM     21  C   UNL     1       7.147   4.758  17.057  0.00  0.00    +0.000 A 
ATOM     22  C   UNL     1       7.392   4.649  15.689  0.00  0.00    +0.000 A 
ATOM     23  C   UNL     1       6.327   4.398  14.798  0.00  0.00    +0.000 A 
ATOM     24  C   UNL     1       5.021   4.170  15.269  0.00  0.00    +0.000 A 
ATOM     25  C   UNL     1       4.815   4.226  16.641  0.00  0.00    +0.000 A 
ATOM     26  C   UNL     1       3.626   4.011  17.497  0.00  0.00    +0.000 C 
ATOM     27  O   UNL     1       2.536   3.725  17.058  0.00  0.00    +0.000 OA
ENDBRANCH  15  17
ENDBRANCH   2  15
TORSDOF 5
ENDMDL
MODEL 2
REMARK VINA RESULT:      -8.2      0.506      1.135
REMARK  Name = 
REMARK  7 active torsions:
REMARK  status: ('A' for Active; 'I' for Inactive)
REMARK    1  A    between atoms: C_1  and  O_2
REMARK    2  A    between atoms: O_2  and  C_3
REMARK    3  A    between atoms: C_3  and  C_5
REMARK    4  A    between atoms: C_8  and  N_9
REMARK    5  A    between atoms: C_10  and  C_12
REMARK    6  A    between atoms: C_12  and  C_13
REMARK    7  A    between atoms: C_12  and  N_14
REMARK                            x       y       z     vdW  Elec       q    Type
REMARK                         _______ _______ _______ _____ _____    ______ ____
ROOT
ATOM      1  N   UNL     1       2.688   6.562  19.955  0.00  0.00    +0.000 N 
ATOM      2  C   UNL     1       2.222   5.265  20.197  0.00  0.00    +0.000 C 
ATOM      3  O   UNL     1       1.086   5.004  20.576  0.00  0.00    +0.000 OA
ATOM      4  H   UNL     1       3.646   6.684  19.655  0.00  0.00    +0.000 HD
ENDROOT
BRANCH   1   8
ATOM      5  C   UNL     1       0.391  10.114  20.561  0.00  0.00    +0.000 A 
ATOM      6  C   UNL     1       0.684   9.274  21.627  0.00  0.00    +0.000 A 
ATOM      7  C   UNL     1       1.430   8.110  21.433  0.00  0.00    +0.000 A 
ATOM      8  C   UNL     1       1.913   7.746  20.170  0.00  0.00    +0.000 A 
ATOM      9  C   UNL     1       1.631   8.600  19.099  0.00  0.00    +0.000 A 
ATOM     10  C   UNL     1       0.865   9.767  19.291  0.00  0.00    +0.000 A 
BRANCH   5  11
ATOM     11  C   UNL     1      -0.382  11.363  20.791  0.00  0.00    +0.000 C 
ATOM     12  O   UNL     1      -1.478  11.591  20.297  0.00  0.00    +0.000 OA
BRANCH  11  14
ATOM     13  C   UNL     1       1.088  13.182  20.974  0.00  0.00    +0.000 C 
ATOM     14  O   UNL     1       0.298  12.188  21.627  0.00  0.00    +0.000 OA
ENDBRANCH  11  14
ENDBRANCH   5  11
ENDBRANCH   1   8
BRANCH   2  15
ATOM     15  C   UNL     1       3.215   4.097  20.026  0.00  0.00    +0.000 C 
ATOM     16  C   UNL     1       2.355   2.820  20.078  0.00  0.00    +0.000 C 
BRANCH  15  17
ATOM     17  N   UNL     1       4.028   4.177  18.796  0.00  0.00    +0.000 N 
ATOM     18  C   UNL     1       5.269   4.719  18.804  0.00  0.00    +0.000 C 
ATOM     19  O   UNL     1       5.803   5.363  19.696  0.00  0.00    +0.000 OA
ATOM     20  C   UNL     1       5.852   4.548  17.485  0.00  0.00    +0.000 A 
ATOM     21  C   UNL     1       7.152   4.752  17.069  0.00  0.00    +0.000 A 
ATOM     22  C   UNL     1       7.407   4.639  15.703  0.00  0.00    +0.000 A 
ATOM     23  C   UNL     1       6.351   4.370  14.806  0.00  0.00    +0.000 A 
ATOM     24  C   UNL     1       5.045   4.126  15.271  0.00  0.00    +0.000 A 
ATOM     25  C   UNL     1       4.829   4.186  16.641  0.00  0.00    +0.000 A 
ATOM     26  C   UNL     1       3.639   3.959  17.491  0.00  0.00    +0.000 C 
ATOM     27  O   UNL     1       2.556   3.657  17.047  0.00  0.00    +0.000 OA
ENDBRANCH  15  17
ENDBRANCH   2  15
TORSDOF 5
ENDMDL
MODEL 3
REMARK VINA RESULT:      -8.1      0.614      1.022
REMARK  Name = 
REMARK  7 active torsions:
REMARK  status: ('A' for Active; 'I' for Inactive)
REMARK    1  A    between atoms: C_1  and  O_2
REMARK    2  A    between atoms: O_2  and  C_3
REMARK    3  A    between atoms: C_3  and  C_5
REMARK    4  A    between atoms: C_8  and  N_9
REMARK    5  A    between atoms: C_10  and  C_12
REMARK    6  A    between atoms: C_12  and  C_13
REMARK    7  A    between atoms: C_12  and  N_14
REMARK                            x       y       z     vdW  Elec       q    Type
REMARK                         _______ _______ _______ _____ _____    ______ ____
ROOT
ATOM      1  N   UNL     1       2.667   6.627  19.943  0.00  0.00    +0.000 N 
ATOM      2  C   UNL     1       2.252   5.314  20.186  0.00  0.00    +0.000 C 
ATOM      3  O   UNL     1       1.113   5.006  20.521  0.00  0.00    +0.000 OA
ATOM      4  H   UNL     1       3.631   6.789  19.681  0.00  0.00    +0.000 HD
ENDROOT
BRANCH   1   8
ATOM      5  C   UNL     1       0.150  10.040  20.468  0.00  0.00    +0.000 A 
ATOM      6  C   UNL     1       0.765   9.800  19.247  0.00  0.00    +0.000 A 
ATOM      7  C   UNL     1       1.593   8.689  19.072  0.00  0.00    +0.000 A 
ATOM      8  C   UNL     1       1.831   7.777  20.107  0.00  0.00    +0.000 A 
ATOM      9  C   UNL     1       1.199   8.010  21.333  0.00  0.00    +0.000 A 
ATOM     10  C   UNL     1       0.377   9.140  21.515  0.00  0.00    +0.000 A 
BRANCH   5  11
ATOM     11  C   UNL     1      -0.747  11.214  20.629  0.00  0.00    +0.000 C 
ATOM     12  O   UNL     1      -1.182  11.603  21.705  0.00  0.00    +0.000 OA
BRANCH  11  14
ATOM     13  C   UNL     1      -2.376  11.865  19.070  0.00  0.00    +0.000 C 
ATOM     14  O   UNL     1      -0.995  11.783  19.422  0.00  0.00    +0.000 OA
ENDBRANCH  11  14
ENDBRANCH   5  11
ENDBRANCH   1   8
BRANCH   2  15
ATOM     15  C   UNL     1       3.303   4.190  20.075  0.00  0.00    +0.000 C 
ATOM     16  C   UNL     1       2.510   2.876  20.203  0.00  0.00    +0.000 C 
BRANCH  15  17
ATOM     17  N   UNL     1       4.108   4.243  18.839  0.00  0.00    +0.000 N 
ATOM     18  C   UNL     1       5.342   4.800  18.823  0.00  0.00    +0.000 C 
ATOM     19  O   UNL     1       5.874   5.476  19.693  0.00  0.00    +0.000 OA
ATOM     20  C   UNL     1       5.920   4.596  17.506  0.00  0.00    +0.000 A 
ATOM     21  C   UNL     1       7.216   4.802  17.077  0.00  0.00    +0.000 A 
ATOM     22  C   UNL     1       7.464   4.653  15.714  0.00  0.00    +0.000 A 
ATOM     23  C   UNL     1       6.406   4.345  14.831  0.00  0.00    +0.000 A 
ATOM     24  C   UNL     1       5.106   4.100  15.311  0.00  0.00    +0.000 A 
ATOM     25  C   UNL     1       4.897   4.198  16.680  0.00  0.00    +0.000 A 
ATOM     26  C   UNL     1       3.714   3.982  17.543  0.00  0.00    +0.000 C 
ATOM     27  O   UNL     1       2.632   3.655  17.115  0.00  0.00    +0.000 OA
ENDBRANCH  15  17
ENDBRANCH   2  15
TORSDOF 5
ENDMDL
MODEL 4
REMARK VINA RESULT:      -7.9      0.746      2.235
REMARK  Name = 
REMARK  7 active torsions:
REMARK  status: ('A' for Active; 'I' for Inactive)
REMARK    1  A    between atoms: C_1  and  O_2
REMARK    2  A    between atoms: O_2  and  C_3
REMARK    3  A    between atoms: C_3  and  C_5
REMARK    4  A    between atoms: C_8  and  N_9
REMARK    5  A    between atoms: C_10  and  C_12
REMARK    6  A    between atoms: C_12  and  C_13
REMARK    7  A    between atoms: C_12  and  N_14
REMARK                            x       y       z     vdW  Elec       q    Type
REMARK                         _______ _______ _______ _____ _____    ______ ____
ROOT
ATOM      1  N   UNL     1       2.707   6.711  19.919  0.00  0.00    +0.000 N 
ATOM      2  C   UNL     1       2.335   5.386  20.166  0.00  0.00    +0.000 C 
ATOM      3  O   UNL     1       1.198   5.037  20.466  0.00  0.00    +0.000 OA
ATOM      4  H   UNL     1       3.672   6.909  19.689  0.00  0.00    +0.000 HD
ENDROOT
BRANCH   1   8
ATOM      5  C   UNL     1       0.080  10.067  20.238  0.00  0.00    +0.000 A 
ATOM      6  C   UNL     1       0.286   9.228  21.324  0.00  0.00    +0.000 A 
ATOM      7  C   UNL     1       1.140   8.127  21.224  0.00  0.00    +0.000 A 
ATOM      8  C   UNL     1       1.820   7.829  20.037  0.00  0.00    +0.000 A 
ATOM      9  C   UNL     1       1.625   8.683  18.947  0.00  0.00    +0.000 A 
ATOM     10  C   UNL     1       0.751   9.784  19.043  0.00  0.00    +0.000 A 
BRANCH   5  11
ATOM     11  C   UNL     1      -0.812  11.248  20.371  0.00  0.00    +0.000 C 
ATOM     12  O   UNL     1      -1.192  11.704  21.441  0.00  0.00    +0.000 OA
BRANCH  11  14
ATOM     13  C   UNL     1      -2.519  11.821  18.867  0.00  0.00    +0.000 C 
ATOM     14  O   UNL     1      -1.121  11.742  19.145  0.00  0.00    +0.000 OA
ENDBRANCH  11  14
ENDBRANCH   5  11
ENDBRANCH   1   8
BRANCH   2  15
ATOM     15  C   UNL     1       3.433   4.304  20.109  0.00  0.00    +0.000 C 
ATOM     16  C   UNL     1       2.685   2.959  20.168  0.00  0.00    +0.000 C 
BRANCH  15  17
ATOM     17  N   UNL     1       4.313   4.406  18.927  0.00  0.00    +0.000 N 
ATOM     18  C   UNL     1       3.894   4.015  17.700  0.00  0.00    +0.000 C 
ATOM     19  O   UNL     1       2.888   3.379  17.414  0.00  0.00    +0.000 OA
ATOM     20  C   UNL     1       4.930   4.344  16.736  0.00  0.00    +0.000 A 
ATOM     21  C   UNL     1       4.881   4.324  15.357  0.00  0.00    +0.000 A 
ATOM     22  C   UNL     1       6.074   4.559  14.676  0.00  0.00    +0.000 A 
ATOM     23  C   UNL     1       7.271   4.761  15.395  0.00  0.00    +0.000 A 
ATOM     24  C   UNL     1       7.275   4.816  16.802  0.00  0.00    +0.000 A 
ATOM     25  C   UNL     1       6.063   4.638  17.455  0.00  0.00    +0.000 A 
ATOM     26  C   UNL     1       5.667   4.664  18.880  0.00  0.00    +0.000 C 
ATOM     27  O   UNL     1       6.447   4.865  19.782  0.00  0.00    +0.000 OA
ENDBRANCH  15  17
ENDBRANCH   2  15
TORSDOF 5
ENDMDL
MODEL 5
REMARK VINA RESULT:      -7.8      0.760      1.507
REMARK  Name = 
REMARK  7 active torsions:
REMARK  status: ('A' for Active; 'I' for Inactive)
REMARK    1  A    between atoms: C_1  and  O_2
REMARK    2  A    between atoms: O_2  and  C_3
REMARK    3  A    between atoms: C_3  and  C_5
REMARK    4  A    between atoms: C_8  and  N_9
REMARK    5  A    between atoms: C_10  and  C_12
REMARK    6  A    between atoms: C_12  and  C_13
REMARK    7  A    between atoms: C_12  and  N_14
REMARK                            x       y       z     vdW  Elec       q    Type
REMARK                         _______ _______ _______ _____ _____    ______ ____
ROOT
ATOM      1  N   UNL     1       2.598   6.736  19.745  0.00  0.00    +0.000 N 
ATOM      2  C   UNL     1       2.201   5.455  20.144  0.00  0.00    +0.000 C 
ATOM      3  O   UNL     1       1.087   5.188  20.583  0.00  0.00    +0.000 OA
ATOM      4  H   UNL     1       3.542   6.866  19.405  0.00  0.00    +0.000 HD
ENDROOT
BRANCH   1   8
ATOM      5  C   UNL     1       0.156  10.231  20.024  0.00  0.00    +0.000 A 
ATOM      6  C   UNL     1       0.441   9.479  21.155  0.00  0.00    +0.000 A 
ATOM      7  C   UNL     1       1.234   8.333  21.069  0.00  0.00    +0.000 A 
ATOM      8  C   UNL     1       1.775   7.901  19.851  0.00  0.00    +0.000 A 
ATOM      9  C   UNL     1       1.500   8.667  18.713  0.00  0.00    +0.000 A 
ATOM     10  C   UNL     1       0.686   9.814  18.797  0.00  0.00    +0.000 A 
BRANCH   5  11
ATOM     11  C   UNL     1      -0.669  11.462  20.139  0.00  0.00    +0.000 C 
ATOM     12  O   UNL     1      -0.329  12.461  20.759  0.00  0.00    +0.000 OA
BRANCH  11  14
ATOM     13  C   UNL     1      -2.028  12.258  18.400  0.00  0.00    +0.000 C 
ATOM     14  O   UNL     1      -1.830  11.313  19.452  0.00  0.00    +0.000 OA
ENDBRANCH  11  14
ENDBRANCH   5  11
ENDBRANCH   1   8
BRANCH   2  15
ATOM     15  C   UNL     1       3.242   4.320  20.074  0.00  0.00    +0.000 C 
ATOM     16  C   UNL     1       2.436   3.016  20.224  0.00  0.00    +0.000 C 
BRANCH  15  17
ATOM     17  N   UNL     1       4.063   4.335  18.847  0.00  0.00    +0.000 N 
ATOM     18  C   UNL     1       5.331   4.812  18.851  0.00  0.00    +0.000 C 
ATOM     19  O   UNL     1       5.894   5.444  19.734  0.00  0.00    +0.000 OA
ATOM     20  C   UNL     1       5.910   4.586  17.538  0.00  0.00    +0.000 A 
ATOM     21  C   UNL     1       7.220   4.715  17.125  0.00  0.00    +0.000 A 
ATOM     22  C   UNL     1       7.474   4.564  15.763  0.00  0.00    +0.000 A 
ATOM     23  C   UNL     1       6.409   4.334  14.866  0.00  0.00    +0.000 A 
ATOM     24  C   UNL     1       5.091   4.167  15.329  0.00  0.00    +0.000 A 
ATOM     25  C   UNL     1       4.873   4.262  16.696  0.00  0.00    +0.000 A 
ATOM     26  C   UNL     1       3.669   4.113  17.544  0.00  0.00    +0.000 C 
ATOM     27  O   UNL     1       2.573   3.859  17.101  0.00  0.00    +0.000 OA
ENDBRANCH  15  17
ENDBRANCH   2  15
TORSDOF 5
ENDMDL
MODEL 6
REMARK VINA RESULT:      -7.7      0.992      2.190
REMARK  Name = 
REMARK  7 active torsions:
REMARK  status: ('A' for Active; 'I' for Inactive)
REMARK    1  A    between atoms: C_1  and  O_2
REMARK    2  A    between atoms: O_2  and  C_3
REMARK    3  A    between atoms: C_3  and  C_5
REMARK    4  A    between atoms: C_8  and  N_9
REMARK    5  A    between atoms: C_10  and  C_12
REMARK    6  A    between atoms: C_12  and  C_13
REMARK    7  A    between atoms: C_12  and  N_14
REMARK                            x       y       z     vdW  Elec       q    Type
REMARK                         _______ _______ _______ _____ _____    ______ ____
ROOT
ATOM      1  N   UNL     1       2.690   7.016  19.699  0.00  0.00    +0.000 N 
ATOM      2  C   UNL     1       2.370   5.718  20.113  0.00  0.00    +0.000 C 
ATOM      3  O   UNL     1       1.250   5.369  20.471  0.00  0.00    +0.000 OA
ATOM      4  H   UNL     1       3.645   7.217  19.431  0.00  0.00    +0.000 HD
ENDROOT
BRANCH   1   8
ATOM      5  C   UNL     1      -0.091  10.260  19.723  0.00  0.00    +0.000 A 
ATOM      6  C   UNL     1       0.553   9.893  18.550  0.00  0.00    +0.000 A 
ATOM      7  C   UNL     1       1.467   8.837  18.537  0.00  0.00    +0.000 A 
ATOM      8  C   UNL     1       1.765   8.107  19.695  0.00  0.00    +0.000 A 
ATOM      9  C   UNL     1       1.104   8.467  20.874  0.00  0.00    +0.000 A 
ATOM     10  C   UNL     1       0.195   9.543  20.890  0.00  0.00    +0.000 A 
BRANCH   5  11
ATOM     11  C   UNL     1      -1.079  11.370  19.711  0.00  0.00    +0.000 C 
ATOM     12  O   UNL     1      -1.549  11.881  20.719  0.00  0.00    +0.000 OA
BRANCH  11  14
ATOM     13  C   UNL     1      -2.745  11.648  18.083  0.00  0.00    +0.000 C 
ATOM     14  O   UNL     1      -1.364  11.731  18.435  0.00  0.00    +0.000 OA
ENDBRANCH  11  14
ENDBRANCH   5  11
ENDBRANCH   1   8
BRANCH   2  15
ATOM     15  C   UNL     1       3.506   4.676  20.169  0.00  0.00    +0.000 C 
ATOM     16  C   UNL     1       2.808   3.324  20.409  0.00  0.00    +0.000 C 
BRANCH  15  17
ATOM     17  N   UNL     1       4.364   4.660  18.968  0.00  0.00    +0.000 N 
ATOM     18  C   UNL     1       3.889   4.254  17.766  0.00  0.00    +0.000 C 
ATOM     19  O   UNL     1       2.831   3.689  17.527  0.00  0.00    +0.000 OA
ATOM     20  C   UNL     1       4.926   4.460  16.770  0.00  0.00    +0.000 A 
ATOM     21  C   UNL     1       4.845   4.389  15.394  0.00  0.00    +0.000 A 
ATOM     22  C   UNL     1       6.038   4.500  14.682  0.00  0.00    +0.000 A 
ATOM     23  C   UNL     1       7.263   4.636  15.369  0.00  0.00    +0.000 A 
ATOM     24  C   UNL     1       7.302   4.748  16.772  0.00  0.00    +0.000 A 
ATOM     25  C   UNL     1       6.094   4.693  17.455  0.00  0.00    +0.000 A 
ATOM     26  C   UNL     1       5.733   4.808  18.885  0.00  0.00    +0.000 C 
ATOM     27  O   UNL     1       6.546   4.984  19.763  0.00  0.00    +0.000 OA
ENDBRANCH  15  17
ENDBRANCH   2  15
TORSDOF 5
ENDMDL
MODEL 7
REMARK VINA RESULT:      -7.7      0.459      1.747
REMARK  Name = 
REMARK  7 active torsions:
REMARK  status: ('A' for Active; 'I' for Inactive)
REMARK    1  A    between atoms: C_1  and  O_2
REMARK    2  A    between atoms: O_2  and  C_3
REMARK    3  A    between atoms: C_3  and  C_5
REMARK    4  A    between atoms: C_8  and  N_9
REMARK    5  A    between atoms: C_10  and  C_12
REMARK    6  A    between atoms: C_12  and  C_13
REMARK    7  A    between atoms: C_12  and  N_14
REMARK                            x       y       z     vdW  Elec       q    Type
REMARK                         _______ _______ _______ _____ _____    ______ ____
ROOT
ATOM      1  N   UNL     1       2.638   6.896  20.142  0.00  0.00    +0.000 N 
ATOM      2  C   UNL     1       2.231   5.560  20.217  0.00  0.00    +0.000 C 
ATOM      3  O   UNL     1       1.062   5.204  20.326  0.00  0.00    +0.000 OA
ATOM      4  H   UNL     1       3.627   7.097  20.065  0.00  0.00    +0.000 HD
ENDROOT
BRANCH   1   8
ATOM      5  C   UNL     1      -0.037  10.213  20.468  0.00  0.00    +0.000 A 
ATOM      6  C   UNL     1       0.548   9.896  19.249  0.00  0.00    +0.000 A 
ATOM      7  C   UNL     1       1.426   8.816  19.139  0.00  0.00    +0.000 A 
ATOM      8  C   UNL     1       1.749   8.013  20.239  0.00  0.00    +0.000 A 
ATOM      9  C   UNL     1       1.148   8.322  21.464  0.00  0.00    +0.000 A 
ATOM     10  C   UNL     1       0.274   9.422  21.580  0.00  0.00    +0.000 A 
BRANCH   5  11
ATOM     11  C   UNL     1      -0.989  11.350  20.561  0.00  0.00    +0.000 C 
ATOM     12  O   UNL     1      -1.762  11.673  19.669  0.00  0.00    +0.000 OA
BRANCH  11  14
ATOM     13  C   UNL     1      -2.114  12.133  22.465  0.00  0.00    +0.000 C 
ATOM     14  O   UNL     1      -0.879  11.954  21.771  0.00  0.00    +0.000 OA
ENDBRANCH  11  14
ENDBRANCH   5  11
ENDBRANCH   1   8
BRANCH   2  15
ATOM     15  C   UNL     1       3.322   4.470  20.212  0.00  0.00    +0.000 C 
ATOM     16  C   UNL     1       2.565   3.134  20.335  0.00  0.00    +0.000 C 
BRANCH  15  17
ATOM     17  N   UNL     1       4.203   4.509  19.027  0.00  0.00    +0.000 N 
ATOM     18  C   UNL     1       3.756   4.142  17.803  0.00  0.00    +0.000 C 
ATOM     19  O   UNL     1       2.710   3.573  17.522  0.00  0.00    +0.000 OA
ATOM     20  C   UNL     1       4.809   4.399  16.835  0.00  0.00    +0.000 A 
ATOM     21  C   UNL     1       4.755   4.378  15.456  0.00  0.00    +0.000 A 
ATOM     22  C   UNL     1       5.959   4.531  14.772  0.00  0.00    +0.000 A 
ATOM     23  C   UNL     1       7.169   4.657  15.487  0.00  0.00    +0.000 A 
ATOM     24  C   UNL     1       7.180   4.717  16.893  0.00  0.00    +0.000 A 
ATOM     25  C   UNL     1       5.961   4.621  17.550  0.00  0.00    +0.000 A 
ATOM     26  C   UNL     1       5.571   4.678  18.976  0.00  0.00    +0.000 C 
ATOM     27  O   UNL     1       6.365   4.831  19.875  0.00  0.00    +0.000 OA
ENDBRANCH  15  17
ENDBRANCH   2  15
TORSDOF 5
ENDMDL
MODEL 8
REMARK VINA RESULT:      -7.2      1.259      1.596
REMARK  Name = 
REMARK  7 active torsions:
REMARK  status: ('A' for Active; 'I' for Inactive)
REMARK    1  A    between atoms: C_1  and  O_2
REMARK    2  A    between atoms: O_2  and  C_3
REMARK    3  A    between atoms: C_3  and  C_5
REMARK    4  A    between atoms: C_8  and  N_9
REMARK    5  A    between atoms: C_10  and  C_12
REMARK    6  A    between atoms: C_12  and  C_13
REMARK    7  A    between atoms: C_12  and  N_14
REMARK                            x       y       z     vdW  Elec       q    Type
REMARK                         _______ _______ _______ _____ _____    ______ ____
ROOT
ATOM      1  N   UNL     1       2.337   7.303  20.572  0.00  0.00    +0.000 N 
ATOM      2  C   UNL     1       1.942   5.970  20.419  0.00  0.00    +0.000 C 
ATOM      3  O   UNL     1       0.777   5.590  20.464  0.00  0.00    +0.000 OA
ATOM      4  H   UNL     1       3.323   7.524  20.531  0.00  0.00    +0.000 HD
ENDROOT
BRANCH   1   8
ATOM      5  C   UNL     1      -0.342  10.534  21.375  0.00  0.00    +0.000 A 
ATOM      6  C   UNL     1       0.202   9.795  22.416  0.00  0.00    +0.000 A 
ATOM      7  C   UNL     1       1.074   8.735  22.159  0.00  0.00    +0.000 A 
ATOM      8  C   UNL     1       1.436   8.379  20.854  0.00  0.00    +0.000 A 
ATOM      9  C   UNL     1       0.900   9.134  19.805  0.00  0.00    +0.000 A 
ATOM     10  C   UNL     1       0.007  10.193  20.063  0.00  0.00    +0.000 A 
BRANCH   5  11
ATOM     11  C   UNL     1      -1.249  11.675  21.668  0.00  0.00    +0.000 C 
ATOM     12  O   UNL     1      -1.932  12.243  20.826  0.00  0.00    +0.000 OA
BRANCH  11  14
ATOM     13  C   UNL     1      -1.320  13.364  23.294  0.00  0.00    +0.000 C 
ATOM     14  O   UNL     1      -1.212  11.974  22.992  0.00  0.00    +0.000 OA
ENDBRANCH  11  14
ENDBRANCH   5  11
ENDBRANCH   1   8
BRANCH   2  15
ATOM     15  C   UNL     1       3.043   4.907  20.232  0.00  0.00    +0.000 C 
ATOM     16  C   UNL     1       2.319   3.550  20.312  0.00  0.00    +0.000 C 
BRANCH  15  17
ATOM     17  N   UNL     1       3.816   5.058  18.982  0.00  0.00    +0.000 N 
ATOM     18  C   UNL     1       4.998   4.421  18.802  0.00  0.00    +0.000 C 
ATOM     19  O   UNL     1       5.671   3.831  19.637  0.00  0.00    +0.000 OA
ATOM     20  C   UNL     1       5.452   4.672  17.445  0.00  0.00    +0.000 A 
ATOM     21  C   UNL     1       6.482   4.081  16.743  0.00  0.00    +0.000 A 
ATOM     22  C   UNL     1       6.786   4.615  15.492  0.00  0.00    +0.000 A 
ATOM     23  C   UNL     1       6.080   5.739  15.012  0.00  0.00    +0.000 A 
ATOM     24  C   UNL     1       5.007   6.289  15.738  0.00  0.00    +0.000 A 
ATOM     25  C   UNL     1       4.686   5.702  16.954  0.00  0.00    +0.000 A 
ATOM     26  C   UNL     1       3.631   5.964  17.959  0.00  0.00    +0.000 C 
ATOM     27  O   UNL     1       2.806   6.839  17.841  0.00  0.00    +0.000 OA
ENDBRANCH  15  17
ENDBRANCH   2  15
TORSDOF 5
ENDMDL
MODEL 9
REMARK VINA RESULT:      -7.1      1.137      1.688
REMARK  Name = 
REMARK  7 active torsions:
REMARK  status: ('A' for Active; 'I' for Inactive)
REMARK    1  A    between atoms: C_1  and  O_2
REMARK    2  A    between atoms: O_2  and  C_3
REMARK    3  A    between atoms: C_3  and  C_5
REMARK    4  A    between atoms: C_8  and  N_9
REMARK    5  A    between atoms: C_10  and  C_12
REMARK    6  A    between atoms: C_12  and  C_13
REMARK    7  A    between atoms: C_12  and  N_14
REMARK                            x       y       z     vdW  Elec       q    Type
REMARK                         _______ _______ _______ _____ _____    ______ ____
ROOT
ATOM      1  N   UNL     1       2.282   7.059  20.486  0.00  0.00    +0.000 N 
ATOM      2  C   UNL     1       1.735   5.772  20.464  0.00  0.00    +0.000 C 
ATOM      3  O   UNL     1       0.537   5.534  20.579  0.00  0.00    +0.000 OA
ATOM      4  H   UNL     1       3.285   7.160  20.395  0.00  0.00    +0.000 HD
ENDROOT
BRANCH   1   8
ATOM      5  C   UNL     1      -0.008  10.603  21.160  0.00  0.00    +0.000 A 
ATOM      6  C   UNL     1       0.394  10.257  19.877  0.00  0.00    +0.000 A 
ATOM      7  C   UNL     1       1.146   9.103  19.652  0.00  0.00    +0.000 A 
ATOM      8  C   UNL     1       1.521   8.251  20.699  0.00  0.00    +0.000 A 
ATOM      9  C   UNL     1       1.103   8.591  21.990  0.00  0.00    +0.000 A 
ATOM     10  C   UNL     1       0.358   9.765  22.220  0.00  0.00    +0.000 A 
BRANCH   5  11
ATOM     11  C   UNL     1      -0.830  11.822  21.378  0.00  0.00    +0.000 C 
ATOM     12  O   UNL     1      -1.874  12.060  20.786  0.00  0.00    +0.000 OA
BRANCH  11  14
ATOM     13  C   UNL     1      -1.186  13.330  23.139  0.00  0.00    +0.000 C 
ATOM     14  O   UNL     1      -0.260  12.608  22.327  0.00  0.00    +0.000 OA
ENDBRANCH  11  14
ENDBRANCH   5  11
ENDBRANCH   1   8
BRANCH   2  15
ATOM     15  C   UNL     1       2.702   4.577  20.339  0.00  0.00    +0.000 C 
ATOM     16  C   UNL     1       1.801   3.337  20.182  0.00  0.00    +0.000 C 
BRANCH  15  17
ATOM     17  N   UNL     1       3.675   4.706  19.236  0.00  0.00    +0.000 N 
ATOM     18  C   UNL     1       3.381   5.404  18.113  0.00  0.00    +0.000 C 
ATOM     19  O   UNL     1       2.292   5.835  17.757  0.00  0.00    +0.000 OA
ATOM     20  C   UNL     1       4.568   5.447  17.276  0.00  0.00    +0.000 A 
ATOM     21  C   UNL     1       4.816   6.201  16.147  0.00  0.00    +0.000 A 
ATOM     22  C   UNL     1       5.999   5.941  15.458  0.00  0.00    +0.000 A 
ATOM     23  C   UNL     1       6.863   4.915  15.897  0.00  0.00    +0.000 A 
ATOM     24  C   UNL     1       6.597   4.195  17.077  0.00  0.00    +0.000 A 
ATOM     25  C   UNL     1       5.442   4.514  17.778  0.00  0.00    +0.000 A 
ATOM     26  C   UNL     1       4.856   4.020  19.044  0.00  0.00    +0.000 C 
ATOM     27  O   UNL     1       5.369   3.160  19.722  0.00  0.00    +0.000 OA
ENDBRANCH  15  17
ENDBRANCH   2  15
TORSDOF 5
ENDMDL
