MODEL 1
REMARK VINA RESULT:      -7.4      0.000      0.000
REMARK  Name = 
REMARK  4 active torsions:
REMARK  status: ('A' for Active; 'I' for Inactive)
REMARK    1  A    between atoms: O_1  and  C_2
REMARK    2  A    between atoms: C_4  and  S_5
REMARK    3  A    between atoms: C_9  and  C_10
REMARK    4  A    between atoms: C_16  and  C_17
REMARK                            x       y       z     vdW  Elec       q    Type
REMARK                         _______ _______ _______ _____ _____    ______ ____
ROOT
ATOM      1  C   UNL     1       4.045   3.479  18.122  0.00  0.00    +0.000 A 
ATOM      2  N   UNL     1       4.787   3.601  17.026  0.00  0.00    +0.000 NA
ATOM      3  C   UNL     1       4.864   4.844  16.548  0.00  0.00    +0.000 A 
ATOM      4  N   UNL     1       4.266   5.914  17.077  0.00  0.00    +0.000 NA
ATOM      5  C   UNL     1       3.533   5.754  18.172  0.00  0.00    +0.000 A 
ATOM      6  N   UNL     1       2.949   6.844  18.673  0.00  0.00    +0.000 NA
ATOM      7  C   UNL     1       2.204   6.763  19.799  0.00  0.00    +0.000 A 
ATOM      8  C   UNL     1       1.993   5.565  20.454  0.00  0.00    +0.000 A 
ATOM      9  C   UNL     1       2.577   4.402  19.949  0.00  0.00    +0.000 A 
ATOM     10  C   UNL     1       3.374   4.507  18.777  0.00  0.00    +0.000 A 
ENDROOT
BRANCH   7  11
ATOM     11  C   UNL     1       1.591   8.024  20.243  0.00  0.00    +0.000 A 
ATOM     12  C   UNL     1       1.178   8.389  21.513  0.00  0.00    +0.000 A 
ATOM     13  C   UNL     1       0.701   9.732  21.578  0.00  0.00    +0.000 A 
ATOM     14  C   UNL     1       0.719  10.344  20.345  0.00  0.00    +0.000 A 
ATOM     15  S   UNL     1       1.290   9.299  19.124  0.00  0.00    +0.000 S 
ENDBRANCH   7  11
BRANCH   9  16
ATOM     16  C   UNL     1       2.328   3.097  20.658  0.00  0.00    +0.000 C 
ATOM     17  F   UNL     1       1.536   3.248  21.763  0.00  0.00    +0.000 F 
ATOM     18  F   UNL     1       1.680   2.183  19.888  0.00  0.00    +0.000 F 
ATOM     19  F   UNL     1       3.463   2.510  21.120  0.00  0.00    +0.000 F 
ENDBRANCH   9  16
BRANCH   1  20
ATOM     20  O   UNL     1       3.995   2.200  18.570  0.00  0.00    +0.000 OA
ATOM     21  H   UNL     1       4.681   1.767  18.029  0.00  0.00    +0.000 HD
ENDBRANCH   1  20
BRANCH   3  22
ATOM     22  S   UNL     1       5.848   5.066  15.096  0.00  0.00    +0.000 S 
ATOM     23  H   UNL     1       6.452   6.168  15.560  0.00  0.00    +0.000 HD
ENDBRANCH   3  22
TORSDOF 4
ENDMDL
MODEL 2
REMARK VINA RESULT:      -7.2      1.055      1.055
REMARK  Name = 
REMARK  4 active torsions:
REMARK  status: ('A' for Active; 'I' for Inactive)
REMARK    1  A    between atoms: O_1  and  C_2
REMARK    2  A    between atoms: C_4  and  S_5
REMARK    3  A    between atoms: C_9  and  C_10
REMARK    4  A    between atoms: C_16  and  C_17
REMARK                            x       y       z     vdW  Elec       q    Type
REMARK                         _______ _______ _______ _____ _____    ______ ____
ROOT
ATOM      1  C   UNL     1       4.547   3.313  19.274  0.00  0.00    +0.000 A 
ATOM      2  N   UNL     1       5.630   3.429  18.514  0.00  0.00    +0.000 NA
ATOM      3  C   UNL     1       5.865   4.666  18.072  0.00  0.00    +0.000 A 
ATOM      4  N   UNL     1       5.110   5.735  18.333  0.00  0.00    +0.000 NA
ATOM      5  C   UNL     1       4.035   5.582  19.097  0.00  0.00    +0.000 A 
ATOM      6  N   UNL     1       3.303   6.671  19.335  0.00  0.00    +0.000 NA
ATOM      7  C   UNL     1       2.205   6.598  20.122  0.00  0.00    +0.000 A 
ATOM      8  C   UNL     1       1.782   5.406  20.681  0.00  0.00    +0.000 A 
ATOM      9  C   UNL     1       2.516   4.244  20.439  0.00  0.00    +0.000 A 
ATOM     10  C   UNL     1       3.679   4.342  19.628  0.00  0.00    +0.000 A 
ENDROOT
BRANCH   7  11
ATOM     11  C   UNL     1       1.465   7.856  20.294  0.00  0.00    +0.000 A 
ATOM     12  C   UNL     1       0.740   8.294  21.389  0.00  0.00    +0.000 A 
ATOM     13  C   UNL     1       0.223   9.614  21.221  0.00  0.00    +0.000 A 
ATOM     14  C   UNL     1       0.529  10.133  19.984  0.00  0.00    +0.000 A 
ATOM     15  S   UNL     1       1.415   9.028  19.032  0.00  0.00    +0.000 S 
ENDBRANCH   7  11
BRANCH   9  16
ATOM     16  C   UNL     1       2.039   2.946  21.036  0.00  0.00    +0.000 C 
ATOM     17  F   UNL     1       0.898   3.102  21.774  0.00  0.00    +0.000 F 
ATOM     18  F   UNL     1       1.723   2.010  20.102  0.00  0.00    +0.000 F 
ATOM     19  F   UNL     1       2.934   2.386  21.890  0.00  0.00    +0.000 F 
ENDBRANCH   9  16
BRANCH   1  20
ATOM     20  O   UNL     1       4.348   2.040  19.698  0.00  0.00    +0.000 OA
ATOM     21  H   UNL     1       4.523   1.526  18.888  0.00  0.00    +0.000 HD
ENDBRANCH   1  20
BRANCH   3  22
ATOM     22  S   UNL     1       7.301   4.879  17.064  0.00  0.00    +0.000 S 
ATOM     23  H   UNL     1       7.109   3.741  16.386  0.00  0.00    +0.000 HD
ENDBRANCH   3  22
TORSDOF 4
ENDMDL
MODEL 3
REMARK VINA RESULT:      -7.1      1.139      1.375
REMARK  Name = 
REMARK  4 active torsions:
REMARK  status: ('A' for Active; 'I' for Inactive)
REMARK    1  A    between atoms: O_1  and  C_2
REMARK    2  A    between atoms: C_4  and  S_5
REMARK    3  A    between atoms: C_9  and  C_10
REMARK    4  A    between atoms: C_16  and  C_17
REMARK                            x       y       z     vdW  Elec       q    Type
REMARK                         _______ _______ _______ _____ _____    ______ ____
ROOT
ATOM      1  C   UNL     1       4.292   3.424  17.456  0.00  0.00    +0.000 A 
ATOM      2  N   UNL     1       5.224   3.447  16.509  0.00  0.00    +0.000 NA
ATOM      3  C   UNL     1       5.496   4.662  16.032  0.00  0.00    +0.000 A 
ATOM      4  N   UNL     1       4.913   5.796  16.428  0.00  0.00    +0.000 NA
ATOM      5  C   UNL     1       3.987   5.735  17.377  0.00  0.00    +0.000 A 
ATOM      6  N   UNL     1       3.425   6.886  17.747  0.00  0.00    +0.000 NA
ATOM      7  C   UNL     1       2.488   6.906  18.723  0.00  0.00    +0.000 A 
ATOM      8  C   UNL     1       2.057   5.752  19.350  0.00  0.00    +0.000 A 
ATOM      9  C   UNL     1       2.614   4.528  18.976  0.00  0.00    +0.000 A 
ATOM     10  C   UNL     1       3.612   4.526  17.964  0.00  0.00    +0.000 A 
ENDROOT
BRANCH   7  11
ATOM     11  C   UNL     1       1.923   8.228  19.029  0.00  0.00    +0.000 A 
ATOM     12  C   UNL     1       1.804   9.335  18.205  0.00  0.00    +0.000 A 
ATOM     13  C   UNL     1       1.123  10.422  18.829  0.00  0.00    +0.000 A 
ATOM     14  C   UNL     1       0.780  10.136  20.130  0.00  0.00    +0.000 A 
ATOM     15  S   UNL     1       1.291   8.576  20.594  0.00  0.00    +0.000 S 
ENDBRANCH   7  11
BRANCH   9  16
ATOM     16  C   UNL     1       2.127   3.272  19.651  0.00  0.00    +0.000 C 
ATOM     17  F   UNL     1       1.150   3.524  20.575  0.00  0.00    +0.000 F 
ATOM     18  F   UNL     1       1.568   2.383  18.788  0.00  0.00    +0.000 F 
ATOM     19  F   UNL     1       3.099   2.619  20.338  0.00  0.00    +0.000 F 
ENDBRANCH   9  16
BRANCH   1  20
ATOM     20  O   UNL     1       4.048   2.169  17.909  0.00  0.00    +0.000 OA
ATOM     21  H   UNL     1       4.878   1.955  18.374  0.00  0.00    +0.000 HD
ENDBRANCH   1  20
BRANCH   3  22
ATOM     22  S   UNL     1       6.736   4.752  14.775  0.00  0.00    +0.000 S 
ATOM     23  H   UNL     1       7.265   3.561  15.081  0.00  0.00    +0.000 HD
ENDBRANCH   3  22
TORSDOF 4
ENDMDL
MODEL 4
REMARK VINA RESULT:      -7.1      0.743      1.272
REMARK  Name = 
REMARK  4 active torsions:
REMARK  status: ('A' for Active; 'I' for Inactive)
REMARK    1  A    between atoms: O_1  and  C_2
REMARK    2  A    between atoms: C_4  and  S_5
REMARK    3  A    between atoms: C_9  and  C_10
REMARK    4  A    between atoms: C_16  and  C_17
REMARK                            x       y       z     vdW  Elec       q    Type
REMARK                         _______ _______ _______ _____ _____    ______ ____
ROOT
ATOM      1  C   UNL     1       4.104   3.270  18.098  0.00  0.00    +0.000 A 
ATOM      2  N   UNL     1       4.868   3.273  17.011  0.00  0.00    +0.000 NA
ATOM      3  C   UNL     1       4.989   4.466  16.426  0.00  0.00    +0.000 A 
ATOM      4  N   UNL     1       4.413   5.595  16.846  0.00  0.00    +0.000 NA
ATOM      5  C   UNL     1       3.657   5.553  17.936  0.00  0.00    +0.000 A 
ATOM      6  N   UNL     1       3.096   6.698  18.327  0.00  0.00    +0.000 NA
ATOM      7  C   UNL     1       2.329   6.739  19.440  0.00  0.00    +0.000 A 
ATOM      8  C   UNL     1       2.073   5.610  20.196  0.00  0.00    +0.000 A 
ATOM      9  C   UNL     1       2.632   4.392  19.807  0.00  0.00    +0.000 A 
ATOM     10  C   UNL     1       3.452   4.370  18.647  0.00  0.00    +0.000 A 
ENDROOT
BRANCH   7  11
ATOM     11  C   UNL     1       1.745   8.050  19.758  0.00  0.00    +0.000 A 
ATOM     12  C   UNL     1       1.521   9.127  18.918  0.00  0.00    +0.000 A 
ATOM     13  C   UNL     1       0.856  10.210  19.568  0.00  0.00    +0.000 A 
ATOM     14  C   UNL     1       0.630   9.949  20.900  0.00  0.00    +0.000 A 
ATOM     15  S   UNL     1       1.231   8.420  21.361  0.00  0.00    +0.000 S 
ENDBRANCH   7  11
BRANCH   9  16
ATOM     16  C   UNL     1       2.334   3.161  20.624  0.00  0.00    +0.000 C 
ATOM     17  F   UNL     1       1.704   2.192  19.893  0.00  0.00    +0.000 F 
ATOM     18  F   UNL     1       3.450   2.559  21.113  0.00  0.00    +0.000 F 
ATOM     19  F   UNL     1       1.505   3.401  21.674  0.00  0.00    +0.000 F 
ENDBRANCH   9  16
BRANCH   1  20
ATOM     20  O   UNL     1       4.009   2.037  18.658  0.00  0.00    +0.000 OA
ATOM     21  H   UNL     1       3.045   1.894  18.673  0.00  0.00    +0.000 HD
ENDBRANCH   1  20
BRANCH   3  22
ATOM     22  S   UNL     1       6.003   4.531  14.980  0.00  0.00    +0.000 S 
ATOM     23  H   UNL     1       6.043   3.201  14.834  0.00  0.00    +0.000 HD
ENDBRANCH   3  22
TORSDOF 4
ENDMDL
MODEL 5
REMARK VINA RESULT:      -7.0      1.880      5.486
REMARK  Name = 
REMARK  4 active torsions:
REMARK  status: ('A' for Active; 'I' for Inactive)
REMARK    1  A    between atoms: O_1  and  C_2
REMARK    2  A    between atoms: C_4  and  S_5
REMARK    3  A    between atoms: C_9  and  C_10
REMARK    4  A    between atoms: C_16  and  C_17
REMARK                            x       y       z     vdW  Elec       q    Type
REMARK                         _______ _______ _______ _____ _____    ______ ____
ROOT
ATOM      1  C   UNL     1       1.461   4.833  20.202  0.00  0.00    +0.000 A 
ATOM      2  N   UNL     1       1.149   6.014  20.726  0.00  0.00    +0.000 NA
ATOM      3  C   UNL     1       1.814   7.044  20.201  0.00  0.00    +0.000 A 
ATOM      4  N   UNL     1       2.731   6.960  19.234  0.00  0.00    +0.000 NA
ATOM      5  C   UNL     1       3.017   5.764  18.734  0.00  0.00    +0.000 A 
ATOM      6  N   UNL     1       3.938   5.717  17.771  0.00  0.00    +0.000 NA
ATOM      7  C   UNL     1       4.267   4.537  17.198  0.00  0.00    +0.000 A 
ATOM      8  C   UNL     1       3.696   3.343  17.597  0.00  0.00    +0.000 A 
ATOM      9  C   UNL     1       2.739   3.354  18.613  0.00  0.00    +0.000 A 
ATOM     10  C   UNL     1       2.389   4.604  19.191  0.00  0.00    +0.000 A 
ENDROOT
BRANCH   7  11
ATOM     11  C   UNL     1       5.311   4.605  16.165  0.00  0.00    +0.000 A 
ATOM     12  C   UNL     1       5.237   4.246  14.830  0.00  0.00    +0.000 A 
ATOM     13  C   UNL     1       6.435   4.532  14.110  0.00  0.00    +0.000 A 
ATOM     14  C   UNL     1       7.411   5.059  14.924  0.00  0.00    +0.000 A 
ATOM     15  S   UNL     1       6.887   5.191  16.542  0.00  0.00    +0.000 S 
ENDBRANCH   7  11
BRANCH   9  16
ATOM     16  C   UNL     1       2.134   2.048  19.056  0.00  0.00    +0.000 C 
ATOM     17  F   UNL     1       2.786   0.967  18.527  0.00  0.00    +0.000 F 
ATOM     18  F   UNL     1       2.187   1.861  20.402  0.00  0.00    +0.000 F 
ATOM     19  F   UNL     1       0.840   1.897  18.673  0.00  0.00    +0.000 F 
ENDBRANCH   9  16
BRANCH   1  20
ATOM     20  O   UNL     1       0.761   3.817  20.766  0.00  0.00    +0.000 OA
ATOM     21  H   UNL     1      -0.069   3.834  20.256  0.00  0.00    +0.000 HD
ENDBRANCH   1  20
BRANCH   3  22
ATOM     22  S   UNL     1       1.429   8.641  20.855  0.00  0.00    +0.000 S 
ATOM     23  H   UNL     1       2.533   8.700  21.611  0.00  0.00    +0.000 HD
ENDBRANCH   3  22
TORSDOF 4
ENDMDL
MODEL 6
REMARK VINA RESULT:      -6.8      3.322      4.091
REMARK  Name = 
REMARK  4 active torsions:
REMARK  status: ('A' for Active; 'I' for Inactive)
REMARK    1  A    between atoms: O_1  and  C_2
REMARK    2  A    between atoms: C_4  and  S_5
REMARK    3  A    between atoms: C_9  and  C_10
REMARK    4  A    between atoms: C_16  and  C_17
REMARK                            x       y       z     vdW  Elec       q    Type
REMARK                         _______ _______ _______ _____ _____    ______ ____
ROOT
ATOM      1  C   UNL     1       4.170   3.942  18.585  0.00  0.00    +0.000 A 
ATOM      2  N   UNL     1       3.853   3.022  19.491  0.00  0.00    +0.000 NA
ATOM      3  C   UNL     1       2.960   3.424  20.397  0.00  0.00    +0.000 A 
ATOM      4  N   UNL     1       2.401   4.636  20.445  0.00  0.00    +0.000 NA
ATOM      5  C   UNL     1       2.741   5.529  19.524  0.00  0.00    +0.000 A 
ATOM      6  N   UNL     1       2.165   6.729  19.604  0.00  0.00    +0.000 NA
ATOM      7  C   UNL     1       2.445   7.684  18.689  0.00  0.00    +0.000 A 
ATOM      8  C   UNL     1       3.349   7.475  17.663  0.00  0.00    +0.000 A 
ATOM      9  C   UNL     1       3.982   6.235  17.559  0.00  0.00    +0.000 A 
ATOM     10  C   UNL     1       3.661   5.235  18.516  0.00  0.00    +0.000 A 
ENDROOT
BRANCH   7  11
ATOM     11  C   UNL     1       1.769   8.973  18.892  0.00  0.00    +0.000 A 
ATOM     12  C   UNL     1       1.701  10.063  18.040  0.00  0.00    +0.000 A 
ATOM     13  C   UNL     1       0.881  11.114  18.547  0.00  0.00    +0.000 A 
ATOM     14  C   UNL     1       0.379  10.820  19.794  0.00  0.00    +0.000 A 
ATOM     15  S   UNL     1       0.910   9.297  20.350  0.00  0.00    +0.000 S 
ENDBRANCH   7  11
BRANCH   9  16
ATOM     16  C   UNL     1       4.979   6.019  16.450  0.00  0.00    +0.000 C 
ATOM     17  F   UNL     1       5.007   7.063  15.567  0.00  0.00    +0.000 F 
ATOM     18  F   UNL     1       6.259   5.906  16.894  0.00  0.00    +0.000 F 
ATOM     19  F   UNL     1       4.710   4.925  15.691  0.00  0.00    +0.000 F 
ENDBRANCH   9  16
BRANCH   1  20
ATOM     20  O   UNL     1       5.080   3.489  17.687  0.00  0.00    +0.000 OA
ATOM     21  H   UNL     1       5.913   3.558  18.189  0.00  0.00    +0.000 HD
ENDBRANCH   1  20
BRANCH   3  22
ATOM     22  S   UNL     1       2.494   2.236  21.620  0.00  0.00    +0.000 S 
ATOM     23  H   UNL     1       1.768   3.111  22.327  0.00  0.00    +0.000 HD
ENDBRANCH   3  22
TORSDOF 4
ENDMDL
MODEL 7
REMARK VINA RESULT:      -6.6      4.193      5.038
REMARK  Name = 
REMARK  4 active torsions:
REMARK  status: ('A' for Active; 'I' for Inactive)
REMARK    1  A    between atoms: O_1  and  C_2
REMARK    2  A    between atoms: C_4  and  S_5
REMARK    3  A    between atoms: C_9  and  C_10
REMARK    4  A    between atoms: C_16  and  C_17
REMARK                            x       y       z     vdW  Elec       q    Type
REMARK                         _______ _______ _______ _____ _____    ______ ____
ROOT
ATOM      1  C   UNL     1       6.895   4.820  15.699  0.00  0.00    +0.000 A 
ATOM      2  N   UNL     1       6.713   4.523  14.416  0.00  0.00    +0.000 NA
ATOM      3  C   UNL     1       5.527   3.980  14.138  0.00  0.00    +0.000 A 
ATOM      4  N   UNL     1       4.566   3.726  15.029  0.00  0.00    +0.000 NA
ATOM      5  C   UNL     1       4.782   4.035  16.301  0.00  0.00    +0.000 A 
ATOM      6  N   UNL     1       3.801   3.767  17.164  0.00  0.00    +0.000 NA
ATOM      7  C   UNL     1       3.941   4.073  18.474  0.00  0.00    +0.000 A 
ATOM      8  C   UNL     1       5.097   4.642  18.975  0.00  0.00    +0.000 A 
ATOM      9  C   UNL     1       6.149   4.923  18.102  0.00  0.00    +0.000 A 
ATOM     10  C   UNL     1       5.979   4.614  16.726  0.00  0.00    +0.000 A 
ENDROOT
BRANCH   7  11
ATOM     11  C   UNL     1       2.805   3.709  19.333  0.00  0.00    +0.000 A 
ATOM     12  C   UNL     1       1.458   3.975  19.151  0.00  0.00    +0.000 A 
ATOM     13  C   UNL     1       0.635   3.389  20.159  0.00  0.00    +0.000 A 
ATOM     14  C   UNL     1       1.378   2.729  21.110  0.00  0.00    +0.000 A 
ATOM     15  S   UNL     1       3.051   2.833  20.796  0.00  0.00    +0.000 S 
ENDBRANCH   7  11
BRANCH   9  16
ATOM     16  C   UNL     1       7.412   5.526  18.658  0.00  0.00    +0.000 C 
ATOM     17  F   UNL     1       7.330   5.757  20.004  0.00  0.00    +0.000 F 
ATOM     18  F   UNL     1       8.500   4.725  18.509  0.00  0.00    +0.000 F 
ATOM     19  F   UNL     1       7.716   6.734  18.114  0.00  0.00    +0.000 F 
ENDBRANCH   9  16
BRANCH   1  20
ATOM     20  O   UNL     1       8.113   5.368  15.933  0.00  0.00    +0.000 OA
ATOM     21  H   UNL     1       8.530   5.320  15.053  0.00  0.00    +0.000 HD
ENDBRANCH   1  20
BRANCH   3  22
ATOM     22  S   UNL     1       5.227   3.575  12.444  0.00  0.00    +0.000 S 
ATOM     23  H   UNL     1       5.297   4.847  12.030  0.00  0.00    +0.000 HD
ENDBRANCH   3  22
TORSDOF 4
ENDMDL
