MODEL 1
REMARK VINA RESULT:      -7.0      0.000      0.000
REMARK  Name = 
REMARK  7 active torsions:
REMARK  status: ('A' for Active; 'I' for Inactive)
REMARK    1  A    between atoms: C_1  and  N_2
REMARK    2  A    between atoms: N_2  and  C_3
REMARK    3  A    between atoms: N_2  and  C_4
REMARK    4  A    between atoms: C_4  and  C_5
REMARK    5  A    between atoms: N_7  and  C_8
REMARK    6  A    between atoms: C_8  and  C_9
REMARK    7  A    between atoms: C_11  and  C_12
REMARK                            x       y       z     vdW  Elec       q    Type
REMARK                         _______ _______ _______ _____ _____    ______ ____
ROOT
ATOM      1  C   UNL     1       7.241   4.972  17.567  0.00  0.00    +0.000 C 
ENDROOT
BRANCH   1   4
ATOM      2  C   UNL     1       4.458   4.890  19.210  0.00  0.00    +0.000 C 
ATOM      3  C   UNL     1       5.799   5.653  19.355  0.00  0.00    +0.000 C 
ATOM      4  N   UNL     1       6.452   6.088  18.097  0.00  0.00    +0.000 NA
ATOM      5  C   UNL     1       5.450   6.711  17.214  0.00  0.00    +0.000 C 
ATOM      6  C   UNL     1       3.991   6.193  17.256  0.00  0.00    +0.000 C 
ATOM      7  O   UNL     1       3.533   5.792  18.556  0.00  0.00    +0.000 OA
BRANCH   2   8
ATOM      8  C   UNL     1       4.409   3.504  18.494  0.00  0.00    +0.000 C 
BRANCH   8  10
ATOM      9  C   UNL     1       3.391   2.563  20.508  0.00  0.00    +0.000 C 
ATOM     10  N   UNL     1       3.681   2.365  19.088  0.00  0.00    +0.000 NA
ATOM     11  C   UNL     1       2.404   2.202  18.371  0.00  0.00    +0.000 C 
ENDBRANCH   8  10
ENDBRANCH   2   8
ENDBRANCH   1   4
BRANCH   1  12
ATOM     12  C   UNL     1       7.076   4.595  16.145  0.00  0.00    +0.000 A 
ATOM     13  C   UNL     1       6.365   3.659  15.436  0.00  0.00    +0.000 A 
ATOM     14  C   UNL     1       6.467   4.084  14.080  0.00  0.00    +0.000 A 
ATOM     15  N   UNL     1       7.246   5.173  13.989  0.00  0.00    +0.000 NA
ATOM     16  O   UNL     1       7.630   5.478  15.271  0.00  0.00    +0.000 OA
BRANCH  14  17
ATOM     17  C   UNL     1       5.847   3.512  12.892  0.00  0.00    +0.000 A 
ATOM     18  C   UNL     1       6.477   2.473  12.191  0.00  0.00    +0.000 A 
ATOM     19  C   UNL     1       5.858   1.881  11.087  0.00  0.00    +0.000 A 
ATOM     20  C   UNL     1       4.601   2.323  10.679  0.00  0.00    +0.000 A 
ATOM     21  C   UNL     1       3.973   3.364  11.360  0.00  0.00    +0.000 A 
ATOM     22  C   UNL     1       4.595   3.964  12.458  0.00  0.00    +0.000 A 
ENDBRANCH  14  17
ENDBRANCH   1  12
TORSDOF 5
ENDMDL
MODEL 2
REMARK VINA RESULT:      -6.9      4.448      7.516
REMARK  Name = 
REMARK  7 active torsions:
REMARK  status: ('A' for Active; 'I' for Inactive)
REMARK    1  A    between atoms: C_1  and  N_2
REMARK    2  A    between atoms: N_2  and  C_3
REMARK    3  A    between atoms: N_2  and  C_4
REMARK    4  A    between atoms: C_4  and  C_5
REMARK    5  A    between atoms: N_7  and  C_8
REMARK    6  A    between atoms: C_8  and  C_9
REMARK    7  A    between atoms: C_11  and  C_12
REMARK                            x       y       z     vdW  Elec       q    Type
REMARK                         _______ _______ _______ _____ _____    ______ ____
ROOT
ATOM      1  C   UNL     1       7.379   6.330  17.519  0.00  0.00    +0.000 C 
ENDROOT
BRANCH   1   4
ATOM      2  C   UNL     1       4.492   5.007  16.909  0.00  0.00    +0.000 C 
ATOM      3  C   UNL     1       5.222   6.305  16.477  0.00  0.00    +0.000 C 
ATOM      4  N   UNL     1       6.680   6.196  16.237  0.00  0.00    +0.000 NA
ATOM      5  C   UNL     1       6.954   5.001  15.419  0.00  0.00    +0.000 C 
ATOM      6  C   UNL     1       6.044   3.759  15.580  0.00  0.00    +0.000 C 
ATOM      7  O   UNL     1       4.662   4.054  15.832  0.00  0.00    +0.000 OA
BRANCH   2   8
ATOM      8  C   UNL     1       4.844   4.315  18.262  0.00  0.00    +0.000 C 
BRANCH   8  10
ATOM      9  C   UNL     1       4.396   2.514  19.854  0.00  0.00    +0.000 C 
ATOM     10  N   UNL     1       3.821   3.576  19.029  0.00  0.00    +0.000 NA
ATOM     11  C   UNL     1       3.123   4.527  19.913  0.00  0.00    +0.000 C 
ENDBRANCH   8  10
ENDBRANCH   2   8
ENDBRANCH   1   4
BRANCH   1  12
ATOM     12  C   UNL     1       7.795   7.679  17.965  0.00  0.00    +0.000 A 
ATOM     13  C   UNL     1       8.668   8.201  18.888  0.00  0.00    +0.000 A 
ATOM     14  C   UNL     1       8.761   9.582  18.551  0.00  0.00    +0.000 A 
ATOM     15  N   UNL     1       7.942   9.869  17.527  0.00  0.00    +0.000 NA
ATOM     16  O   UNL     1       7.337   8.688  17.176  0.00  0.00    +0.000 OA
BRANCH  14  17
ATOM     17  C   UNL     1       9.599  10.615  19.144  0.00  0.00    +0.000 A 
ATOM     18  C   UNL     1      10.556  11.287  18.370  0.00  0.00    +0.000 A 
ATOM     19  C   UNL     1      11.319  12.321  18.920  0.00  0.00    +0.000 A 
ATOM     20  C   UNL     1      11.125  12.693  20.248  0.00  0.00    +0.000 A 
ATOM     21  C   UNL     1      10.186  12.023  21.031  0.00  0.00    +0.000 A 
ATOM     22  C   UNL     1       9.430  10.982  20.485  0.00  0.00    +0.000 A 
ENDBRANCH  14  17
ENDBRANCH   1  12
TORSDOF 5
ENDMDL
MODEL 3
REMARK VINA RESULT:      -6.9      4.416      7.517
REMARK  Name = 
REMARK  7 active torsions:
REMARK  status: ('A' for Active; 'I' for Inactive)
REMARK    1  A    between atoms: C_1  and  N_2
REMARK    2  A    between atoms: N_2  and  C_3
REMARK    3  A    between atoms: N_2  and  C_4
REMARK    4  A    between atoms: C_4  and  C_5
REMARK    5  A    between atoms: N_7  and  C_8
REMARK    6  A    between atoms: C_8  and  C_9
REMARK    7  A    between atoms: C_11  and  C_12
REMARK                            x       y       z     vdW  Elec       q    Type
REMARK                         _______ _______ _______ _____ _____    ______ ____
ROOT
ATOM      1  C   UNL     1       7.304   6.306  17.522  0.00  0.00    +0.000 C 
ENDROOT
BRANCH   1   4
ATOM      2  C   UNL     1       4.538   4.804  16.782  0.00  0.00    +0.000 C 
ATOM      3  C   UNL     1       5.189   6.160  16.407  0.00  0.00    +0.000 C 
ATOM      4  N   UNL     1       6.659   6.158  16.214  0.00  0.00    +0.000 NA
ATOM      5  C   UNL     1       7.042   5.008  15.377  0.00  0.00    +0.000 C 
ATOM      6  C   UNL     1       6.216   3.702  15.477  0.00  0.00    +0.000 C 
ATOM      7  O   UNL     1       4.810   3.894  15.688  0.00  0.00    +0.000 OA
BRANCH   2   8
ATOM      8  C   UNL     1       4.894   4.101  18.128  0.00  0.00    +0.000 C 
BRANCH   8  10
ATOM      9  C   UNL     1       2.618   3.252  18.401  0.00  0.00    +0.000 C 
ATOM     10  N   UNL     1       3.838   3.691  19.076  0.00  0.00    +0.000 NA
ATOM     11  C   UNL     1       4.349   2.573  19.889  0.00  0.00    +0.000 C 
ENDBRANCH   8  10
ENDBRANCH   2   8
ENDBRANCH   1   4
BRANCH   1  12
ATOM     12  C   UNL     1       7.734   7.655  17.957  0.00  0.00    +0.000 A 
ATOM     13  C   UNL     1       8.648   8.177  18.838  0.00  0.00    +0.000 A 
ATOM     14  C   UNL     1       8.715   9.560  18.506  0.00  0.00    +0.000 A 
ATOM     15  N   UNL     1       7.844   9.849  17.527  0.00  0.00    +0.000 NA
ATOM     16  O   UNL     1       7.229   8.666  17.199  0.00  0.00    +0.000 OA
BRANCH  14  17
ATOM     17  C   UNL     1       9.575  10.596  19.064  0.00  0.00    +0.000 A 
ATOM     18  C   UNL     1       9.457  10.968  20.411  0.00  0.00    +0.000 A 
ATOM     19  C   UNL     1      10.321  11.918  20.965  0.00  0.00    +0.000 A 
ATOM     20  C   UNL     1      11.311  12.496  20.175  0.00  0.00    +0.000 A 
ATOM     21  C   UNL     1      11.427  12.144  18.831  0.00  0.00    +0.000 A 
ATOM     22  C   UNL     1      10.558  11.203  18.274  0.00  0.00    +0.000 A 
ENDBRANCH  14  17
ENDBRANCH   1  12
TORSDOF 5
ENDMDL
MODEL 4
REMARK VINA RESULT:      -6.9      4.720      8.746
REMARK  Name = 
REMARK  7 active torsions:
REMARK  status: ('A' for Active; 'I' for Inactive)
REMARK    1  A    between atoms: C_1  and  N_2
REMARK    2  A    between atoms: N_2  and  C_3
REMARK    3  A    between atoms: N_2  and  C_4
REMARK    4  A    between atoms: C_4  and  C_5
REMARK    5  A    between atoms: N_7  and  C_8
REMARK    6  A    between atoms: C_8  and  C_9
REMARK    7  A    between atoms: C_11  and  C_12
REMARK                            x       y       z     vdW  Elec       q    Type
REMARK                         _______ _______ _______ _____ _____    ______ ____
ROOT
ATOM      1  C   UNL     1       3.338   5.776  19.569  0.00  0.00    +0.000 C 
ENDROOT
BRANCH   1   4
ATOM      2  C   UNL     1       3.989   3.018  18.013  0.00  0.00    +0.000 C 
ATOM      3  C   UNL     1       4.018   3.480  19.492  0.00  0.00    +0.000 C 
ATOM      4  N   UNL     1       2.942   4.408  19.916  0.00  0.00    +0.000 NA
ATOM      5  C   UNL     1       1.645   3.914  19.422  0.00  0.00    +0.000 C 
ATOM      6  C   UNL     1       1.599   3.150  18.075  0.00  0.00    +0.000 C 
ATOM      7  O   UNL     1       2.738   2.315  17.819  0.00  0.00    +0.000 OA
BRANCH   2   8
ATOM      8  C   UNL     1       4.177   4.050  16.858  0.00  0.00    +0.000 C 
BRANCH   8  10
ATOM      9  C   UNL     1       6.394   4.205  15.838  0.00  0.00    +0.000 C 
ATOM     10  N   UNL     1       5.422   4.834  16.732  0.00  0.00    +0.000 NA
ATOM     11  C   UNL     1       5.085   6.163  16.191  0.00  0.00    +0.000 C 
ENDBRANCH   8  10
ENDBRANCH   2   8
ENDBRANCH   1   4
BRANCH   1  12
ATOM     12  C   UNL     1       2.381   6.879  19.816  0.00  0.00    +0.000 A 
ATOM     13  C   UNL     1       1.649   7.347  20.878  0.00  0.00    +0.000 A 
ATOM     14  C   UNL     1       1.183   8.625  20.456  0.00  0.00    +0.000 A 
ATOM     15  N   UNL     1       1.567   8.869  19.193  0.00  0.00    +0.000 NA
ATOM     16  O   UNL     1       2.299   7.778  18.797  0.00  0.00    +0.000 OA
BRANCH  14  17
ATOM     17  C   UNL     1       0.415   9.613  21.202  0.00  0.00    +0.000 A 
ATOM     18  C   UNL     1      -0.186   9.273  22.422  0.00  0.00    +0.000 A 
ATOM     19  C   UNL     1      -0.872  10.234  23.171  0.00  0.00    +0.000 A 
ATOM     20  C   UNL     1      -0.956  11.544  22.704  0.00  0.00    +0.000 A 
ATOM     21  C   UNL     1      -0.375  11.889  21.485  0.00  0.00    +0.000 A 
ATOM     22  C   UNL     1       0.303  10.927  20.731  0.00  0.00    +0.000 A 
ENDBRANCH  14  17
ENDBRANCH   1  12
TORSDOF 5
ENDMDL
MODEL 5
REMARK VINA RESULT:      -6.8      0.120      1.037
REMARK  Name = 
REMARK  7 active torsions:
REMARK  status: ('A' for Active; 'I' for Inactive)
REMARK    1  A    between atoms: C_1  and  N_2
REMARK    2  A    between atoms: N_2  and  C_3
REMARK    3  A    between atoms: N_2  and  C_4
REMARK    4  A    between atoms: C_4  and  C_5
REMARK    5  A    between atoms: N_7  and  C_8
REMARK    6  A    between atoms: C_8  and  C_9
REMARK    7  A    between atoms: C_11  and  C_12
REMARK                            x       y       z     vdW  Elec       q    Type
REMARK                         _______ _______ _______ _____ _____    ______ ____
ROOT
ATOM      1  C   UNL     1       7.314   5.020  17.519  0.00  0.00    +0.000 C 
ENDROOT
BRANCH   1   4
ATOM      2  C   UNL     1       4.611   4.860  19.286  0.00  0.00    +0.000 C 
ATOM      3  C   UNL     1       5.925   5.678  19.356  0.00  0.00    +0.000 C 
ATOM      4  N   UNL     1       6.504   6.114  18.063  0.00  0.00    +0.000 NA
ATOM      5  C   UNL     1       5.439   6.679  17.215  0.00  0.00    +0.000 C 
ATOM      6  C   UNL     1       4.006   6.104  17.332  0.00  0.00    +0.000 C 
ATOM      7  O   UNL     1       3.622   5.711  18.657  0.00  0.00    +0.000 OA
BRANCH   2   8
ATOM      8  C   UNL     1       4.587   3.459  18.599  0.00  0.00    +0.000 C 
BRANCH   8  10
ATOM      9  C   UNL     1       3.184   2.654  20.432  0.00  0.00    +0.000 C 
ATOM     10  N   UNL     1       3.704   2.384  19.092  0.00  0.00    +0.000 NA
ATOM     11  C   UNL     1       2.563   2.255  18.168  0.00  0.00    +0.000 C 
ENDBRANCH   8  10
ENDBRANCH   2   8
ENDBRANCH   1   4
BRANCH   1  12
ATOM     12  C   UNL     1       7.111   4.617  16.108  0.00  0.00    +0.000 A 
ATOM     13  C   UNL     1       6.407   3.649  15.437  0.00  0.00    +0.000 A 
ATOM     14  C   UNL     1       6.448   4.058  14.073  0.00  0.00    +0.000 A 
ATOM     15  N   UNL     1       7.188   5.169  13.941  0.00  0.00    +0.000 NA
ATOM     16  O   UNL     1       7.607   5.505  15.204  0.00  0.00    +0.000 OA
BRANCH  14  17
ATOM     17  C   UNL     1       5.807   3.450  12.914  0.00  0.00    +0.000 A 
ATOM     18  C   UNL     1       4.569   3.925  12.456  0.00  0.00    +0.000 A 
ATOM     19  C   UNL     1       3.980   3.386  11.309  0.00  0.00    +0.000 A 
ATOM     20  C   UNL     1       4.629   2.371  10.610  0.00  0.00    +0.000 A 
ATOM     21  C   UNL     1       5.853   1.882  11.065  0.00  0.00    +0.000 A 
ATOM     22  C   UNL     1       6.437   2.413  12.217  0.00  0.00    +0.000 A 
ENDBRANCH  14  17
ENDBRANCH   1  12
TORSDOF 5
ENDMDL
MODEL 6
REMARK VINA RESULT:      -6.8      2.053      3.731
REMARK  Name = 
REMARK  7 active torsions:
REMARK  status: ('A' for Active; 'I' for Inactive)
REMARK    1  A    between atoms: C_1  and  N_2
REMARK    2  A    between atoms: N_2  and  C_3
REMARK    3  A    between atoms: N_2  and  C_4
REMARK    4  A    between atoms: C_4  and  C_5
REMARK    5  A    between atoms: N_7  and  C_8
REMARK    6  A    between atoms: C_8  and  C_9
REMARK    7  A    between atoms: C_11  and  C_12
REMARK                            x       y       z     vdW  Elec       q    Type
REMARK                         _______ _______ _______ _____ _____    ______ ____
ROOT
ATOM      1  C   UNL     1       4.924   3.990  19.235  0.00  0.00    +0.000 C 
ENDROOT
BRANCH   1   4
ATOM      2  C   UNL     1       1.790   4.656  18.796  0.00  0.00    +0.000 C 
ATOM      3  C   UNL     1       2.752   3.533  18.332  0.00  0.00    +0.000 C 
ATOM      4  N   UNL     1       3.771   3.087  19.312  0.00  0.00    +0.000 NA
ATOM      5  C   UNL     1       3.134   2.885  20.625  0.00  0.00    +0.000 C 
ATOM      6  C   UNL     1       1.938   3.786  21.022  0.00  0.00    +0.000 C 
ATOM      7  O   UNL     1       1.066   4.139  19.939  0.00  0.00    +0.000 OA
BRANCH   2   8
ATOM      8  C   UNL     1       2.339   6.075  19.141  0.00  0.00    +0.000 C 
BRANCH   8  10
ATOM      9  C   UNL     1       1.999   8.447  18.656  0.00  0.00    +0.000 C 
ATOM     10  N   UNL     1       2.387   7.142  18.122  0.00  0.00    +0.000 NA
ATOM     11  C   UNL     1       3.768   7.240  17.613  0.00  0.00    +0.000 C 
ENDBRANCH   8  10
ENDBRANCH   2   8
ENDBRANCH   1   4
BRANCH   1  12
ATOM     12  C   UNL     1       5.673   4.082  17.961  0.00  0.00    +0.000 A 
ATOM     13  C   UNL     1       5.462   3.732  16.650  0.00  0.00    +0.000 A 
ATOM     14  C   UNL     1       6.494   4.400  15.931  0.00  0.00    +0.000 A 
ATOM     15  N   UNL     1       7.305   5.054  16.777  0.00  0.00    +0.000 NA
ATOM     16  O   UNL     1       6.798   4.844  18.035  0.00  0.00    +0.000 OA
BRANCH  14  17
ATOM     17  C   UNL     1       6.724   4.451  14.493  0.00  0.00    +0.000 A 
ATOM     18  C   UNL     1       7.660   5.346  13.954  0.00  0.00    +0.000 A 
ATOM     19  C   UNL     1       7.928   5.356  12.582  0.00  0.00    +0.000 A 
ATOM     20  C   UNL     1       7.263   4.466  11.742  0.00  0.00    +0.000 A 
ATOM     21  C   UNL     1       6.321   3.582  12.265  0.00  0.00    +0.000 A 
ATOM     22  C   UNL     1       6.046   3.578  13.635  0.00  0.00    +0.000 A 
ENDBRANCH  14  17
ENDBRANCH   1  12
TORSDOF 5
ENDMDL
MODEL 7
REMARK VINA RESULT:      -6.7      4.444      8.073
REMARK  Name = 
REMARK  7 active torsions:
REMARK  status: ('A' for Active; 'I' for Inactive)
REMARK    1  A    between atoms: C_1  and  N_2
REMARK    2  A    between atoms: N_2  and  C_3
REMARK    3  A    between atoms: N_2  and  C_4
REMARK    4  A    between atoms: C_4  and  C_5
REMARK    5  A    between atoms: N_7  and  C_8
REMARK    6  A    between atoms: C_8  and  C_9
REMARK    7  A    between atoms: C_11  and  C_12
REMARK                            x       y       z     vdW  Elec       q    Type
REMARK                         _______ _______ _______ _____ _____    ______ ____
ROOT
ATOM      1  C   UNL     1       2.904   6.266  18.023  0.00  0.00    +0.000 C 
ENDROOT
BRANCH   1   4
ATOM      2  C   UNL     1       4.734   3.624  18.375  0.00  0.00    +0.000 C 
ATOM      3  C   UNL     1       4.041   4.620  19.339  0.00  0.00    +0.000 C 
ATOM      4  N   UNL     1       2.712   5.127  18.925  0.00  0.00    +0.000 NA
ATOM      5  C   UNL     1       1.882   4.002  18.456  0.00  0.00    +0.000 C 
ATOM      6  C   UNL     1       2.572   2.807  17.753  0.00  0.00    +0.000 C 
ATOM      7  O   UNL     1       3.867   2.470  18.272  0.00  0.00    +0.000 OA
BRANCH   2   8
ATOM      8  C   UNL     1       5.154   4.075  16.941  0.00  0.00    +0.000 C 
BRANCH   8  10
ATOM      9  C   UNL     1       7.424   4.614  17.672  0.00  0.00    +0.000 C 
ATOM     10  N   UNL     1       6.350   4.914  16.726  0.00  0.00    +0.000 NA
ATOM     11  C   UNL     1       6.851   4.672  15.361  0.00  0.00    +0.000 C 
ENDBRANCH   8  10
ENDBRANCH   2   8
ENDBRANCH   1   4
BRANCH   1  12
ATOM     12  C   UNL     1       2.399   7.596  18.436  0.00  0.00    +0.000 A 
ATOM     13  C   UNL     1       2.063   8.773  17.816  0.00  0.00    +0.000 A 
ATOM     14  C   UNL     1       1.370   9.517  18.814  0.00  0.00    +0.000 A 
ATOM     15  N   UNL     1       1.355   8.842  19.974  0.00  0.00    +0.000 NA
ATOM     16  O   UNL     1       2.005   7.657  19.737  0.00  0.00    +0.000 OA
BRANCH  14  17
ATOM     17  C   UNL     1       0.719  10.816  18.703  0.00  0.00    +0.000 A 
ATOM     18  C   UNL     1       1.476  11.996  18.740  0.00  0.00    +0.000 A 
ATOM     19  C   UNL     1       0.862  13.241  18.572  0.00  0.00    +0.000 A 
ATOM     20  C   UNL     1      -0.513  13.311  18.360  0.00  0.00    +0.000 A 
ATOM     21  C   UNL     1      -1.276  12.145  18.335  0.00  0.00    +0.000 A 
ATOM     22  C   UNL     1      -0.665  10.901  18.513  0.00  0.00    +0.000 A 
ENDBRANCH  14  17
ENDBRANCH   1  12
TORSDOF 5
ENDMDL
MODEL 8
REMARK VINA RESULT:      -6.7      2.081      3.703
REMARK  Name = 
REMARK  7 active torsions:
REMARK  status: ('A' for Active; 'I' for Inactive)
REMARK    1  A    between atoms: C_1  and  N_2
REMARK    2  A    between atoms: N_2  and  C_3
REMARK    3  A    between atoms: N_2  and  C_4
REMARK    4  A    between atoms: C_4  and  C_5
REMARK    5  A    between atoms: N_7  and  C_8
REMARK    6  A    between atoms: C_8  and  C_9
REMARK    7  A    between atoms: C_11  and  C_12
REMARK                            x       y       z     vdW  Elec       q    Type
REMARK                         _______ _______ _______ _____ _____    ______ ____
ROOT
ATOM      1  C   UNL     1       4.945   4.229  19.174  0.00  0.00    +0.000 C 
ENDROOT
BRANCH   1   4
ATOM      2  C   UNL     1       1.773   4.768  18.857  0.00  0.00    +0.000 C 
ATOM      3  C   UNL     1       2.761   3.687  18.351  0.00  0.00    +0.000 C 
ATOM      4  N   UNL     1       3.834   3.279  19.289  0.00  0.00    +0.000 NA
ATOM      5  C   UNL     1       3.255   3.047  20.624  0.00  0.00    +0.000 C 
ATOM      6  C   UNL     1       2.039   3.896  21.071  0.00  0.00    +0.000 C 
ATOM      7  O   UNL     1       1.113   4.217  20.023  0.00  0.00    +0.000 OA
BRANCH   2   8
ATOM      8  C   UNL     1       2.275   6.207  19.189  0.00  0.00    +0.000 C 
BRANCH   8  10
ATOM      9  C   UNL     1       1.985   8.582  18.686  0.00  0.00    +0.000 C 
ATOM     10  N   UNL     1       2.311   7.259  18.154  0.00  0.00    +0.000 NA
ATOM     11  C   UNL     1       3.670   7.308  17.584  0.00  0.00    +0.000 C 
ENDBRANCH   8  10
ENDBRANCH   2   8
ENDBRANCH   1   4
BRANCH   1  12
ATOM     12  C   UNL     1       5.703   4.288  17.903  0.00  0.00    +0.000 A 
ATOM     13  C   UNL     1       5.557   3.798  16.629  0.00  0.00    +0.000 A 
ATOM     14  C   UNL     1       6.522   4.509  15.860  0.00  0.00    +0.000 A 
ATOM     15  N   UNL     1       7.238   5.326  16.648  0.00  0.00    +0.000 NA
ATOM     16  O   UNL     1       6.734   5.176  17.915  0.00  0.00    +0.000 OA
BRANCH  14  17
ATOM     17  C   UNL     1       6.772   4.455  14.425  0.00  0.00    +0.000 A 
ATOM     18  C   UNL     1       6.060   3.559  13.613  0.00  0.00    +0.000 A 
ATOM     19  C   UNL     1       6.253   3.546  12.229  0.00  0.00    +0.000 A 
ATOM     20  C   UNL     1       7.156   4.434  11.648  0.00  0.00    +0.000 A 
ATOM     21  C   UNL     1       7.879   5.317  12.447  0.00  0.00    +0.000 A 
ATOM     22  C   UNL     1       7.695   5.324  13.832  0.00  0.00    +0.000 A 
ENDBRANCH  14  17
ENDBRANCH   1  12
TORSDOF 5
ENDMDL
MODEL 9
REMARK VINA RESULT:      -6.7      4.884      8.849
REMARK  Name = 
REMARK  7 active torsions:
REMARK  status: ('A' for Active; 'I' for Inactive)
REMARK    1  A    between atoms: C_1  and  N_2
REMARK    2  A    between atoms: N_2  and  C_3
REMARK    3  A    between atoms: N_2  and  C_4
REMARK    4  A    between atoms: C_4  and  C_5
REMARK    5  A    between atoms: N_7  and  C_8
REMARK    6  A    between atoms: C_8  and  C_9
REMARK    7  A    between atoms: C_11  and  C_12
REMARK                            x       y       z     vdW  Elec       q    Type
REMARK                         _______ _______ _______ _____ _____    ______ ____
ROOT
ATOM      1  C   UNL     1       3.236   6.498  18.833  0.00  0.00    +0.000 C 
ENDROOT
BRANCH   1   4
ATOM      2  C   UNL     1       4.925   3.869  18.007  0.00  0.00    +0.000 C 
ATOM      3  C   UNL     1       4.330   4.425  19.325  0.00  0.00    +0.000 C 
ATOM      4  N   UNL     1       3.016   5.103  19.224  0.00  0.00    +0.000 NA
ATOM      5  C   UNL     1       2.105   4.287  18.402  0.00  0.00    +0.000 C 
ATOM      6  C   UNL     1       2.696   3.443  17.245  0.00  0.00    +0.000 C 
ATOM      7  O   UNL     1       3.990   2.882  17.510  0.00  0.00    +0.000 OA
BRANCH   2   8
ATOM      8  C   UNL     1       5.312   4.834  16.844  0.00  0.00    +0.000 C 
BRANCH   8  10
ATOM      9  C   UNL     1       6.672   6.823  17.256  0.00  0.00    +0.000 C 
ATOM     10  N   UNL     1       6.655   5.443  16.773  0.00  0.00    +0.000 NA
ATOM     11  C   UNL     1       7.574   4.646  17.607  0.00  0.00    +0.000 C 
ENDBRANCH   8  10
ENDBRANCH   2   8
ENDBRANCH   1   4
BRANCH   1  12
ATOM     12  C   UNL     1       2.258   7.523  19.267  0.00  0.00    +0.000 A 
ATOM     13  C   UNL     1       1.547   7.806  20.407  0.00  0.00    +0.000 A 
ATOM     14  C   UNL     1       1.034   9.117  20.192  0.00  0.00    +0.000 A 
ATOM     15  N   UNL     1       1.372   9.556  18.970  0.00  0.00    +0.000 NA
ATOM     16  O   UNL     1       2.120   8.559  18.396  0.00  0.00    +0.000 OA
BRANCH  14  17
ATOM     17  C   UNL     1       0.264   9.960  21.097  0.00  0.00    +0.000 A 
ATOM     18  C   UNL     1      -0.214   9.447  22.312  0.00  0.00    +0.000 A 
ATOM     19  C   UNL     1      -0.900  10.269  23.211  0.00  0.00    +0.000 A 
ATOM     20  C   UNL     1      -1.108  11.611  22.901  0.00  0.00    +0.000 A 
ATOM     21  C   UNL     1      -0.650  12.127  21.690  0.00  0.00    +0.000 A 
ATOM     22  C   UNL     1       0.028  11.304  20.787  0.00  0.00    +0.000 A 
ENDBRANCH  14  17
ENDBRANCH   1  12
TORSDOF 5
ENDMDL
