MODEL 1
REMARK VINA RESULT:     -10.3      0.000      0.000
REMARK  Name = 
REMARK  8 active torsions:
REMARK  status: ('A' for Active; 'I' for Inactive)
REMARK    1  A    between atoms: C_1  and  N_2
REMARK    2  A    between atoms: C_6  and  S_7
REMARK    3  A    between atoms: S_7  and  N_10
REMARK    4  A    between atoms: N_10  and  C_11
REMARK    5  A    between atoms: N_10  and  C_16
REMARK    6  A    between atoms: C_11  and  C_12
REMARK    7  A    between atoms: C_19  and  C_20
REMARK    8  A    between atoms: C_24  and  C_25
REMARK                            x       y       z     vdW  Elec       q    Type
REMARK                         _______ _______ _______ _____ _____    ______ ____
ROOT
ATOM      1  N   UNL     1       0.181   9.976  20.522  0.00  0.00    +0.000 N 
ENDROOT
BRANCH   1   2
ATOM      2  C   UNL     1       1.042   9.023  19.830  0.00  0.00    +0.000 A 
ATOM      3  C   UNL     1       1.383   9.180  18.486  0.00  0.00    +0.000 A 
ATOM      4  C   UNL     1       2.187   8.228  17.842  0.00  0.00    +0.000 A 
ATOM      5  C   UNL     1       2.686   7.092  18.509  0.00  0.00    +0.000 A 
ATOM      6  C   UNL     1       2.324   6.947  19.859  0.00  0.00    +0.000 A 
ATOM      7  C   UNL     1       1.508   7.899  20.512  0.00  0.00    +0.000 A 
BRANCH   5   8
ATOM      8  C   UNL     1       3.540   6.112  17.780  0.00  0.00    +0.000 A 
ATOM      9  C   UNL     1       3.117   4.773  17.631  0.00  0.00    +0.000 A 
ATOM     10  C   UNL     1       3.923   3.799  17.034  0.00  0.00    +0.000 A 
ATOM     11  C   UNL     1       5.178   4.141  16.545  0.00  0.00    +0.000 A 
ATOM     12  C   UNL     1       5.627   5.459  16.654  0.00  0.00    +0.000 A 
ATOM     13  C   UNL     1       4.806   6.438  17.256  0.00  0.00    +0.000 A 
BRANCH  12  14
ATOM     14  C   UNL     1       6.962   5.859  16.126  0.00  0.00    +0.000 C 
ATOM     15  N   UNL     1       7.443   5.178  15.047  0.00  0.00    +0.000 N 
ATOM     16  O   UNL     1       7.619   6.748  16.655  0.00  0.00    +0.000 OA
ATOM     17  H   UNL     1       7.059   4.296  14.737  0.00  0.00    +0.000 HD
ATOM     18  H   UNL     1       8.394   5.399  14.764  0.00  0.00    +0.000 HD
ENDBRANCH  12  14
ENDBRANCH   5   8
ENDBRANCH   1   2
BRANCH   1  19
ATOM     19  S   UNL     1      -0.162  11.382  19.550  0.00  0.00    +0.000 S 
ATOM     20  O   UNL     1       0.926  11.541  18.605  0.00  0.00    +0.000 OA
ATOM     21  O   UNL     1      -0.500  12.438  20.484  0.00  0.00    +0.000 OA
BRANCH  19  27
ATOM     22  C   UNL     1      -6.496  11.533  18.148  0.00  0.00    +0.000 C 
ATOM     23  N   UNL     1      -5.131  11.754  18.600  0.00  0.00    +0.000 N 
ATOM     24  C   UNL     1      -4.798  12.559  19.648  0.00  0.00    +0.000 A 
ATOM     25  C   UNL     1      -3.431  12.498  19.799  0.00  0.00    +0.000 A 
ATOM     26  C   UNL     1      -2.907  11.565  18.853  0.00  0.00    +0.000 A 
ATOM     27  C   UNL     1      -1.620  11.031  18.560  0.00  0.00    +0.000 A 
ATOM     28  C   UNL     1      -1.448  10.329  17.353  0.00  0.00    +0.000 A 
ATOM     29  C   UNL     1      -2.531  10.080  16.507  0.00  0.00    +0.000 A 
ATOM     30  C   UNL     1      -3.826  10.478  16.850  0.00  0.00    +0.000 A 
ATOM     31  C   UNL     1      -3.995  11.218  18.029  0.00  0.00    +0.000 A 
ENDBRANCH  19  27
ENDBRANCH   1  19
BRANCH   1  32
ATOM     32  C   UNL     1       0.621  10.247  21.947  0.00  0.00    +0.000 C 
BRANCH  32  33
ATOM     33  C   UNL     1      -0.340   9.676  22.987  0.00  0.00    +0.000 C 
ATOM     34  F   UNL     1      -0.976   8.562  22.564  0.00  0.00    +0.000 F 
ATOM     35  F   UNL     1       0.317   9.355  24.129  0.00  0.00    +0.000 F 
ATOM     36  F   UNL     1      -1.288  10.585  23.315  0.00  0.00    +0.000 F 
ENDBRANCH  32  33
ENDBRANCH   1  32
TORSDOF 7
ENDMDL
MODEL 2
REMARK VINA RESULT:     -10.0      0.881      1.854
REMARK  Name = 
REMARK  8 active torsions:
REMARK  status: ('A' for Active; 'I' for Inactive)
REMARK    1  A    between atoms: C_1  and  N_2
REMARK    2  A    between atoms: C_6  and  S_7
REMARK    3  A    between atoms: S_7  and  N_10
REMARK    4  A    between atoms: N_10  and  C_11
REMARK    5  A    between atoms: N_10  and  C_16
REMARK    6  A    between atoms: C_11  and  C_12
REMARK    7  A    between atoms: C_19  and  C_20
REMARK    8  A    between atoms: C_24  and  C_25
REMARK                            x       y       z     vdW  Elec       q    Type
REMARK                         _______ _______ _______ _____ _____    ______ ____
ROOT
ATOM      1  N   UNL     1       0.228  10.010  20.557  0.00  0.00    +0.000 N 
ENDROOT
BRANCH   1   2
ATOM      2  C   UNL     1       1.069   9.014  19.902  0.00  0.00    +0.000 A 
ATOM      3  C   UNL     1       1.481   9.155  18.577  0.00  0.00    +0.000 A 
ATOM      4  C   UNL     1       2.263   8.164  17.967  0.00  0.00    +0.000 A 
ATOM      5  C   UNL     1       2.668   7.001  18.651  0.00  0.00    +0.000 A 
ATOM      6  C   UNL     1       2.235   6.873  19.982  0.00  0.00    +0.000 A 
ATOM      7  C   UNL     1       1.441   7.866  20.600  0.00  0.00    +0.000 A 
BRANCH   5   8
ATOM      8  C   UNL     1       3.503   5.978  17.959  0.00  0.00    +0.000 A 
ATOM      9  C   UNL     1       2.951   4.725  17.616  0.00  0.00    +0.000 A 
ATOM     10  C   UNL     1       3.718   3.704  17.047  0.00  0.00    +0.000 A 
ATOM     11  C   UNL     1       5.066   3.913  16.784  0.00  0.00    +0.000 A 
ATOM     12  C   UNL     1       5.647   5.145  17.090  0.00  0.00    +0.000 A 
ATOM     13  C   UNL     1       4.865   6.173  17.662  0.00  0.00    +0.000 A 
BRANCH  12  14
ATOM     14  C   UNL     1       7.088   5.404  16.807  0.00  0.00    +0.000 C 
ATOM     15  N   UNL     1       7.462   6.694  16.571  0.00  0.00    +0.000 N 
ATOM     16  O   UNL     1       7.905   4.492  16.761  0.00  0.00    +0.000 OA
ATOM     17  H   UNL     1       6.801   7.430  16.359  0.00  0.00    +0.000 HD
ATOM     18  H   UNL     1       8.426   6.837  16.284  0.00  0.00    +0.000 HD
ENDBRANCH  12  14
ENDBRANCH   5   8
ENDBRANCH   1   2
BRANCH   1  19
ATOM     19  S   UNL     1      -0.004  11.429  19.571  0.00  0.00    +0.000 S 
ATOM     20  O   UNL     1       0.178  11.039  18.186  0.00  0.00    +0.000 OA
ATOM     21  O   UNL     1       0.815  12.467  20.167  0.00  0.00    +0.000 OA
BRANCH  19  27
ATOM     22  C   UNL     1      -6.131  12.076  17.534  0.00  0.00    +0.000 C 
ATOM     23  N   UNL     1      -4.756  11.692  17.818  0.00  0.00    +0.000 N 
ATOM     24  C   UNL     1      -4.006  10.895  17.005  0.00  0.00    +0.000 A 
ATOM     25  C   UNL     1      -2.760  10.777  17.577  0.00  0.00    +0.000 A 
ATOM     26  C   UNL     1      -2.716  11.589  18.752  0.00  0.00    +0.000 A 
ATOM     27  C   UNL     1      -1.723  11.931  19.714  0.00  0.00    +0.000 A 
ATOM     28  C   UNL     1      -2.136  12.550  20.907  0.00  0.00    +0.000 A 
ATOM     29  C   UNL     1      -3.471  12.907  21.106  0.00  0.00    +0.000 A 
ATOM     30  C   UNL     1      -4.433  12.703  20.112  0.00  0.00    +0.000 A 
ATOM     31  C   UNL     1      -4.036  12.044  18.941  0.00  0.00    +0.000 A 
ENDBRANCH  19  27
ENDBRANCH   1  19
BRANCH   1  32
ATOM     32  C   UNL     1       0.620  10.263  21.999  0.00  0.00    +0.000 C 
BRANCH  32  33
ATOM     33  C   UNL     1      -0.378   9.685  22.999  0.00  0.00    +0.000 C 
ATOM     34  F   UNL     1      -1.334  10.568  23.362  0.00  0.00    +0.000 F 
ATOM     35  F   UNL     1      -1.007   8.601  22.484  0.00  0.00    +0.000 F 
ATOM     36  F   UNL     1       0.251   9.283  24.128  0.00  0.00    +0.000 F 
ENDBRANCH  32  33
ENDBRANCH   1  32
TORSDOF 7
ENDMDL
MODEL 3
REMARK VINA RESULT:      -9.9      2.957      4.316
REMARK  Name = 
REMARK  8 active torsions:
REMARK  status: ('A' for Active; 'I' for Inactive)
REMARK    1  A    between atoms: C_1  and  N_2
REMARK    2  A    between atoms: C_6  and  S_7
REMARK    3  A    between atoms: S_7  and  N_10
REMARK    4  A    between atoms: N_10  and  C_11
REMARK    5  A    between atoms: N_10  and  C_16
REMARK    6  A    between atoms: C_11  and  C_12
REMARK    7  A    between atoms: C_19  and  C_20
REMARK    8  A    between atoms: C_24  and  C_25
REMARK                            x       y       z     vdW  Elec       q    Type
REMARK                         _______ _______ _______ _____ _____    ______ ____
ROOT
ATOM      1  N   UNL     1       0.273  10.278  20.080  0.00  0.00    +0.000 N 
ENDROOT
BRANCH   1   2
ATOM      2  C   UNL     1       1.068   9.191  19.519  0.00  0.00    +0.000 A 
ATOM      3  C   UNL     1       1.466   8.097  20.287  0.00  0.00    +0.000 A 
ATOM      4  C   UNL     1       2.258   7.085  19.725  0.00  0.00    +0.000 A 
ATOM      5  C   UNL     1       2.675   7.119  18.380  0.00  0.00    +0.000 A 
ATOM      6  C   UNL     1       2.272   8.233  17.625  0.00  0.00    +0.000 A 
ATOM      7  C   UNL     1       1.480   9.260  18.188  0.00  0.00    +0.000 A 
BRANCH   5   8
ATOM      8  C   UNL     1       3.513   6.015  17.829  0.00  0.00    +0.000 A 
ATOM      9  C   UNL     1       2.950   4.741  17.604  0.00  0.00    +0.000 A 
ATOM     10  C   UNL     1       3.716   3.654  17.172  0.00  0.00    +0.000 A 
ATOM     11  C   UNL     1       5.074   3.814  16.931  0.00  0.00    +0.000 A 
ATOM     12  C   UNL     1       5.668   5.064  17.123  0.00  0.00    +0.000 A 
ATOM     13  C   UNL     1       4.886   6.158  17.556  0.00  0.00    +0.000 A 
BRANCH  12  14
ATOM     14  C   UNL     1       7.120   5.271  16.859  0.00  0.00    +0.000 C 
ATOM     15  N   UNL     1       7.501   6.468  16.329  0.00  0.00    +0.000 N 
ATOM     16  O   UNL     1       7.943   4.391  17.085  0.00  0.00    +0.000 OA
ATOM     17  H   UNL     1       6.849   7.115  15.905  0.00  0.00    +0.000 HD
ATOM     18  H   UNL     1       8.478   6.553  16.066  0.00  0.00    +0.000 HD
ENDBRANCH  12  14
ENDBRANCH   5   8
ENDBRANCH   1   2
BRANCH   1  19
ATOM     19  S   UNL     1       0.134  10.166  21.814  0.00  0.00    +0.000 S 
ATOM     20  O   UNL     1       1.473  10.211  22.368  0.00  0.00    +0.000 OA
ATOM     21  O   UNL     1      -0.742   9.040  22.072  0.00  0.00    +0.000 OA
BRANCH  19  27
ATOM     22  C   UNL     1      -0.444  16.544  22.859  0.00  0.00    +0.000 C 
ATOM     23  N   UNL     1      -0.154  15.197  22.392  0.00  0.00    +0.000 N 
ATOM     24  C   UNL     1       0.898  14.883  21.583  0.00  0.00    +0.000 A 
ATOM     25  C   UNL     1       0.870  13.522  21.379  0.00  0.00    +0.000 A 
ATOM     26  C   UNL     1      -0.197  12.965  22.148  0.00  0.00    +0.000 A 
ATOM     27  C   UNL     1      -0.686  11.652  22.403  0.00  0.00    +0.000 A 
ATOM     28  C   UNL     1      -1.951  11.517  23.004  0.00  0.00    +0.000 A 
ATOM     29  C   UNL     1      -2.669  12.638  23.425  0.00  0.00    +0.000 A 
ATOM     30  C   UNL     1      -2.138  13.926  23.307  0.00  0.00    +0.000 A 
ATOM     31  C   UNL     1      -0.900  14.070  22.667  0.00  0.00    +0.000 A 
ENDBRANCH  19  27
ENDBRANCH   1  19
BRANCH   1  32
ATOM     32  C   UNL     1      -1.021  10.517  19.327  0.00  0.00    +0.000 C 
BRANCH  32  33
ATOM     33  C   UNL     1      -1.053  11.865  18.610  0.00  0.00    +0.000 C 
ATOM     34  F   UNL     1       0.177  12.384  18.405  0.00  0.00    +0.000 F 
ATOM     35  F   UNL     1      -1.651  11.756  17.399  0.00  0.00    +0.000 F 
ATOM     36  F   UNL     1      -1.761  12.772  19.324  0.00  0.00    +0.000 F 
ENDBRANCH  32  33
ENDBRANCH   1  32
TORSDOF 7
ENDMDL
MODEL 4
REMARK VINA RESULT:      -9.9      3.198      4.132
REMARK  Name = 
REMARK  8 active torsions:
REMARK  status: ('A' for Active; 'I' for Inactive)
REMARK    1  A    between atoms: C_1  and  N_2
REMARK    2  A    between atoms: C_6  and  S_7
REMARK    3  A    between atoms: S_7  and  N_10
REMARK    4  A    between atoms: N_10  and  C_11
REMARK    5  A    between atoms: N_10  and  C_16
REMARK    6  A    between atoms: C_11  and  C_12
REMARK    7  A    between atoms: C_19  and  C_20
REMARK    8  A    between atoms: C_24  and  C_25
REMARK                            x       y       z     vdW  Elec       q    Type
REMARK                         _______ _______ _______ _____ _____    ______ ____
ROOT
ATOM      1  N   UNL     1       0.880  11.451  19.461  0.00  0.00    +0.000 N 
ENDROOT
BRANCH   1   2
ATOM      2  C   UNL     1       1.397  10.129  19.123  0.00  0.00    +0.000 A 
ATOM      3  C   UNL     1       1.913   9.841  17.860  0.00  0.00    +0.000 A 
ATOM      4  C   UNL     1       2.372   8.551  17.557  0.00  0.00    +0.000 A 
ATOM      5  C   UNL     1       2.343   7.504  18.499  0.00  0.00    +0.000 A 
ATOM      6  C   UNL     1       1.811   7.811  19.764  0.00  0.00    +0.000 A 
ATOM      7  C   UNL     1       1.340   9.108  20.072  0.00  0.00    +0.000 A 
BRANCH   5   8
ATOM      8  C   UNL     1       2.847   6.150  18.130  0.00  0.00    +0.000 A 
ATOM      9  C   UNL     1       4.047   6.014  17.399  0.00  0.00    +0.000 A 
ATOM     10  C   UNL     1       4.512   4.773  16.955  0.00  0.00    +0.000 A 
ATOM     11  C   UNL     1       3.797   3.618  17.248  0.00  0.00    +0.000 A 
ATOM     12  C   UNL     1       2.614   3.707  17.987  0.00  0.00    +0.000 A 
ATOM     13  C   UNL     1       2.153   4.964  18.434  0.00  0.00    +0.000 A 
BRANCH  12  14
ATOM     14  C   UNL     1       1.832   2.484  18.329  0.00  0.00    +0.000 C 
ATOM     15  N   UNL     1       2.528   1.330  18.542  0.00  0.00    +0.000 N 
ATOM     16  O   UNL     1       0.609   2.504  18.391  0.00  0.00    +0.000 OA
ATOM     17  H   UNL     1       3.493   1.210  18.265  0.00  0.00    +0.000 HD
ATOM     18  H   UNL     1       1.973   0.490  18.676  0.00  0.00    +0.000 HD
ENDBRANCH  12  14
ENDBRANCH   5   8
ENDBRANCH   1   2
BRANCH   1  19
ATOM     19  S   UNL     1      -0.835  11.581  19.174  0.00  0.00    +0.000 S 
ATOM     20  O   UNL     1      -1.315  10.274  18.770  0.00  0.00    +0.000 OA
ATOM     21  O   UNL     1      -1.008  12.738  18.316  0.00  0.00    +0.000 OA
BRANCH  19  27
ATOM     22  C   UNL     1      -5.624  13.747  22.978  0.00  0.00    +0.000 C 
ATOM     23  N   UNL     1      -4.768  13.207  21.934  0.00  0.00    +0.000 N 
ATOM     24  C   UNL     1      -5.117  13.151  20.617  0.00  0.00    +0.000 A 
ATOM     25  C   UNL     1      -4.054  12.612  19.929  0.00  0.00    +0.000 A 
ATOM     26  C   UNL     1      -2.980  12.391  20.845  0.00  0.00    +0.000 A 
ATOM     27  C   UNL     1      -1.637  11.930  20.743  0.00  0.00    +0.000 A 
ATOM     28  C   UNL     1      -0.961  11.579  21.926  0.00  0.00    +0.000 A 
ATOM     29  C   UNL     1      -1.555  11.765  23.175  0.00  0.00    +0.000 A 
ATOM     30  C   UNL     1      -2.820  12.347  23.297  0.00  0.00    +0.000 A 
ATOM     31  C   UNL     1      -3.517  12.656  22.121  0.00  0.00    +0.000 A 
ENDBRANCH  19  27
ENDBRANCH   1  19
BRANCH   1  32
ATOM     32  C   UNL     1       1.731  12.579  18.913  0.00  0.00    +0.000 C 
BRANCH  32  33
ATOM     33  C   UNL     1       2.046  13.649  19.955  0.00  0.00    +0.000 C 
ATOM     34  F   UNL     1       3.291  14.158  19.830  0.00  0.00    +0.000 F 
ATOM     35  F   UNL     1       1.178  14.686  19.864  0.00  0.00    +0.000 F 
ATOM     36  F   UNL     1       1.937  13.147  21.207  0.00  0.00    +0.000 F 
ENDBRANCH  32  33
ENDBRANCH   1  32
TORSDOF 7
ENDMDL
MODEL 5
REMARK VINA RESULT:      -9.9      1.938      2.838
REMARK  Name = 
REMARK  8 active torsions:
REMARK  status: ('A' for Active; 'I' for Inactive)
REMARK    1  A    between atoms: C_1  and  N_2
REMARK    2  A    between atoms: C_6  and  S_7
REMARK    3  A    between atoms: S_7  and  N_10
REMARK    4  A    between atoms: N_10  and  C_11
REMARK    5  A    between atoms: N_10  and  C_16
REMARK    6  A    between atoms: C_11  and  C_12
REMARK    7  A    between atoms: C_19  and  C_20
REMARK    8  A    between atoms: C_24  and  C_25
REMARK                            x       y       z     vdW  Elec       q    Type
REMARK                         _______ _______ _______ _____ _____    ______ ____
ROOT
ATOM      1  N   UNL     1       0.410  10.161  20.457  0.00  0.00    +0.000 N 
ENDROOT
BRANCH   1   2
ATOM      2  C   UNL     1       1.190   9.113  19.807  0.00  0.00    +0.000 A 
ATOM      3  C   UNL     1       1.508   9.165  18.450  0.00  0.00    +0.000 A 
ATOM      4  C   UNL     1       2.232   8.125  17.850  0.00  0.00    +0.000 A 
ATOM      5  C   UNL     1       2.672   7.001  18.575  0.00  0.00    +0.000 A 
ATOM      6  C   UNL     1       2.333   6.961  19.938  0.00  0.00    +0.000 A 
ATOM      7  C   UNL     1       1.597   8.003  20.548  0.00  0.00    +0.000 A 
BRANCH   5   8
ATOM      8  C   UNL     1       3.442   5.923  17.891  0.00  0.00    +0.000 A 
ATOM      9  C   UNL     1       2.833   4.680  17.615  0.00  0.00    +0.000 A 
ATOM     10  C   UNL     1       3.541   3.612  17.056  0.00  0.00    +0.000 A 
ATOM     11  C   UNL     1       4.885   3.761  16.735  0.00  0.00    +0.000 A 
ATOM     12  C   UNL     1       5.520   4.982  16.974  0.00  0.00    +0.000 A 
ATOM     13  C   UNL     1       4.798   6.057  17.536  0.00  0.00    +0.000 A 
BRANCH  12  14
ATOM     14  C   UNL     1       6.957   5.177  16.628  0.00  0.00    +0.000 C 
ATOM     15  N   UNL     1       7.863   4.331  17.197  0.00  0.00    +0.000 N 
ATOM     16  O   UNL     1       7.319   6.079  15.881  0.00  0.00    +0.000 OA
ATOM     17  H   UNL     1       7.646   3.745  17.992  0.00  0.00    +0.000 HD
ATOM     18  H   UNL     1       8.842   4.542  17.027  0.00  0.00    +0.000 HD
ENDBRANCH  12  14
ENDBRANCH   5   8
ENDBRANCH   1   2
BRANCH   1  19
ATOM     19  S   UNL     1       0.423  11.650  19.551  0.00  0.00    +0.000 S 
ATOM     20  O   UNL     1      -0.530  11.516  18.467  0.00  0.00    +0.000 OA
ATOM     21  O   UNL     1       1.819  11.942  19.286  0.00  0.00    +0.000 OA
BRANCH  19  27
ATOM     22  C   UNL     1      -4.250  15.177  22.350  0.00  0.00    +0.000 C 
ATOM     23  N   UNL     1      -3.404  14.171  21.726  0.00  0.00    +0.000 N 
ATOM     24  C   UNL     1      -3.882  13.069  21.081  0.00  0.00    +0.000 A 
ATOM     25  C   UNL     1      -2.799  12.370  20.598  0.00  0.00    +0.000 A 
ATOM     26  C   UNL     1      -1.611  13.106  20.892  0.00  0.00    +0.000 A 
ATOM     27  C   UNL     1      -0.223  12.950  20.610  0.00  0.00    +0.000 A 
ATOM     28  C   UNL     1       0.695  13.748  21.316  0.00  0.00    +0.000 A 
ATOM     29  C   UNL     1       0.256  14.733  22.203  0.00  0.00    +0.000 A 
ATOM     30  C   UNL     1      -1.105  14.991  22.386  0.00  0.00    +0.000 A 
ATOM     31  C   UNL     1      -2.024  14.168  21.720  0.00  0.00    +0.000 A 
ENDBRANCH  19  27
ENDBRANCH   1  19
BRANCH   1  32
ATOM     32  C   UNL     1       0.701  10.285  21.940  0.00  0.00    +0.000 C 
BRANCH  32  33
ATOM     33  C   UNL     1      -0.400   9.694  22.816  0.00  0.00    +0.000 C 
ATOM     34  F   UNL     1      -0.980   8.602  22.271  0.00  0.00    +0.000 F 
ATOM     35  F   UNL     1       0.087   9.329  24.027  0.00  0.00    +0.000 F 
ATOM     36  F   UNL     1      -1.378  10.603  23.037  0.00  0.00    +0.000 F 
ENDBRANCH  32  33
ENDBRANCH   1  32
TORSDOF 7
ENDMDL
MODEL 6
REMARK VINA RESULT:      -9.8      1.862      2.788
REMARK  Name = 
REMARK  8 active torsions:
REMARK  status: ('A' for Active; 'I' for Inactive)
REMARK    1  A    between atoms: C_1  and  N_2
REMARK    2  A    between atoms: C_6  and  S_7
REMARK    3  A    between atoms: S_7  and  N_10
REMARK    4  A    between atoms: N_10  and  C_11
REMARK    5  A    between atoms: N_10  and  C_16
REMARK    6  A    between atoms: C_11  and  C_12
REMARK    7  A    between atoms: C_19  and  C_20
REMARK    8  A    between atoms: C_24  and  C_25
REMARK                            x       y       z     vdW  Elec       q    Type
REMARK                         _______ _______ _______ _____ _____    ______ ____
ROOT
ATOM      1  N   UNL     1       0.179  10.024  20.544  0.00  0.00    +0.000 N 
ENDROOT
BRANCH   1   2
ATOM      2  C   UNL     1       1.045   9.076  19.852  0.00  0.00    +0.000 A 
ATOM      3  C   UNL     1       1.457   9.280  18.535  0.00  0.00    +0.000 A 
ATOM      4  C   UNL     1       2.263   8.332  17.888  0.00  0.00    +0.000 A 
ATOM      5  C   UNL     1       2.693   7.153  18.526  0.00  0.00    +0.000 A 
ATOM      6  C   UNL     1       2.260   6.960  19.849  0.00  0.00    +0.000 A 
ATOM      7  C   UNL     1       1.441   7.908  20.504  0.00  0.00    +0.000 A 
BRANCH   5   8
ATOM      8  C   UNL     1       3.553   6.178  17.795  0.00  0.00    +0.000 A 
ATOM      9  C   UNL     1       3.136   4.838  17.642  0.00  0.00    +0.000 A 
ATOM     10  C   UNL     1       3.946   3.870  17.043  0.00  0.00    +0.000 A 
ATOM     11  C   UNL     1       5.201   4.218  16.557  0.00  0.00    +0.000 A 
ATOM     12  C   UNL     1       5.644   5.537  16.672  0.00  0.00    +0.000 A 
ATOM     13  C   UNL     1       4.818   6.511  17.275  0.00  0.00    +0.000 A 
BRANCH  12  14
ATOM     14  C   UNL     1       6.980   5.944  16.148  0.00  0.00    +0.000 C 
ATOM     15  N   UNL     1       7.445   5.300  15.039  0.00  0.00    +0.000 N 
ATOM     16  O   UNL     1       7.649   6.806  16.705  0.00  0.00    +0.000 OA
ATOM     17  H   UNL     1       7.050   4.433  14.699  0.00  0.00    +0.000 HD
ATOM     18  H   UNL     1       8.395   5.522  14.757  0.00  0.00    +0.000 HD
ENDBRANCH  12  14
ENDBRANCH   5   8
ENDBRANCH   1   2
BRANCH   1  19
ATOM     19  S   UNL     1      -0.211  11.405  19.554  0.00  0.00    +0.000 S 
ATOM     20  O   UNL     1      -0.692  10.911  18.279  0.00  0.00    +0.000 OA
ATOM     21  O   UNL     1       0.939  12.286  19.628  0.00  0.00    +0.000 OA
BRANCH  19  27
ATOM     22  C   UNL     1      -3.147  15.084  24.022  0.00  0.00    +0.000 C 
ATOM     23  N   UNL     1      -2.250  14.419  23.088  0.00  0.00    +0.000 N 
ATOM     24  C   UNL     1      -0.892  14.417  23.207  0.00  0.00    +0.000 A 
ATOM     25  C   UNL     1      -0.386  13.669  22.169  0.00  0.00    +0.000 A 
ATOM     26  C   UNL     1      -1.476  13.129  21.420  0.00  0.00    +0.000 A 
ATOM     27  C   UNL     1      -1.606  12.252  20.306  0.00  0.00    +0.000 A 
ATOM     28  C   UNL     1      -2.856  12.169  19.665  0.00  0.00    +0.000 A 
ATOM     29  C   UNL     1      -3.965  12.855  20.163  0.00  0.00    +0.000 A 
ATOM     30  C   UNL     1      -3.885  13.610  21.337  0.00  0.00    +0.000 A 
ATOM     31  C   UNL     1      -2.631  13.734  21.953  0.00  0.00    +0.000 A 
ENDBRANCH  19  27
ENDBRANCH   1  19
BRANCH   1  32
ATOM     32  C   UNL     1       0.643  10.331  21.955  0.00  0.00    +0.000 C 
BRANCH  32  33
ATOM     33  C   UNL     1      -0.263   9.728  23.025  0.00  0.00    +0.000 C 
ATOM     34  F   UNL     1       0.414   9.312  24.118  0.00  0.00    +0.000 F 
ATOM     35  F   UNL     1      -1.186  10.628  23.443  0.00  0.00    +0.000 F 
ATOM     36  F   UNL     1      -0.938   8.661  22.537  0.00  0.00    +0.000 F 
ENDBRANCH  32  33
ENDBRANCH   1  32
TORSDOF 7
ENDMDL
MODEL 7
REMARK VINA RESULT:      -9.8      2.644      3.558
REMARK  Name = 
REMARK  8 active torsions:
REMARK  status: ('A' for Active; 'I' for Inactive)
REMARK    1  A    between atoms: C_1  and  N_2
REMARK    2  A    between atoms: C_6  and  S_7
REMARK    3  A    between atoms: S_7  and  N_10
REMARK    4  A    between atoms: N_10  and  C_11
REMARK    5  A    between atoms: N_10  and  C_16
REMARK    6  A    between atoms: C_11  and  C_12
REMARK    7  A    between atoms: C_19  and  C_20
REMARK    8  A    between atoms: C_24  and  C_25
REMARK                            x       y       z     vdW  Elec       q    Type
REMARK                         _______ _______ _______ _____ _____    ______ ____
ROOT
ATOM      1  N   UNL     1       0.883  11.349  19.443  0.00  0.00    +0.000 N 
ENDROOT
BRANCH   1   2
ATOM      2  C   UNL     1       1.370  10.016  19.106  0.00  0.00    +0.000 A 
ATOM      3  C   UNL     1       1.346   8.968  20.027  0.00  0.00    +0.000 A 
ATOM      4  C   UNL     1       1.852   7.707  19.681  0.00  0.00    +0.000 A 
ATOM      5  C   UNL     1       2.392   7.438  18.408  0.00  0.00    +0.000 A 
ATOM      6  C   UNL     1       2.416   8.508  17.498  0.00  0.00    +0.000 A 
ATOM      7  C   UNL     1       1.914   9.784  17.843  0.00  0.00    +0.000 A 
BRANCH   5   8
ATOM      8  C   UNL     1       2.913   6.078  18.088  0.00  0.00    +0.000 A 
ATOM      9  C   UNL     1       2.067   4.953  18.184  0.00  0.00    +0.000 A 
ATOM     10  C   UNL     1       2.534   3.651  17.979  0.00  0.00    +0.000 A 
ATOM     11  C   UNL     1       3.866   3.434  17.651  0.00  0.00    +0.000 A 
ATOM     12  C   UNL     1       4.733   4.523  17.528  0.00  0.00    +0.000 A 
ATOM     13  C   UNL     1       4.253   5.835  17.733  0.00  0.00    +0.000 A 
BRANCH  12  14
ATOM     14  C   UNL     1       6.165   4.324  17.163  0.00  0.00    +0.000 C 
ATOM     15  N   UNL     1       7.077   4.311  18.177  0.00  0.00    +0.000 N 
ATOM     16  O   UNL     1       6.517   4.202  15.996  0.00  0.00    +0.000 OA
ATOM     17  H   UNL     1       6.871   4.647  19.108  0.00  0.00    +0.000 HD
ATOM     18  H   UNL     1       8.054   4.273  17.901  0.00  0.00    +0.000 HD
ENDBRANCH  12  14
ENDBRANCH   5   8
ENDBRANCH   1   2
BRANCH   1  19
ATOM     19  S   UNL     1      -0.829  11.518  19.158  0.00  0.00    +0.000 S 
ATOM     20  O   UNL     1      -1.344  10.215  18.784  0.00  0.00    +0.000 OA
ATOM     21  O   UNL     1      -0.975  12.660  18.276  0.00  0.00    +0.000 OA
BRANCH  19  27
ATOM     22  C   UNL     1      -5.591  13.796  22.931  0.00  0.00    +0.000 C 
ATOM     23  N   UNL     1      -4.742  13.222  21.898  0.00  0.00    +0.000 N 
ATOM     24  C   UNL     1      -5.106  13.113  20.589  0.00  0.00    +0.000 A 
ATOM     25  C   UNL     1      -4.046  12.555  19.910  0.00  0.00    +0.000 A 
ATOM     26  C   UNL     1      -2.961  12.378  20.822  0.00  0.00    +0.000 A 
ATOM     27  C   UNL     1      -1.615  11.922  20.722  0.00  0.00    +0.000 A 
ATOM     28  C   UNL     1      -0.924  11.621  21.909  0.00  0.00    +0.000 A 
ATOM     29  C   UNL     1      -1.506  11.851  23.157  0.00  0.00    +0.000 A 
ATOM     30  C   UNL     1      -2.773  12.429  23.271  0.00  0.00    +0.000 A 
ATOM     31  C   UNL     1      -3.485  12.687  22.092  0.00  0.00    +0.000 A 
ENDBRANCH  19  27
ENDBRANCH   1  19
BRANCH   1  32
ATOM     32  C   UNL     1       1.758  12.457  18.891  0.00  0.00    +0.000 C 
BRANCH  32  33
ATOM     33  C   UNL     1       2.090  13.527  19.929  0.00  0.00    +0.000 C 
ATOM     34  F   UNL     1       2.584  13.016  21.077  0.00  0.00    +0.000 F 
ATOM     35  F   UNL     1       3.010  14.399  19.448  0.00  0.00    +0.000 F 
ATOM     36  F   UNL     1       0.987  14.246  20.247  0.00  0.00    +0.000 F 
ENDBRANCH  32  33
ENDBRANCH   1  32
TORSDOF 7
ENDMDL
MODEL 8
REMARK VINA RESULT:      -9.7      2.715      3.775
REMARK  Name = 
REMARK  8 active torsions:
REMARK  status: ('A' for Active; 'I' for Inactive)
REMARK    1  A    between atoms: C_1  and  N_2
REMARK    2  A    between atoms: C_6  and  S_7
REMARK    3  A    between atoms: S_7  and  N_10
REMARK    4  A    between atoms: N_10  and  C_11
REMARK    5  A    between atoms: N_10  and  C_16
REMARK    6  A    between atoms: C_11  and  C_12
REMARK    7  A    between atoms: C_19  and  C_20
REMARK    8  A    between atoms: C_24  and  C_25
REMARK                            x       y       z     vdW  Elec       q    Type
REMARK                         _______ _______ _______ _____ _____    ______ ____
ROOT
ATOM      1  N   UNL     1       0.237  10.794  19.681  0.00  0.00    +0.000 N 
ENDROOT
BRANCH   1   2
ATOM      2  C   UNL     1       1.066   9.678  19.238  0.00  0.00    +0.000 A 
ATOM      3  C   UNL     1       1.628   9.640  17.962  0.00  0.00    +0.000 A 
ATOM      4  C   UNL     1       2.393   8.537  17.556  0.00  0.00    +0.000 A 
ATOM      5  C   UNL     1       2.633   7.437  18.403  0.00  0.00    +0.000 A 
ATOM      6  C   UNL     1       2.051   7.490  19.681  0.00  0.00    +0.000 A 
ATOM      7  C   UNL     1       1.272   8.596  20.093  0.00  0.00    +0.000 A 
BRANCH   5   8
ATOM      8  C   UNL     1       3.458   6.290  17.926  0.00  0.00    +0.000 A 
ATOM      9  C   UNL     1       2.896   4.998  17.841  0.00  0.00    +0.000 A 
ATOM     10  C   UNL     1       3.653   3.879  17.483  0.00  0.00    +0.000 A 
ATOM     11  C   UNL     1       5.001   4.021  17.179  0.00  0.00    +0.000 A 
ATOM     12  C   UNL     1       5.592   5.286  17.231  0.00  0.00    +0.000 A 
ATOM     13  C   UNL     1       4.819   6.412  17.590  0.00  0.00    +0.000 A 
BRANCH  12  14
ATOM     14  C   UNL     1       7.033   5.472  16.896  0.00  0.00    +0.000 C 
ATOM     15  N   UNL     1       7.853   4.390  17.019  0.00  0.00    +0.000 N 
ATOM     16  O   UNL     1       7.473   6.561  16.549  0.00  0.00    +0.000 OA
ATOM     17  H   UNL     1       7.592   3.555  17.527  0.00  0.00    +0.000 HD
ATOM     18  H   UNL     1       8.845   4.561  16.882  0.00  0.00    +0.000 HD
ENDBRANCH  12  14
ENDBRANCH   5   8
ENDBRANCH   1   2
BRANCH   1  19
ATOM     19  S   UNL     1       0.677  11.350  21.274  0.00  0.00    +0.000 S 
ATOM     20  O   UNL     1       1.721  12.343  21.122  0.00  0.00    +0.000 OA
ATOM     21  O   UNL     1       0.892  10.155  22.067  0.00  0.00    +0.000 OA
BRANCH  19  27
ATOM     22  C   UNL     1      -3.331  16.403  21.993  0.00  0.00    +0.000 C 
ATOM     23  N   UNL     1      -2.398  15.374  21.558  0.00  0.00    +0.000 N 
ATOM     24  C   UNL     1      -1.538  15.521  20.510  0.00  0.00    +0.000 A 
ATOM     25  C   UNL     1      -0.799  14.364  20.417  0.00  0.00    +0.000 A 
ATOM     26  C   UNL     1      -1.166  13.498  21.491  0.00  0.00    +0.000 A 
ATOM     27  C   UNL     1      -0.732  12.226  21.965  0.00  0.00    +0.000 A 
ATOM     28  C   UNL     1      -1.535  11.555  22.904  0.00  0.00    +0.000 A 
ATOM     29  C   UNL     1      -2.679  12.157  23.431  0.00  0.00    +0.000 A 
ATOM     30  C   UNL     1      -3.041  13.461  23.080  0.00  0.00    +0.000 A 
ATOM     31  C   UNL     1      -2.271  14.116  22.109  0.00  0.00    +0.000 A 
ENDBRANCH  19  27
ENDBRANCH   1  19
BRANCH   1  32
ATOM     32  C   UNL     1      -1.243  10.564  19.445  0.00  0.00    +0.000 C 
BRANCH  32  33
ATOM     33  C   UNL     1      -1.794  11.378  18.276  0.00  0.00    +0.000 C 
ATOM     34  F   UNL     1      -0.922  12.303  17.819  0.00  0.00    +0.000 F 
ATOM     35  F   UNL     1      -2.110  10.574  17.232  0.00  0.00    +0.000 F 
ATOM     36  F   UNL     1      -2.925  12.029  18.635  0.00  0.00    +0.000 F 
ENDBRANCH  32  33
ENDBRANCH   1  32
TORSDOF 7
ENDMDL
MODEL 9
REMARK VINA RESULT:      -9.6      3.460      4.383
REMARK  Name = 
REMARK  8 active torsions:
REMARK  status: ('A' for Active; 'I' for Inactive)
REMARK    1  A    between atoms: C_1  and  N_2
REMARK    2  A    between atoms: C_6  and  S_7
REMARK    3  A    between atoms: S_7  and  N_10
REMARK    4  A    between atoms: N_10  and  C_11
REMARK    5  A    between atoms: N_10  and  C_16
REMARK    6  A    between atoms: C_11  and  C_12
REMARK    7  A    between atoms: C_19  and  C_20
REMARK    8  A    between atoms: C_24  and  C_25
REMARK                            x       y       z     vdW  Elec       q    Type
REMARK                         _______ _______ _______ _____ _____    ______ ____
ROOT
ATOM      1  N   UNL     1       0.853  11.484  19.350  0.00  0.00    +0.000 N 
ENDROOT
BRANCH   1   2
ATOM      2  C   UNL     1       1.291  10.093  19.289  0.00  0.00    +0.000 A 
ATOM      3  C   UNL     1       1.782   9.527  18.113  0.00  0.00    +0.000 A 
ATOM      4  C   UNL     1       2.165   8.178  18.080  0.00  0.00    +0.000 A 
ATOM      5  C   UNL     1       2.079   7.346  19.214  0.00  0.00    +0.000 A 
ATOM      6  C   UNL     1       1.573   7.932  20.387  0.00  0.00    +0.000 A 
ATOM      7  C   UNL     1       1.179   9.289  20.424  0.00  0.00    +0.000 A 
BRANCH   5   8
ATOM      8  C   UNL     1       2.503   5.919  19.129  0.00  0.00    +0.000 A 
ATOM      9  C   UNL     1       2.940   5.380  17.900  0.00  0.00    +0.000 A 
ATOM     10  C   UNL     1       3.262   4.027  17.752  0.00  0.00    +0.000 A 
ATOM     11  C   UNL     1       3.175   3.170  18.842  0.00  0.00    +0.000 A 
ATOM     12  C   UNL     1       2.766   3.667  20.081  0.00  0.00    +0.000 A 
ATOM     13  C   UNL     1       2.445   5.035  20.223  0.00  0.00    +0.000 A 
BRANCH  12  14
ATOM     14  C   UNL     1       2.676   2.775  21.273  0.00  0.00    +0.000 C 
ATOM     15  N   UNL     1       1.496   2.753  21.956  0.00  0.00    +0.000 N 
ATOM     16  O   UNL     1       3.633   2.105  21.643  0.00  0.00    +0.000 OA
ATOM     17  H   UNL     1       0.779   3.456  21.839  0.00  0.00    +0.000 HD
ATOM     18  H   UNL     1       1.487   2.217  22.818  0.00  0.00    +0.000 HD
ENDBRANCH  12  14
ENDBRANCH   5   8
ENDBRANCH   1   2
BRANCH   1  19
ATOM     19  S   UNL     1      -0.851  11.653  19.024  0.00  0.00    +0.000 S 
ATOM     20  O   UNL     1      -1.362  10.346  18.659  0.00  0.00    +0.000 OA
ATOM     21  O   UNL     1      -0.973  12.781  18.121  0.00  0.00    +0.000 OA
BRANCH  19  27
ATOM     22  C   UNL     1      -5.791  13.760  22.666  0.00  0.00    +0.000 C 
ATOM     23  N   UNL     1      -4.896  13.196  21.667  0.00  0.00    +0.000 N 
ATOM     24  C   UNL     1      -5.246  12.981  20.367  0.00  0.00    +0.000 A 
ATOM     25  C   UNL     1      -4.144  12.471  19.721  0.00  0.00    +0.000 A 
ATOM     26  C   UNL     1      -3.050  12.435  20.639  0.00  0.00    +0.000 A 
ATOM     27  C   UNL     1      -1.672  12.084  20.563  0.00  0.00    +0.000 A 
ATOM     28  C   UNL     1      -0.961  11.910  21.764  0.00  0.00    +0.000 A 
ATOM     29  C   UNL     1      -1.563  12.166  22.998  0.00  0.00    +0.000 A 
ATOM     30  C   UNL     1      -2.873  12.646  23.081  0.00  0.00    +0.000 A 
ATOM     31  C   UNL     1      -3.601  12.776  21.890  0.00  0.00    +0.000 A 
ENDBRANCH  19  27
ENDBRANCH   1  19
BRANCH   1  32
ATOM     32  C   UNL     1       1.769  12.428  18.596  0.00  0.00    +0.000 C 
BRANCH  32  33
ATOM     33  C   UNL     1       2.177  13.647  19.420  0.00  0.00    +0.000 C 
ATOM     34  F   UNL     1       3.092  13.360  20.371  0.00  0.00    +0.000 F 
ATOM     35  F   UNL     1       2.709  14.610  18.629  0.00  0.00    +0.000 F 
ATOM     36  F   UNL     1       1.103  14.189  20.041  0.00  0.00    +0.000 F 
ENDBRANCH  32  33
ENDBRANCH   1  32
TORSDOF 7
ENDMDL
