MODEL 1
REMARK VINA RESULT:      -7.7      0.000      0.000
REMARK  Name = 
REMARK  3 active torsions:
REMARK  status: ('A' for Active; 'I' for Inactive)
REMARK    1  A    between atoms: C_6  and  C_7
REMARK    2  A    between atoms: C_7  and  C_8
REMARK    3  A    between atoms: C_8  and  C_9
REMARK                            x       y       z     vdW  Elec       q    Type
REMARK                         _______ _______ _______ _____ _____    ______ ____
ROOT
ATOM      1  C   UNL     1       2.672   6.224  18.610  0.00  0.00    +0.000 A 
ATOM      2  C   UNL     1       2.520   6.872  19.821  0.00  0.00    +0.000 A 
ATOM      3  N   UNL     1       1.926   6.011  20.702  0.00  0.00    +0.000 N 
ATOM      4  C   UNL     1       1.686   4.800  20.096  0.00  0.00    +0.000 A 
ATOM      5  C   UNL     1       1.103   3.637  20.614  0.00  0.00    +0.000 A 
ATOM      6  C   UNL     1       0.976   2.540  19.759  0.00  0.00    +0.000 A 
ATOM      7  C   UNL     1       1.416   2.607  18.440  0.00  0.00    +0.000 A 
ATOM      8  C   UNL     1       1.999   3.779  17.939  0.00  0.00    +0.000 A 
ATOM      9  C   UNL     1       2.140   4.903  18.780  0.00  0.00    +0.000 A 
ATOM     10  H   UNL     1       1.691   6.226  21.660  0.00  0.00    +0.000 HD
ENDROOT
BRANCH   1  11
ATOM     11  C   UNL     1       3.286   6.812  17.372  0.00  0.00    +0.000 C 
BRANCH  11  12
ATOM     12  C   UNL     1       4.741   7.232  17.605  0.00  0.00    +0.000 C 
BRANCH  12  18
ATOM     13 CL   UNL     1       7.100   4.796  13.840  0.00  0.00    +0.000 Cl
ATOM     14  C   UNL     1       6.888   5.107  15.506  0.00  0.00    +0.000 A 
ATOM     15  N   UNL     1       7.689   4.432  16.340  0.00  0.00    +0.000 NA
ATOM     16  C   UNL     1       7.500   4.699  17.642  0.00  0.00    +0.000 A 
ATOM     17  C   UNL     1       6.560   5.595  18.103  0.00  0.00    +0.000 A 
ATOM     18  C   UNL     1       5.785   6.238  17.150  0.00  0.00    +0.000 A 
ATOM     19  N   UNL     1       5.940   6.000  15.832  0.00  0.00    +0.000 NA
ENDBRANCH  12  18
ENDBRANCH  11  12
ENDBRANCH   1  11
TORSDOF 3
ENDMDL
MODEL 2
REMARK VINA RESULT:      -7.5      2.869      5.722
REMARK  Name = 
REMARK  3 active torsions:
REMARK  status: ('A' for Active; 'I' for Inactive)
REMARK    1  A    between atoms: C_6  and  C_7
REMARK    2  A    between atoms: C_7  and  C_8
REMARK    3  A    between atoms: C_8  and  C_9
REMARK                            x       y       z     vdW  Elec       q    Type
REMARK                         _______ _______ _______ _____ _____    ______ ____
ROOT
ATOM      1  C   UNL     1       4.624   5.903  18.359  0.00  0.00    +0.000 A 
ATOM      2  C   UNL     1       5.370   5.348  19.382  0.00  0.00    +0.000 A 
ATOM      3  N   UNL     1       6.449   4.710  18.835  0.00  0.00    +0.000 N 
ATOM      4  C   UNL     1       6.435   4.838  17.467  0.00  0.00    +0.000 A 
ATOM      5  C   UNL     1       7.336   4.353  16.511  0.00  0.00    +0.000 A 
ATOM      6  C   UNL     1       7.068   4.631  15.168  0.00  0.00    +0.000 A 
ATOM      7  C   UNL     1       5.943   5.365  14.801  0.00  0.00    +0.000 A 
ATOM      8  C   UNL     1       5.054   5.845  15.771  0.00  0.00    +0.000 A 
ATOM      9  C   UNL     1       5.299   5.579  17.135  0.00  0.00    +0.000 A 
ATOM     10  H   UNL     1       7.157   4.213  19.355  0.00  0.00    +0.000 HD
ENDROOT
BRANCH   1  11
ATOM     11  C   UNL     1       3.359   6.693  18.525  0.00  0.00    +0.000 C 
BRANCH  11  12
ATOM     12  C   UNL     1       2.138   5.923  18.009  0.00  0.00    +0.000 C 
BRANCH  12  18
ATOM     13 CL   UNL     1       1.331   2.607  21.756  0.00  0.00    +0.000 Cl
ATOM     14  C   UNL     1       1.675   2.943  20.117  0.00  0.00    +0.000 A 
ATOM     15  N   UNL     1       1.830   1.882  19.315  0.00  0.00    +0.000 NA
ATOM     16  C   UNL     1       2.097   2.177  18.034  0.00  0.00    +0.000 A 
ATOM     17  C   UNL     1       2.208   3.467  17.561  0.00  0.00    +0.000 A 
ATOM     18  C   UNL     1       2.029   4.490  18.479  0.00  0.00    +0.000 A 
ATOM     19  N   UNL     1       1.759   4.238  19.777  0.00  0.00    +0.000 NA
ENDBRANCH  12  18
ENDBRANCH  11  12
ENDBRANCH   1  11
TORSDOF 3
ENDMDL
MODEL 3
REMARK VINA RESULT:      -7.4      3.178      6.764
REMARK  Name = 
REMARK  3 active torsions:
REMARK  status: ('A' for Active; 'I' for Inactive)
REMARK    1  A    between atoms: C_6  and  C_7
REMARK    2  A    between atoms: C_7  and  C_8
REMARK    3  A    between atoms: C_8  and  C_9
REMARK                            x       y       z     vdW  Elec       q    Type
REMARK                         _______ _______ _______ _____ _____    ______ ____
ROOT
ATOM      1  C   UNL     1       5.550   4.683  15.796  0.00  0.00    +0.000 A 
ATOM      2  C   UNL     1       6.504   5.532  16.325  0.00  0.00    +0.000 A 
ATOM      3  N   UNL     1       7.461   5.756  15.375  0.00  0.00    +0.000 N 
ATOM      4  C   UNL     1       7.156   5.073  14.221  0.00  0.00    +0.000 A 
ATOM      5  C   UNL     1       7.846   5.014  13.004  0.00  0.00    +0.000 A 
ATOM      6  C   UNL     1       7.301   4.225  11.988  0.00  0.00    +0.000 A 
ATOM      7  C   UNL     1       6.113   3.524  12.186  0.00  0.00    +0.000 A 
ATOM      8  C   UNL     1       5.436   3.597  13.410  0.00  0.00    +0.000 A 
ATOM      9  C   UNL     1       5.963   4.386  14.454  0.00  0.00    +0.000 A 
ATOM     10  H   UNL     1       8.280   6.335  15.496  0.00  0.00    +0.000 HD
ENDROOT
BRANCH   1  11
ATOM     11  C   UNL     1       4.325   4.187  16.508  0.00  0.00    +0.000 C 
BRANCH  11  12
ATOM     12  C   UNL     1       4.632   3.795  17.957  0.00  0.00    +0.000 C 
BRANCH  12  18
ATOM     13 CL   UNL     1       1.476   2.653  21.755  0.00  0.00    +0.000 Cl
ATOM     14  C   UNL     1       2.171   3.795  20.692  0.00  0.00    +0.000 A 
ATOM     15  N   UNL     1       1.760   5.062  20.834  0.00  0.00    +0.000 NA
ATOM     16  C   UNL     1       2.324   5.936  19.987  0.00  0.00    +0.000 A 
ATOM     17  C   UNL     1       3.258   5.578  19.038  0.00  0.00    +0.000 A 
ATOM     18  C   UNL     1       3.610   4.238  18.979  0.00  0.00    +0.000 A 
ATOM     19  N   UNL     1       3.068   3.325  19.811  0.00  0.00    +0.000 NA
ENDBRANCH  12  18
ENDBRANCH  11  12
ENDBRANCH   1  11
TORSDOF 3
ENDMDL
MODEL 4
REMARK VINA RESULT:      -7.4      2.308      3.491
REMARK  Name = 
REMARK  3 active torsions:
REMARK  status: ('A' for Active; 'I' for Inactive)
REMARK    1  A    between atoms: C_6  and  C_7
REMARK    2  A    between atoms: C_7  and  C_8
REMARK    3  A    between atoms: C_8  and  C_9
REMARK                            x       y       z     vdW  Elec       q    Type
REMARK                         _______ _______ _______ _____ _____    ______ ____
ROOT
ATOM      1  C   UNL     1       4.436   4.425  16.698  0.00  0.00    +0.000 A 
ATOM      2  C   UNL     1       4.182   3.245  17.372  0.00  0.00    +0.000 A 
ATOM      3  N   UNL     1       3.443   3.533  18.486  0.00  0.00    +0.000 N 
ATOM      4  C   UNL     1       3.198   4.883  18.560  0.00  0.00    +0.000 A 
ATOM      5  C   UNL     1       2.488   5.616  19.520  0.00  0.00    +0.000 A 
ATOM      6  C   UNL     1       2.402   6.999  19.346  0.00  0.00    +0.000 A 
ATOM      7  C   UNL     1       3.003   7.621  18.255  0.00  0.00    +0.000 A 
ATOM      8  C   UNL     1       3.709   6.873  17.303  0.00  0.00    +0.000 A 
ATOM      9  C   UNL     1       3.812   5.473  17.454  0.00  0.00    +0.000 A 
ATOM     10  H   UNL     1       3.122   2.856  19.164  0.00  0.00    +0.000 HD
ENDROOT
BRANCH   1  11
ATOM     11  C   UNL     1       5.214   4.556  15.421  0.00  0.00    +0.000 C 
BRANCH  11  12
ATOM     12  C   UNL     1       6.725   4.494  15.668  0.00  0.00    +0.000 C 
BRANCH  12  18
ATOM     13 CL   UNL     1       7.878   9.030  17.613  0.00  0.00    +0.000 Cl
ATOM     14  C   UNL     1       7.765   7.332  17.765  0.00  0.00    +0.000 A 
ATOM     15  N   UNL     1       8.135   6.818  18.945  0.00  0.00    +0.000 NA
ATOM     16  C   UNL     1       8.034   5.484  19.036  0.00  0.00    +0.000 A 
ATOM     17  C   UNL     1       7.584   4.686  18.006  0.00  0.00    +0.000 A 
ATOM     18  C   UNL     1       7.227   5.325  16.828  0.00  0.00    +0.000 A 
ATOM     19  N   UNL     1       7.314   6.664  16.693  0.00  0.00    +0.000 NA
ENDBRANCH  12  18
ENDBRANCH  11  12
ENDBRANCH   1  11
TORSDOF 3
ENDMDL
MODEL 5
REMARK VINA RESULT:      -7.3      2.999      6.708
REMARK  Name = 
REMARK  3 active torsions:
REMARK  status: ('A' for Active; 'I' for Inactive)
REMARK    1  A    between atoms: C_6  and  C_7
REMARK    2  A    between atoms: C_7  and  C_8
REMARK    3  A    between atoms: C_8  and  C_9
REMARK                            x       y       z     vdW  Elec       q    Type
REMARK                         _______ _______ _______ _____ _____    ______ ____
ROOT
ATOM      1  C   UNL     1       5.746   4.678  15.776  0.00  0.00    +0.000 A 
ATOM      2  C   UNL     1       6.775   5.505  16.185  0.00  0.00    +0.000 A 
ATOM      3  N   UNL     1       7.638   5.674  15.138  0.00  0.00    +0.000 N 
ATOM      4  C   UNL     1       7.197   4.978  14.039  0.00  0.00    +0.000 A 
ATOM      5  C   UNL     1       7.758   4.867  12.761  0.00  0.00    +0.000 A 
ATOM      6  C   UNL     1       7.088   4.075  11.825  0.00  0.00    +0.000 A 
ATOM      7  C   UNL     1       5.905   3.420  12.159  0.00  0.00    +0.000 A 
ATOM      8  C   UNL     1       5.357   3.543  13.442  0.00  0.00    +0.000 A 
ATOM      9  C   UNL     1       6.012   4.337  14.408  0.00  0.00    +0.000 A 
ATOM     10  H   UNL     1       8.483   6.228  15.162  0.00  0.00    +0.000 HD
ENDROOT
BRANCH   1  11
ATOM     11  C   UNL     1       4.584   4.240  16.619  0.00  0.00    +0.000 C 
BRANCH  11  12
ATOM     12  C   UNL     1       4.018   5.398  17.448  0.00  0.00    +0.000 C 
BRANCH  12  18
ATOM     13 CL   UNL     1       0.387   2.226  19.008  0.00  0.00    +0.000 Cl
ATOM     14  C   UNL     1       1.337   3.626  19.239  0.00  0.00    +0.000 A 
ATOM     15  N   UNL     1       1.102   4.323  20.359  0.00  0.00    +0.000 NA
ATOM     16  C   UNL     1       1.865   5.415  20.514  0.00  0.00    +0.000 A 
ATOM     17  C   UNL     1       2.822   5.807  19.602  0.00  0.00    +0.000 A 
ATOM     18  C   UNL     1       2.980   5.012  18.477  0.00  0.00    +0.000 A 
ATOM     19  N   UNL     1       2.234   3.905  18.282  0.00  0.00    +0.000 NA
ENDBRANCH  12  18
ENDBRANCH  11  12
ENDBRANCH   1  11
TORSDOF 3
ENDMDL
MODEL 6
REMARK VINA RESULT:      -7.3      5.862      8.781
REMARK  Name = 
REMARK  3 active torsions:
REMARK  status: ('A' for Active; 'I' for Inactive)
REMARK    1  A    between atoms: C_6  and  C_7
REMARK    2  A    between atoms: C_7  and  C_8
REMARK    3  A    between atoms: C_8  and  C_9
REMARK                            x       y       z     vdW  Elec       q    Type
REMARK                         _______ _______ _______ _____ _____    ______ ____
ROOT
ATOM      1  C   UNL     1       9.085  10.939  18.313  0.00  0.00    +0.000 A 
ATOM      2  C   UNL     1       8.291  11.778  17.554  0.00  0.00    +0.000 A 
ATOM      3  N   UNL     1       8.898  13.001  17.482  0.00  0.00    +0.000 N 
ATOM      4  C   UNL     1      10.085  12.986  18.176  0.00  0.00    +0.000 A 
ATOM      5  C   UNL     1      11.027  14.005  18.366  0.00  0.00    +0.000 A 
ATOM      6  C   UNL     1      12.156  13.708  19.133  0.00  0.00    +0.000 A 
ATOM      7  C   UNL     1      12.332  12.442  19.686  0.00  0.00    +0.000 A 
ATOM      8  C   UNL     1      11.380  11.434  19.484  0.00  0.00    +0.000 A 
ATOM      9  C   UNL     1      10.229  11.705  18.713  0.00  0.00    +0.000 A 
ATOM     10  H   UNL     1       8.533  13.806  16.994  0.00  0.00    +0.000 HD
ENDROOT
BRANCH   1  11
ATOM     11  C   UNL     1       8.786   9.504  18.636  0.00  0.00    +0.000 C 
BRANCH  11  12
ATOM     12  C   UNL     1       7.904   8.854  17.564  0.00  0.00    +0.000 C 
BRANCH  12  18
ATOM     13 CL   UNL     1       6.760   4.406  15.420  0.00  0.00    +0.000 Cl
ATOM     14  C   UNL     1       7.235   5.321  16.782  0.00  0.00    +0.000 A 
ATOM     15  N   UNL     1       7.445   4.635  17.912  0.00  0.00    +0.000 NA
ATOM     16  C   UNL     1       7.819   5.380  18.963  0.00  0.00    +0.000 A 
ATOM     17  C   UNL     1       7.982   6.747  18.903  0.00  0.00    +0.000 A 
ATOM     18  C   UNL     1       7.737   7.355  17.682  0.00  0.00    +0.000 A 
ATOM     19  N   UNL     1       7.359   6.645  16.600  0.00  0.00    +0.000 NA
ENDBRANCH  12  18
ENDBRANCH  11  12
ENDBRANCH   1  11
TORSDOF 3
ENDMDL
MODEL 7
REMARK VINA RESULT:      -7.3      1.412      2.057
REMARK  Name = 
REMARK  3 active torsions:
REMARK  status: ('A' for Active; 'I' for Inactive)
REMARK    1  A    between atoms: C_6  and  C_7
REMARK    2  A    between atoms: C_7  and  C_8
REMARK    3  A    between atoms: C_8  and  C_9
REMARK                            x       y       z     vdW  Elec       q    Type
REMARK                         _______ _______ _______ _____ _____    ______ ____
ROOT
ATOM      1  C   UNL     1       2.720   4.750  17.937  0.00  0.00    +0.000 A 
ATOM      2  C   UNL     1       2.611   3.690  17.056  0.00  0.00    +0.000 A 
ATOM      3  N   UNL     1       2.277   2.570  17.766  0.00  0.00    +0.000 N 
ATOM      4  C   UNL     1       2.156   2.870  19.102  0.00  0.00    +0.000 A 
ATOM      5  C   UNL     1       1.830   2.041  20.182  0.00  0.00    +0.000 A 
ATOM      6  C   UNL     1       1.785   2.620  21.453  0.00  0.00    +0.000 A 
ATOM      7  C   UNL     1       2.056   3.975  21.631  0.00  0.00    +0.000 A 
ATOM      8  C   UNL     1       2.380   4.790  20.538  0.00  0.00    +0.000 A 
ATOM      9  C   UNL     1       2.433   4.231  19.243  0.00  0.00    +0.000 A 
ATOM     10  H   UNL     1       2.139   1.650  17.373  0.00  0.00    +0.000 HD
ENDROOT
BRANCH   1  11
ATOM     11  C   UNL     1       3.068   6.164  17.569  0.00  0.00    +0.000 C 
BRANCH  11  12
ATOM     12  C   UNL     1       4.441   6.570  18.116  0.00  0.00    +0.000 C 
BRANCH  12  18
ATOM     13 CL   UNL     1       6.912   4.816  14.053  0.00  0.00    +0.000 Cl
ATOM     14  C   UNL     1       6.782   5.008  15.746  0.00  0.00    +0.000 A 
ATOM     15  N   UNL     1       7.767   4.474  16.479  0.00  0.00    +0.000 NA
ATOM     16  C   UNL     1       7.638   4.643  17.804  0.00  0.00    +0.000 A 
ATOM     17  C   UNL     1       6.582   5.312  18.384  0.00  0.00    +0.000 A 
ATOM     18  C   UNL     1       5.619   5.825  17.529  0.00  0.00    +0.000 A 
ATOM     19  N   UNL     1       5.708   5.678  16.191  0.00  0.00    +0.000 NA
ENDBRANCH  12  18
ENDBRANCH  11  12
ENDBRANCH   1  11
TORSDOF 3
ENDMDL
MODEL 8
REMARK VINA RESULT:      -7.3      3.173      6.945
REMARK  Name = 
REMARK  3 active torsions:
REMARK  status: ('A' for Active; 'I' for Inactive)
REMARK    1  A    between atoms: C_6  and  C_7
REMARK    2  A    between atoms: C_7  and  C_8
REMARK    3  A    between atoms: C_8  and  C_9
REMARK                            x       y       z     vdW  Elec       q    Type
REMARK                         _______ _______ _______ _____ _____    ______ ____
ROOT
ATOM      1  C   UNL     1       5.854   4.386  15.813  0.00  0.00    +0.000 A 
ATOM      2  C   UNL     1       6.745   5.307  16.333  0.00  0.00    +0.000 A 
ATOM      3  N   UNL     1       7.583   5.712  15.332  0.00  0.00    +0.000 N 
ATOM      4  C   UNL     1       7.261   5.079  14.155  0.00  0.00    +0.000 A 
ATOM      5  C   UNL     1       7.846   5.190  12.887  0.00  0.00    +0.000 A 
ATOM      6  C   UNL     1       7.311   4.413  11.857  0.00  0.00    +0.000 A 
ATOM      7  C   UNL     1       6.235   3.559  12.090  0.00  0.00    +0.000 A 
ATOM      8  C   UNL     1       5.662   3.462  13.364  0.00  0.00    +0.000 A 
ATOM      9  C   UNL     1       6.181   4.236  14.424  0.00  0.00    +0.000 A 
ATOM     10  H   UNL     1       8.336   6.377  15.435  0.00  0.00    +0.000 HD
ENDROOT
BRANCH   1  11
ATOM     11  C   UNL     1       4.761   3.695  16.575  0.00  0.00    +0.000 C 
BRANCH  11  12
ATOM     12  C   UNL     1       4.018   4.663  17.502  0.00  0.00    +0.000 C 
BRANCH  12  18
ATOM     13 CL   UNL     1       2.422   2.803  21.938  0.00  0.00    +0.000 Cl
ATOM     14  C   UNL     1       2.134   3.197  20.302  0.00  0.00    +0.000 A 
ATOM     15  N   UNL     1       0.906   2.933  19.837  0.00  0.00    +0.000 NA
ATOM     16  C   UNL     1       0.708   3.254  18.550  0.00  0.00    +0.000 A 
ATOM     17  C   UNL     1       1.682   3.816  17.751  0.00  0.00    +0.000 A 
ATOM     18  C   UNL     1       2.917   4.046  18.336  0.00  0.00    +0.000 A 
ATOM     19  N   UNL     1       3.159   3.738  19.627  0.00  0.00    +0.000 NA
ENDBRANCH  12  18
ENDBRANCH  11  12
ENDBRANCH   1  11
TORSDOF 3
ENDMDL
MODEL 9
REMARK VINA RESULT:      -7.3      2.064      2.716
REMARK  Name = 
REMARK  3 active torsions:
REMARK  status: ('A' for Active; 'I' for Inactive)
REMARK    1  A    between atoms: C_6  and  C_7
REMARK    2  A    between atoms: C_7  and  C_8
REMARK    3  A    between atoms: C_8  and  C_9
REMARK                            x       y       z     vdW  Elec       q    Type
REMARK                         _______ _______ _______ _____ _____    ______ ____
ROOT
ATOM      1  C   UNL     1       3.997   4.510  17.909  0.00  0.00    +0.000 A 
ATOM      2  C   UNL     1       4.554   5.452  18.754  0.00  0.00    +0.000 A 
ATOM      3  N   UNL     1       3.779   5.540  19.877  0.00  0.00    +0.000 N 
ATOM      4  C   UNL     1       2.719   4.668  19.794  0.00  0.00    +0.000 A 
ATOM      5  C   UNL     1       1.686   4.423  20.707  0.00  0.00    +0.000 A 
ATOM      6  C   UNL     1       0.724   3.472  20.356  0.00  0.00    +0.000 A 
ATOM      7  C   UNL     1       0.797   2.796  19.140  0.00  0.00    +0.000 A 
ATOM      8  C   UNL     1       1.840   3.053  18.240  0.00  0.00    +0.000 A 
ATOM      9  C   UNL     1       2.825   4.009  18.568  0.00  0.00    +0.000 A 
ATOM     10  H   UNL     1       3.951   6.157  20.658  0.00  0.00    +0.000 HD
ENDROOT
BRANCH   1  11
ATOM     11  C   UNL     1       4.537   4.105  16.569  0.00  0.00    +0.000 C 
BRANCH  11  12
ATOM     12  C   UNL     1       5.872   4.795  16.264  0.00  0.00    +0.000 C 
BRANCH  12  18
ATOM     13 CL   UNL     1       9.115   6.140  12.609  0.00  0.00    +0.000 Cl
ATOM     14  C   UNL     1       7.798   5.200  13.155  0.00  0.00    +0.000 A 
ATOM     15  N   UNL     1       7.269   4.349  12.266  0.00  0.00    +0.000 NA
ATOM     16  C   UNL     1       6.238   3.623  12.724  0.00  0.00    +0.000 A 
ATOM     17  C   UNL     1       5.748   3.730  14.008  0.00  0.00    +0.000 A 
ATOM     18  C   UNL     1       6.371   4.642  14.845  0.00  0.00    +0.000 A 
ATOM     19  N   UNL     1       7.411   5.393  14.425  0.00  0.00    +0.000 NA
ENDBRANCH  12  18
ENDBRANCH  11  12
ENDBRANCH   1  11
TORSDOF 3
ENDMDL
