MODEL 1
REMARK VINA RESULT:      -9.3      0.000      0.000
REMARK  Name = 
REMARK  5 active torsions:
REMARK  status: ('A' for Active; 'I' for Inactive)
REMARK    1  A    between atoms: C_1  and  C_2
REMARK    2  A    between atoms: C_5  and  C_6
REMARK    3  A    between atoms: C_6  and  N_7
REMARK    4  A    between atoms: C_11  and  C_12
REMARK    5  A    between atoms: C_12  and  N_13
REMARK                            x       y       z     vdW  Elec       q    Type
REMARK                         _______ _______ _______ _____ _____    ______ ____
ROOT
ATOM      1  N   UNL     1       0.590  10.064  19.240  0.00  0.00    +0.000 N 
ATOM      2  C   UNL     1       0.528   9.724  20.547  0.00  0.00    +0.000 A 
ATOM      3  C   UNL     1       1.220   8.621  21.023  0.00  0.00    +0.000 A 
ATOM      4  C   UNL     1       1.977   7.859  20.137  0.00  0.00    +0.000 A 
ATOM      5  C   UNL     1       2.001   8.186  18.779  0.00  0.00    +0.000 A 
ATOM      6  C   UNL     1       1.274   9.299  18.359  0.00  0.00    +0.000 A 
ENDROOT
BRANCH   1   7
ATOM      7  C   UNL     1      -0.005  11.343  18.787  0.00  0.00    +0.000 C 
BRANCH   7  12
ATOM      8  C   UNL     1      -5.736  11.224  17.798  0.00  0.00    +0.000 C 
ATOM      9  C   UNL     1      -4.269  11.200  18.116  0.00  0.00    +0.000 A 
ATOM     10  C   UNL     1      -3.734  12.021  19.110  0.00  0.00    +0.000 A 
ATOM     11  C   UNL     1      -2.361  12.048  19.347  0.00  0.00    +0.000 A 
ATOM     12  C   UNL     1      -1.490  11.245  18.591  0.00  0.00    +0.000 A 
ATOM     13  C   UNL     1      -2.027  10.407  17.628  0.00  0.00    +0.000 A 
ATOM     14  C   UNL     1      -3.408  10.378  17.381  0.00  0.00    +0.000 A 
ENDBRANCH   7  12
ENDBRANCH   1   7
BRANCH   5  15
ATOM     15  C   UNL     1       2.805   7.373  17.778  0.00  0.00    +0.000 C 
BRANCH  15  16
ATOM     16  N   UNL     1       3.585   6.241  18.324  0.00  0.00    +0.000 N 
ATOM     17  C   UNL     1       4.826   5.947  17.770  0.00  0.00    +0.000 A 
ATOM     18  C   UNL     1       5.913   6.766  17.433  0.00  0.00    +0.000 A 
ATOM     19  C   UNL     1       7.009   6.155  16.819  0.00  0.00    +0.000 A 
ATOM     20  C   UNL     1       7.010   4.788  16.547  0.00  0.00    +0.000 A 
ATOM     21  C   UNL     1       5.877   4.005  16.801  0.00  0.00    +0.000 A 
ATOM     22  C   UNL     1       4.751   4.600  17.401  0.00  0.00    +0.000 A 
ATOM     23  C   UNL     1       3.433   4.169  17.742  0.00  0.00    +0.000 A 
ATOM     24  C   UNL     1       2.560   3.129  17.399  0.00  0.00    +0.000 A 
ATOM     25  C   UNL     1       1.425   2.925  18.195  0.00  0.00    +0.000 A 
ATOM     26  C   UNL     1       1.273   3.611  19.403  0.00  0.00    +0.000 A 
ATOM     27  C   UNL     1       2.097   4.693  19.721  0.00  0.00    +0.000 A 
ATOM     28  C   UNL     1       3.032   5.044  18.745  0.00  0.00    +0.000 A 
ENDBRANCH  15  16
ENDBRANCH   5  15
TORSDOF 4
ENDMDL
MODEL 2
REMARK VINA RESULT:      -9.1      0.875      3.259
REMARK  Name = 
REMARK  5 active torsions:
REMARK  status: ('A' for Active; 'I' for Inactive)
REMARK    1  A    between atoms: C_1  and  C_2
REMARK    2  A    between atoms: C_5  and  C_6
REMARK    3  A    between atoms: C_6  and  N_7
REMARK    4  A    between atoms: C_11  and  C_12
REMARK    5  A    between atoms: C_12  and  N_13
REMARK                            x       y       z     vdW  Elec       q    Type
REMARK                         _______ _______ _______ _____ _____    ______ ____
ROOT
ATOM      1  N   UNL     1       0.525   9.572  19.502  0.00  0.00    +0.000 N 
ATOM      2  C   UNL     1      -0.114   9.572  20.693  0.00  0.00    +0.000 A 
ATOM      3  C   UNL     1       0.228   8.658  21.677  0.00  0.00    +0.000 A 
ATOM      4  C   UNL     1       1.234   7.731  21.425  0.00  0.00    +0.000 A 
ATOM      5  C   UNL     1       1.860   7.702  20.176  0.00  0.00    +0.000 A 
ATOM      6  C   UNL     1       1.464   8.640  19.222  0.00  0.00    +0.000 A 
ENDROOT
BRANCH   1   7
ATOM      7  C   UNL     1       0.274  10.666  18.536  0.00  0.00    +0.000 C 
BRANCH   7  12
ATOM      8  C   UNL     1      -5.458  11.147  17.666  0.00  0.00    +0.000 C 
ATOM      9  C   UNL     1      -3.966  11.072  17.823  0.00  0.00    +0.000 A 
ATOM     10  C   UNL     1      -3.214  10.133  17.115  0.00  0.00    +0.000 A 
ATOM     11  C   UNL     1      -1.841  10.019  17.323  0.00  0.00    +0.000 A 
ATOM     12  C   UNL     1      -1.188  10.851  18.248  0.00  0.00    +0.000 A 
ATOM     13  C   UNL     1      -1.931  11.803  18.925  0.00  0.00    +0.000 A 
ATOM     14  C   UNL     1      -3.315  11.921  18.724  0.00  0.00    +0.000 A 
ENDBRANCH   7  12
ENDBRANCH   1   7
BRANCH   5  15
ATOM     15  C   UNL     1       2.955   6.699  19.856  0.00  0.00    +0.000 C 
BRANCH  15  16
ATOM     16  N   UNL     1       2.775   5.897  18.626  0.00  0.00    +0.000 N 
ATOM     17  C   UNL     1       2.216   4.627  18.724  0.00  0.00    +0.000 A 
ATOM     18  C   UNL     1       1.087   4.157  19.409  0.00  0.00    +0.000 A 
ATOM     19  C   UNL     1       0.832   2.784  19.357  0.00  0.00    +0.000 A 
ATOM     20  C   UNL     1       1.675   1.923  18.656  0.00  0.00    +0.000 A 
ATOM     21  C   UNL     1       2.851   2.397  18.061  0.00  0.00    +0.000 A 
ATOM     22  C   UNL     1       3.143   3.773  18.116  0.00  0.00    +0.000 A 
ATOM     23  C   UNL     1       4.233   4.599  17.707  0.00  0.00    +0.000 A 
ATOM     24  C   UNL     1       5.582   4.442  17.361  0.00  0.00    +0.000 A 
ATOM     25  C   UNL     1       6.238   5.516  16.743  0.00  0.00    +0.000 A 
ATOM     26  C   UNL     1       5.519   6.633  16.312  0.00  0.00    +0.000 A 
ATOM     27  C   UNL     1       4.195   6.831  16.708  0.00  0.00    +0.000 A 
ATOM     28  C   UNL     1       3.677   5.866  17.576  0.00  0.00    +0.000 A 
ENDBRANCH  15  16
ENDBRANCH   5  15
TORSDOF 4
ENDMDL
MODEL 3
REMARK VINA RESULT:      -9.0      0.776      1.240
REMARK  Name = 
REMARK  5 active torsions:
REMARK  status: ('A' for Active; 'I' for Inactive)
REMARK    1  A    between atoms: C_1  and  C_2
REMARK    2  A    between atoms: C_5  and  C_6
REMARK    3  A    between atoms: C_6  and  N_7
REMARK    4  A    between atoms: C_11  and  C_12
REMARK    5  A    between atoms: C_12  and  N_13
REMARK                            x       y       z     vdW  Elec       q    Type
REMARK                         _______ _______ _______ _____ _____    ______ ____
ROOT
ATOM      1  N   UNL     1       0.676  10.435  19.528  0.00  0.00    +0.000 N 
ATOM      2  C   UNL     1       0.718  10.147  20.849  0.00  0.00    +0.000 A 
ATOM      3  C   UNL     1       1.264   8.954  21.294  0.00  0.00    +0.000 A 
ATOM      4  C   UNL     1       1.764   8.046  20.365  0.00  0.00    +0.000 A 
ATOM      5  C   UNL     1       1.676   8.325  18.999  0.00  0.00    +0.000 A 
ATOM      6  C   UNL     1       1.105   9.537  18.612  0.00  0.00    +0.000 A 
ENDROOT
BRANCH   1   7
ATOM      7  C   UNL     1       0.259  11.785  19.085  0.00  0.00    +0.000 C 
BRANCH   7  12
ATOM      8  C   UNL     1      -5.537  12.181  19.398  0.00  0.00    +0.000 C 
ATOM      9  C   UNL     1      -4.042  12.142  19.261  0.00  0.00    +0.000 A 
ATOM     10  C   UNL     1      -3.431  11.422  18.233  0.00  0.00    +0.000 A 
ATOM     11  C   UNL     1      -2.043  11.329  18.159  0.00  0.00    +0.000 A 
ATOM     12  C   UNL     1      -1.232  11.961  19.116  0.00  0.00    +0.000 A 
ATOM     13  C   UNL     1      -1.840  12.702  20.116  0.00  0.00    +0.000 A 
ATOM     14  C   UNL     1      -3.237  12.796  20.201  0.00  0.00    +0.000 A 
ENDBRANCH   7  12
ENDBRANCH   1   7
BRANCH   5  15
ATOM     15  C   UNL     1       2.200   7.356  17.952  0.00  0.00    +0.000 C 
BRANCH  15  16
ATOM     16  N   UNL     1       3.065   6.261  18.442  0.00  0.00    +0.000 N 
ATOM     17  C   UNL     1       4.221   5.946  17.736  0.00  0.00    +0.000 A 
ATOM     18  C   UNL     1       5.239   6.753  17.208  0.00  0.00    +0.000 A 
ATOM     19  C   UNL     1       6.247   6.117  16.479  0.00  0.00    +0.000 A 
ATOM     20  C   UNL     1       6.230   4.737  16.283  0.00  0.00    +0.000 A 
ATOM     21  C   UNL     1       5.155   3.962  16.734  0.00  0.00    +0.000 A 
ATOM     22  C   UNL     1       4.115   4.580  17.454  0.00  0.00    +0.000 A 
ATOM     23  C   UNL     1       2.864   4.159  17.998  0.00  0.00    +0.000 A 
ATOM     24  C   UNL     1       1.967   3.096  17.836  0.00  0.00    +0.000 A 
ATOM     25  C   UNL     1       0.957   2.927  18.793  0.00  0.00    +0.000 A 
ATOM     26  C   UNL     1       0.965   3.678  19.972  0.00  0.00    +0.000 A 
ATOM     27  C   UNL     1       1.809   4.780  20.115  0.00  0.00    +0.000 A 
ATOM     28  C   UNL     1       2.594   5.084  18.999  0.00  0.00    +0.000 A 
ENDBRANCH  15  16
ENDBRANCH   5  15
TORSDOF 4
ENDMDL
MODEL 4
REMARK VINA RESULT:      -8.8      2.096      3.634
REMARK  Name = 
REMARK  5 active torsions:
REMARK  status: ('A' for Active; 'I' for Inactive)
REMARK    1  A    between atoms: C_1  and  C_2
REMARK    2  A    between atoms: C_5  and  C_6
REMARK    3  A    between atoms: C_6  and  N_7
REMARK    4  A    between atoms: C_11  and  C_12
REMARK    5  A    between atoms: C_12  and  N_13
REMARK                            x       y       z     vdW  Elec       q    Type
REMARK                         _______ _______ _______ _____ _____    ______ ____
ROOT
ATOM      1  N   UNL     1       0.716  10.281  19.650  0.00  0.00    +0.000 N 
ATOM      2  C   UNL     1       0.679   9.915  20.951  0.00  0.00    +0.000 A 
ATOM      3  C   UNL     1       1.237   8.716  21.363  0.00  0.00    +0.000 A 
ATOM      4  C   UNL     1       1.833   7.882  20.420  0.00  0.00    +0.000 A 
ATOM      5  C   UNL     1       1.828   8.241  19.069  0.00  0.00    +0.000 A 
ATOM      6  C   UNL     1       1.240   9.455  18.715  0.00  0.00    +0.000 A 
ENDROOT
BRANCH   1   7
ATOM      7  C   UNL     1       0.280  11.641  19.258  0.00  0.00    +0.000 C 
BRANCH   7  12
ATOM      8  C   UNL     1       4.825  15.256  19.589  0.00  0.00    +0.000 C 
ATOM      9  C   UNL     1       3.602  14.390  19.493  0.00  0.00    +0.000 A 
ATOM     10  C   UNL     1       2.807  14.140  20.613  0.00  0.00    +0.000 A 
ATOM     11  C   UNL     1       1.718  13.275  20.532  0.00  0.00    +0.000 A 
ATOM     12  C   UNL     1       1.398  12.640  19.320  0.00  0.00    +0.000 A 
ATOM     13  C   UNL     1       2.169  12.915  18.203  0.00  0.00    +0.000 A 
ATOM     14  C   UNL     1       3.270  13.782  18.277  0.00  0.00    +0.000 A 
ENDBRANCH   7  12
ENDBRANCH   1   7
BRANCH   5  15
ATOM     15  C   UNL     1       2.457   7.355  18.008  0.00  0.00    +0.000 C 
BRANCH  15  16
ATOM     16  N   UNL     1       3.284   6.230  18.494  0.00  0.00    +0.000 N 
ATOM     17  C   UNL     1       4.475   5.933  17.839  0.00  0.00    +0.000 A 
ATOM     18  C   UNL     1       5.527   6.752  17.405  0.00  0.00    +0.000 A 
ATOM     19  C   UNL     1       6.568   6.138  16.705  0.00  0.00    +0.000 A 
ATOM     20  C   UNL     1       6.550   4.769  16.445  0.00  0.00    +0.000 A 
ATOM     21  C   UNL     1       5.445   3.986  16.801  0.00  0.00    +0.000 A 
ATOM     22  C   UNL     1       4.372   4.583  17.489  0.00  0.00    +0.000 A 
ATOM     23  C   UNL     1       3.089   4.152  17.944  0.00  0.00    +0.000 A 
ATOM     24  C   UNL     1       2.193   3.107  17.685  0.00  0.00    +0.000 A 
ATOM     25  C   UNL     1       1.130   2.908  18.576  0.00  0.00    +0.000 A 
ATOM     26  C   UNL     1       1.079   3.604  19.787  0.00  0.00    +0.000 A 
ATOM     27  C   UNL     1       1.924   4.689  20.026  0.00  0.00    +0.000 A 
ATOM     28  C   UNL     1       2.772   5.034  18.970  0.00  0.00    +0.000 A 
ENDBRANCH  15  16
ENDBRANCH   5  15
TORSDOF 4
ENDMDL
MODEL 5
REMARK VINA RESULT:      -8.8      0.992      3.371
REMARK  Name = 
REMARK  5 active torsions:
REMARK  status: ('A' for Active; 'I' for Inactive)
REMARK    1  A    between atoms: C_1  and  C_2
REMARK    2  A    between atoms: C_5  and  C_6
REMARK    3  A    between atoms: C_6  and  N_7
REMARK    4  A    between atoms: C_11  and  C_12
REMARK    5  A    between atoms: C_12  and  N_13
REMARK                            x       y       z     vdW  Elec       q    Type
REMARK                         _______ _______ _______ _____ _____    ______ ____
ROOT
ATOM      1  N   UNL     1       0.742   9.855  19.538  0.00  0.00    +0.000 N 
ATOM      2  C   UNL     1       1.190  10.538  18.460  0.00  0.00    +0.000 A 
ATOM      3  C   UNL     1       2.146   9.985  17.623  0.00  0.00    +0.000 A 
ATOM      4  C   UNL     1       2.649   8.719  17.906  0.00  0.00    +0.000 A 
ATOM      5  C   UNL     1       2.218   8.036  19.047  0.00  0.00    +0.000 A 
ATOM      6  C   UNL     1       1.264   8.649  19.857  0.00  0.00    +0.000 A 
ENDROOT
BRANCH   1   7
ATOM      7  C   UNL     1      -0.405  10.382  20.313  0.00  0.00    +0.000 C 
BRANCH   7  12
ATOM      8  C   UNL     1      -5.060  11.735  17.098  0.00  0.00    +0.000 C 
ATOM      9  C   UNL     1      -3.811  11.427  17.873  0.00  0.00    +0.000 A 
ATOM     10  C   UNL     1      -3.006  10.337  17.538  0.00  0.00    +0.000 A 
ATOM     11  C   UNL     1      -1.891  10.014  18.308  0.00  0.00    +0.000 A 
ATOM     12  C   UNL     1      -1.554  10.784  19.434  0.00  0.00    +0.000 A 
ATOM     13  C   UNL     1      -2.335  11.884  19.745  0.00  0.00    +0.000 A 
ATOM     14  C   UNL     1      -3.462  12.213  18.977  0.00  0.00    +0.000 A 
ENDBRANCH   7  12
ENDBRANCH   1   7
BRANCH   5  15
ATOM     15  C   UNL     1       2.750   6.657  19.397  0.00  0.00    +0.000 C 
BRANCH  15  16
ATOM     16  N   UNL     1       3.093   5.774  18.261  0.00  0.00    +0.000 N 
ATOM     17  C   UNL     1       2.620   4.466  18.256  0.00  0.00    +0.000 A 
ATOM     18  C   UNL     1       1.349   3.934  18.517  0.00  0.00    +0.000 A 
ATOM     19  C   UNL     1       1.220   2.544  18.493  0.00  0.00    +0.000 A 
ATOM     20  C   UNL     1       2.316   1.725  18.227  0.00  0.00    +0.000 A 
ATOM     21  C   UNL     1       3.596   2.269  18.066  0.00  0.00    +0.000 A 
ATOM     22  C   UNL     1       3.759   3.667  18.106  0.00  0.00    +0.000 A 
ATOM     23  C   UNL     1       4.868   4.565  18.056  0.00  0.00    +0.000 A 
ATOM     24  C   UNL     1       6.255   4.512  18.243  0.00  0.00    +0.000 A 
ATOM     25  C   UNL     1       7.024   5.604  17.820  0.00  0.00    +0.000 A 
ATOM     26  C   UNL     1       6.448   6.625  17.061  0.00  0.00    +0.000 A 
ATOM     27  C   UNL     1       5.062   6.724  16.925  0.00  0.00    +0.000 A 
ATOM     28  C   UNL     1       4.321   5.766  17.622  0.00  0.00    +0.000 A 
ENDBRANCH  15  16
ENDBRANCH   5  15
TORSDOF 4
ENDMDL
MODEL 6
REMARK VINA RESULT:      -8.7      2.400      4.004
REMARK  Name = 
REMARK  5 active torsions:
REMARK  status: ('A' for Active; 'I' for Inactive)
REMARK    1  A    between atoms: C_1  and  C_2
REMARK    2  A    between atoms: C_5  and  C_6
REMARK    3  A    between atoms: C_6  and  N_7
REMARK    4  A    between atoms: C_11  and  C_12
REMARK    5  A    between atoms: C_12  and  N_13
REMARK                            x       y       z     vdW  Elec       q    Type
REMARK                         _______ _______ _______ _____ _____    ______ ____
ROOT
ATOM      1  N   UNL     1       0.811  10.629  20.004  0.00  0.00    +0.000 N 
ATOM      2  C   UNL     1       0.792  10.231  21.296  0.00  0.00    +0.000 A 
ATOM      3  C   UNL     1       1.223   8.962  21.650  0.00  0.00    +0.000 A 
ATOM      4  C   UNL     1       1.671   8.094  20.658  0.00  0.00    +0.000 A 
ATOM      5  C   UNL     1       1.645   8.492  19.319  0.00  0.00    +0.000 A 
ATOM      6  C   UNL     1       1.188   9.776  19.024  0.00  0.00    +0.000 A 
ENDROOT
BRANCH   1   7
ATOM      7  C   UNL     1       0.520  12.041  19.668  0.00  0.00    +0.000 C 
BRANCH   7  12
ATOM      8  C   UNL     1       5.112  15.611  19.540  0.00  0.00    +0.000 C 
ATOM      9  C   UNL     1       3.980  14.625  19.585  0.00  0.00    +0.000 A 
ATOM     10  C   UNL     1       3.592  13.922  18.443  0.00  0.00    +0.000 A 
ATOM     11  C   UNL     1       2.493  13.067  18.475  0.00  0.00    +0.000 A 
ATOM     12  C   UNL     1       1.757  12.893  19.660  0.00  0.00    +0.000 A 
ATOM     13  C   UNL     1       2.164  13.568  20.799  0.00  0.00    +0.000 A 
ATOM     14  C   UNL     1       3.267  14.434  20.773  0.00  0.00    +0.000 A 
ENDBRANCH   7  12
ENDBRANCH   1   7
BRANCH   5  15
ATOM     15  C   UNL     1       2.114   7.571  18.205  0.00  0.00    +0.000 C 
BRANCH  15  16
ATOM     16  N   UNL     1       2.974   6.436  18.607  0.00  0.00    +0.000 N 
ATOM     17  C   UNL     1       4.035   6.069  17.787  0.00  0.00    +0.000 A 
ATOM     18  C   UNL     1       5.030   6.830  17.155  0.00  0.00    +0.000 A 
ATOM     19  C   UNL     1       5.928   6.150  16.329  0.00  0.00    +0.000 A 
ATOM     20  C   UNL     1       5.827   4.773  16.139  0.00  0.00    +0.000 A 
ATOM     21  C   UNL     1       4.769   4.046  16.699  0.00  0.00    +0.000 A 
ATOM     22  C   UNL     1       3.838   4.710  17.520  0.00  0.00    +0.000 A 
ATOM     23  C   UNL     1       2.631   4.347  18.191  0.00  0.00    +0.000 A 
ATOM     24  C   UNL     1       1.674   3.326  18.124  0.00  0.00    +0.000 A 
ATOM     25  C   UNL     1       0.761   3.202  19.180  0.00  0.00    +0.000 A 
ATOM     26  C   UNL     1       0.924   3.949  20.350  0.00  0.00    +0.000 A 
ATOM     27  C   UNL     1       1.828   5.011  20.403  0.00  0.00    +0.000 A 
ATOM     28  C   UNL     1       2.508   5.281  19.212  0.00  0.00    +0.000 A 
ENDBRANCH  15  16
ENDBRANCH   5  15
TORSDOF 4
ENDMDL
MODEL 7
REMARK VINA RESULT:      -8.7      1.157      1.290
REMARK  Name = 
REMARK  5 active torsions:
REMARK  status: ('A' for Active; 'I' for Inactive)
REMARK    1  A    between atoms: C_1  and  C_2
REMARK    2  A    between atoms: C_5  and  C_6
REMARK    3  A    between atoms: C_6  and  N_7
REMARK    4  A    between atoms: C_11  and  C_12
REMARK    5  A    between atoms: C_12  and  N_13
REMARK                            x       y       z     vdW  Elec       q    Type
REMARK                         _______ _______ _______ _____ _____    ______ ____
ROOT
ATOM      1  N   UNL     1       0.154   9.978  19.971  0.00  0.00    +0.000 N 
ATOM      2  C   UNL     1       0.337   9.655  21.271  0.00  0.00    +0.000 A 
ATOM      3  C   UNL     1       1.211   8.642  21.630  0.00  0.00    +0.000 A 
ATOM      4  C   UNL     1       1.897   7.950  20.636  0.00  0.00    +0.000 A 
ATOM      5  C   UNL     1       1.670   8.255  19.291  0.00  0.00    +0.000 A 
ATOM      6  C   UNL     1       0.769   9.277  18.992  0.00  0.00    +0.000 A 
ENDROOT
BRANCH   1   7
ATOM      7  C   UNL     1      -0.640  11.177  19.619  0.00  0.00    +0.000 C 
BRANCH   7  12
ATOM      8  C   UNL     1      -3.869  10.115  14.898  0.00  0.00    +0.000 C 
ATOM      9  C   UNL     1      -3.100  10.434  16.148  0.00  0.00    +0.000 A 
ATOM     10  C   UNL     1      -2.387  11.628  16.270  0.00  0.00    +0.000 A 
ATOM     11  C   UNL     1      -1.615  11.882  17.402  0.00  0.00    +0.000 A 
ATOM     12  C   UNL     1      -1.543  10.941  18.443  0.00  0.00    +0.000 A 
ATOM     13  C   UNL     1      -2.277   9.771  18.333  0.00  0.00    +0.000 A 
ATOM     14  C   UNL     1      -3.052   9.507  17.195  0.00  0.00    +0.000 A 
ENDBRANCH   7  12
ENDBRANCH   1   7
BRANCH   5  15
ATOM     15  C   UNL     1       2.390   7.517  18.175  0.00  0.00    +0.000 C 
BRANCH  15  16
ATOM     16  N   UNL     1       3.193   6.341  18.573  0.00  0.00    +0.000 N 
ATOM     17  C   UNL     1       4.293   5.981  17.802  0.00  0.00    +0.000 A 
ATOM     18  C   UNL     1       5.344   6.740  17.267  0.00  0.00    +0.000 A 
ATOM     19  C   UNL     1       6.272   6.073  16.465  0.00  0.00    +0.000 A 
ATOM     20  C   UNL     1       6.147   4.709  16.204  0.00  0.00    +0.000 A 
ATOM     21  C   UNL     1       5.039   3.989  16.666  0.00  0.00    +0.000 A 
ATOM     22  C   UNL     1       4.077   4.642  17.460  0.00  0.00    +0.000 A 
ATOM     23  C   UNL     1       2.822   4.283  18.039  0.00  0.00    +0.000 A 
ATOM     24  C   UNL     1       1.844   3.295  17.868  0.00  0.00    +0.000 A 
ATOM     25  C   UNL     1       0.866   3.150  18.861  0.00  0.00    +0.000 A 
ATOM     26  C   UNL     1       0.977   3.837  20.072  0.00  0.00    +0.000 A 
ATOM     27  C   UNL     1       1.903   4.869  20.228  0.00  0.00    +0.000 A 
ATOM     28  C   UNL     1       2.662   5.173  19.095  0.00  0.00    +0.000 A 
ENDBRANCH  15  16
ENDBRANCH   5  15
TORSDOF 4
ENDMDL
MODEL 8
REMARK VINA RESULT:      -8.7      2.294      4.284
REMARK  Name = 
REMARK  5 active torsions:
REMARK  status: ('A' for Active; 'I' for Inactive)
REMARK    1  A    between atoms: C_1  and  C_2
REMARK    2  A    between atoms: C_5  and  C_6
REMARK    3  A    between atoms: C_6  and  N_7
REMARK    4  A    between atoms: C_11  and  C_12
REMARK    5  A    between atoms: C_12  and  N_13
REMARK                            x       y       z     vdW  Elec       q    Type
REMARK                         _______ _______ _______ _____ _____    ______ ____
ROOT
ATOM      1  N   UNL     1       0.561   9.294  20.318  0.00  0.00    +0.000 N 
ATOM      2  C   UNL     1       0.387   9.931  19.138  0.00  0.00    +0.000 A 
ATOM      3  C   UNL     1       1.081   9.527  18.009  0.00  0.00    +0.000 A 
ATOM      4  C   UNL     1       1.970   8.460  18.102  0.00  0.00    +0.000 A 
ATOM      5  C   UNL     1       2.183   7.834  19.334  0.00  0.00    +0.000 A 
ATOM      6  C   UNL     1       1.463   8.294  20.436  0.00  0.00    +0.000 A 
ENDROOT
BRANCH   1   7
ATOM      7  C   UNL     1      -0.320   9.619  21.463  0.00  0.00    +0.000 C 
BRANCH   7  12
ATOM      8  C   UNL     1      -0.284  15.275  22.826  0.00  0.00    +0.000 C 
ATOM      9  C   UNL     1      -0.356  13.831  22.419  0.00  0.00    +0.000 A 
ATOM     10  C   UNL     1      -1.274  12.961  23.010  0.00  0.00    +0.000 A 
ATOM     11  C   UNL     1      -1.283  11.607  22.683  0.00  0.00    +0.000 A 
ATOM     12  C   UNL     1      -0.368  11.093  21.748  0.00  0.00    +0.000 A 
ATOM     13  C   UNL     1       0.520  11.964  21.139  0.00  0.00    +0.000 A 
ATOM     14  C   UNL     1       0.537  13.328  21.467  0.00  0.00    +0.000 A 
ENDBRANCH   7  12
ENDBRANCH   1   7
BRANCH   5  15
ATOM     15  C   UNL     1       3.152   6.674  19.480  0.00  0.00    +0.000 C 
BRANCH  15  16
ATOM     16  N   UNL     1       3.379   5.848  18.274  0.00  0.00    +0.000 N 
ATOM     17  C   UNL     1       2.838   4.568  18.221  0.00  0.00    +0.000 A 
ATOM     18  C   UNL     1       1.558   4.085  18.529  0.00  0.00    +0.000 A 
ATOM     19  C   UNL     1       1.353   2.706  18.430  0.00  0.00    +0.000 A 
ATOM     20  C   UNL     1       2.386   1.853  18.048  0.00  0.00    +0.000 A 
ATOM     21  C   UNL     1       3.682   2.342  17.839  0.00  0.00    +0.000 A 
ATOM     22  C   UNL     1       3.921   3.725  17.953  0.00  0.00    +0.000 A 
ATOM     23  C   UNL     1       5.071   4.567  17.886  0.00  0.00    +0.000 A 
ATOM     24  C   UNL     1       6.463   4.434  17.983  0.00  0.00    +0.000 A 
ATOM     25  C   UNL     1       7.262   5.511  17.578  0.00  0.00    +0.000 A 
ATOM     26  C   UNL     1       6.697   6.606  16.918  0.00  0.00    +0.000 A 
ATOM     27  C   UNL     1       5.313   6.781  16.876  0.00  0.00    +0.000 A 
ATOM     28  C   UNL     1       4.564   5.820  17.560  0.00  0.00    +0.000 A 
ENDBRANCH  15  16
ENDBRANCH   5  15
TORSDOF 4
ENDMDL
MODEL 9
REMARK VINA RESULT:      -8.7      1.899      2.551
REMARK  Name = 
REMARK  5 active torsions:
REMARK  status: ('A' for Active; 'I' for Inactive)
REMARK    1  A    between atoms: C_1  and  C_2
REMARK    2  A    between atoms: C_5  and  C_6
REMARK    3  A    between atoms: C_6  and  N_7
REMARK    4  A    between atoms: C_11  and  C_12
REMARK    5  A    between atoms: C_12  and  N_13
REMARK                            x       y       z     vdW  Elec       q    Type
REMARK                         _______ _______ _______ _____ _____    ______ ____
ROOT
ATOM      1  N   UNL     1       1.098  10.126  20.507  0.00  0.00    +0.000 N 
ATOM      2  C   UNL     1       1.434  11.281  19.890  0.00  0.00    +0.000 A 
ATOM      3  C   UNL     1       1.859  11.278  18.571  0.00  0.00    +0.000 A 
ATOM      4  C   UNL     1       1.944  10.069  17.886  0.00  0.00    +0.000 A 
ATOM      5  C   UNL     1       1.641   8.872  18.541  0.00  0.00    +0.000 A 
ATOM      6  C   UNL     1       1.231   8.939  19.873  0.00  0.00    +0.000 A 
ENDROOT
BRANCH   1   7
ATOM      7  C   UNL     1       0.475  10.168  21.850  0.00  0.00    +0.000 C 
BRANCH   7  12
ATOM      8  C   UNL     1      -4.163  13.675  22.014  0.00  0.00    +0.000 C 
ATOM      9  C   UNL     1      -3.018  12.704  21.969  0.00  0.00    +0.000 A 
ATOM     10  C   UNL     1      -2.541  12.099  23.133  0.00  0.00    +0.000 A 
ATOM     11  C   UNL     1      -1.430  11.259  23.092  0.00  0.00    +0.000 A 
ATOM     12  C   UNL     1      -0.773  11.001  21.877  0.00  0.00    +0.000 A 
ATOM     13  C   UNL     1      -1.269  11.577  20.719  0.00  0.00    +0.000 A 
ATOM     14  C   UNL     1      -2.384  12.428  20.753  0.00  0.00    +0.000 A 
ENDBRANCH   7  12
ENDBRANCH   1   7
BRANCH   5  15
ATOM     15  C   UNL     1       1.732   7.531  17.834  0.00  0.00    +0.000 C 
BRANCH  15  16
ATOM     16  N   UNL     1       2.729   6.574  18.360  0.00  0.00    +0.000 N 
ATOM     17  C   UNL     1       3.786   6.183  17.545  0.00  0.00    +0.000 A 
ATOM     18  C   UNL     1       4.660   6.922  16.734  0.00  0.00    +0.000 A 
ATOM     19  C   UNL     1       5.588   6.206  15.975  0.00  0.00    +0.000 A 
ATOM     20  C   UNL     1       5.632   4.814  16.021  0.00  0.00    +0.000 A 
ATOM     21  C   UNL     1       4.688   4.090  16.760  0.00  0.00    +0.000 A 
ATOM     22  C   UNL     1       3.728   4.786  17.518  0.00  0.00    +0.000 A 
ATOM     23  C   UNL     1       2.601   4.421  18.315  0.00  0.00    +0.000 A 
ATOM     24  C   UNL     1       1.761   3.312  18.478  0.00  0.00    +0.000 A 
ATOM     25  C   UNL     1       0.917   3.278  19.596  0.00  0.00    +0.000 A 
ATOM     26  C   UNL     1       1.050   4.225  20.615  0.00  0.00    +0.000 A 
ATOM     27  C   UNL     1       1.832   5.367  20.435  0.00  0.00    +0.000 A 
ATOM     28  C   UNL     1       2.423   5.498  19.175  0.00  0.00    +0.000 A 
ENDBRANCH  15  16
ENDBRANCH   5  15
TORSDOF 4
ENDMDL
