MODEL 1
REMARK VINA RESULT:      -6.4      0.000      0.000
REMARK  Name = 
REMARK  5 active torsions:
REMARK  status: ('A' for Active; 'I' for Inactive)
REMARK    1  A    between atoms: C_1  and  C_2
REMARK    2  A    between atoms: C_5  and  C_6
REMARK    3  A    between atoms: C_6  and  N_7
REMARK    4  A    between atoms: C_11  and  C_12
REMARK    5  A    between atoms: C_14  and  C_15
REMARK                            x       y       z     vdW  Elec       q    Type
REMARK                         _______ _______ _______ _____ _____    ______ ____
ROOT
ATOM      1  N   UNL     1       5.021   4.307  17.690  0.00  0.00    +0.000 N 
ATOM      2  C   UNL     1       5.576   3.946  18.898  0.00  0.00    +0.000 A 
ATOM      3  N   UNL     1       5.172   2.892  19.618  0.00  0.00    +0.000 N 
ATOM      4  N   UNL     1       6.542   4.761  19.243  0.00  0.00    +0.000 NA
ATOM      5  C   UNL     1       6.597   5.710  18.255  0.00  0.00    +0.000 A 
ATOM      6  C   UNL     1       5.640   5.477  17.296  0.00  0.00    +0.000 A 
ATOM      7  H   UNL     1       4.226   2.532  19.567  0.00  0.00    +0.000 HD
ATOM      8  H   UNL     1       5.536   2.858  20.569  0.00  0.00    +0.000 HD
ENDROOT
BRANCH   5   9
ATOM      9  C   UNL     1       7.548   6.778  18.301  0.00  0.00    +0.000 C 
ATOM     10  N   UNL     1       8.308   7.653  18.371  0.00  0.00    +0.000 NA
ENDBRANCH   5   9
BRANCH   6  11
ATOM     11  C   UNL     1       5.349   6.244  16.140  0.00  0.00    +0.000 C 
ATOM     12  N   UNL     1       5.089   6.891  15.216  0.00  0.00    +0.000 NA
ENDBRANCH   6  11
BRANCH   1  13
ATOM     13  C   UNL     1       3.968   3.620  16.973  0.00  0.00    +0.000 C 
BRANCH  13  18
ATOM     14  C   UNL     1       1.284   5.173  20.620  0.00  0.00    +0.000 C 
ATOM     15  C   UNL     1       2.003   4.127  19.791  0.00  0.00    +0.000 C 
ATOM     16  C   UNL     1       1.089   3.053  19.235  0.00  0.00    +0.000 C 
ATOM     17  C   UNL     1       1.910   2.536  18.076  0.00  0.00    +0.000 C 
ATOM     18  C   UNL     1       2.557   3.809  17.542  0.00  0.00    +0.000 C 
ATOM     19  O   UNL     1       2.627   4.735  18.649  0.00  0.00    +0.000 OA
ENDBRANCH  13  18
ENDBRANCH   1  13
TORSDOF 4
ENDMDL
MODEL 2
REMARK VINA RESULT:      -6.2      2.629      5.552
REMARK  Name = 
REMARK  5 active torsions:
REMARK  status: ('A' for Active; 'I' for Inactive)
REMARK    1  A    between atoms: C_1  and  C_2
REMARK    2  A    between atoms: C_5  and  C_6
REMARK    3  A    between atoms: C_6  and  N_7
REMARK    4  A    between atoms: C_11  and  C_12
REMARK    5  A    between atoms: C_14  and  C_15
REMARK                            x       y       z     vdW  Elec       q    Type
REMARK                         _______ _______ _______ _____ _____    ______ ____
ROOT
ATOM      1  N   UNL     1       2.934   4.857  18.778  0.00  0.00    +0.000 N 
ATOM      2  C   UNL     1       2.425   5.810  19.632  0.00  0.00    +0.000 A 
ATOM      3  N   UNL     1       2.461   7.126  19.386  0.00  0.00    +0.000 N 
ATOM      4  N   UNL     1       1.905   5.265  20.703  0.00  0.00    +0.000 NA
ATOM      5  C   UNL     1       2.115   3.917  20.571  0.00  0.00    +0.000 A 
ATOM      6  C   UNL     1       2.785   3.635  19.404  0.00  0.00    +0.000 A 
ATOM      7  H   UNL     1       3.176   7.549  18.804  0.00  0.00    +0.000 HD
ATOM      8  H   UNL     1       2.225   7.717  20.181  0.00  0.00    +0.000 HD
ENDROOT
BRANCH   5   9
ATOM      9  C   UNL     1       1.674   2.993  21.571  0.00  0.00    +0.000 C 
ATOM     10  N   UNL     1       1.337   2.219  22.369  0.00  0.00    +0.000 NA
ENDBRANCH   5   9
BRANCH   6  11
ATOM     11  C   UNL     1       3.220   2.375  18.922  0.00  0.00    +0.000 C 
ATOM     12  N   UNL     1       3.564   1.355  18.495  0.00  0.00    +0.000 NA
ENDBRANCH   6  11
BRANCH   1  13
ATOM     13  C   UNL     1       3.542   5.079  17.483  0.00  0.00    +0.000 C 
BRANCH  13  18
ATOM     14  C   UNL     1       7.693   7.455  17.681  0.00  0.00    +0.000 C 
ATOM     15  C   UNL     1       6.543   6.754  16.985  0.00  0.00    +0.000 C 
ATOM     16  C   UNL     1       6.967   5.558  16.155  0.00  0.00    +0.000 C 
ATOM     17  C   UNL     1       5.673   4.783  16.070  0.00  0.00    +0.000 C 
ATOM     18  C   UNL     1       5.072   4.997  17.454  0.00  0.00    +0.000 C 
ATOM     19  O   UNL     1       5.609   6.244  17.951  0.00  0.00    +0.000 OA
ENDBRANCH  13  18
ENDBRANCH   1  13
TORSDOF 4
ENDMDL
MODEL 3
REMARK VINA RESULT:      -6.2      1.826      2.846
REMARK  Name = 
REMARK  5 active torsions:
REMARK  status: ('A' for Active; 'I' for Inactive)
REMARK    1  A    between atoms: C_1  and  C_2
REMARK    2  A    between atoms: C_5  and  C_6
REMARK    3  A    between atoms: C_6  and  N_7
REMARK    4  A    between atoms: C_11  and  C_12
REMARK    5  A    between atoms: C_14  and  C_15
REMARK                            x       y       z     vdW  Elec       q    Type
REMARK                         _______ _______ _______ _____ _____    ______ ____
ROOT
ATOM      1  N   UNL     1       5.721   4.816  17.781  0.00  0.00    +0.000 N 
ATOM      2  C   UNL     1       5.317   3.666  17.140  0.00  0.00    +0.000 A 
ATOM      3  N   UNL     1       4.590   2.704  17.723  0.00  0.00    +0.000 N 
ATOM      4  N   UNL     1       5.733   3.638  15.898  0.00  0.00    +0.000 NA
ATOM      5  C   UNL     1       6.467   4.784  15.729  0.00  0.00    +0.000 A 
ATOM      6  C   UNL     1       6.509   5.518  16.891  0.00  0.00    +0.000 A 
ATOM      7  H   UNL     1       4.617   2.536  18.722  0.00  0.00    +0.000 HD
ATOM      8  H   UNL     1       4.529   1.834  17.197  0.00  0.00    +0.000 HD
ENDROOT
BRANCH   5   9
ATOM      9  C   UNL     1       7.086   5.093  14.476  0.00  0.00    +0.000 C 
ATOM     10  N   UNL     1       7.578   5.377  13.463  0.00  0.00    +0.000 NA
ENDBRANCH   5   9
BRANCH   6  11
ATOM     11  C   UNL     1       7.190   6.737  17.136  0.00  0.00    +0.000 C 
ATOM     12  N   UNL     1       7.756   7.733  17.301  0.00  0.00    +0.000 NA
ENDBRANCH   6  11
BRANCH   1  13
ATOM     13  C   UNL     1       5.412   5.214  19.138  0.00  0.00    +0.000 C 
BRANCH  13  18
ATOM     14  C   UNL     1       0.916   3.901  20.126  0.00  0.00    +0.000 C 
ATOM     15  C   UNL     1       2.058   4.317  19.221  0.00  0.00    +0.000 C 
ATOM     16  C   UNL     1       1.792   5.594  18.448  0.00  0.00    +0.000 C 
ATOM     17  C   UNL     1       3.198   6.038  18.116  0.00  0.00    +0.000 C 
ATOM     18  C   UNL     1       3.966   5.661  19.377  0.00  0.00    +0.000 C 
ATOM     19  O   UNL     1       3.243   4.571  19.993  0.00  0.00    +0.000 OA
ENDBRANCH  13  18
ENDBRANCH   1  13
TORSDOF 4
ENDMDL
MODEL 4
REMARK VINA RESULT:      -6.1      1.641      2.867
REMARK  Name = 
REMARK  5 active torsions:
REMARK  status: ('A' for Active; 'I' for Inactive)
REMARK    1  A    between atoms: C_1  and  C_2
REMARK    2  A    between atoms: C_5  and  C_6
REMARK    3  A    between atoms: C_6  and  N_7
REMARK    4  A    between atoms: C_11  and  C_12
REMARK    5  A    between atoms: C_14  and  C_15
REMARK                            x       y       z     vdW  Elec       q    Type
REMARK                         _______ _______ _______ _____ _____    ______ ____
ROOT
ATOM      1  N   UNL     1       6.036   5.146  17.460  0.00  0.00    +0.000 N 
ATOM      2  C   UNL     1       5.804   5.816  16.279  0.00  0.00    +0.000 A 
ATOM      3  N   UNL     1       5.071   5.322  15.273  0.00  0.00    +0.000 N 
ATOM      4  N   UNL     1       6.388   6.989  16.271  0.00  0.00    +0.000 NA
ATOM      5  C   UNL     1       7.057   7.076  17.464  0.00  0.00    +0.000 A 
ATOM      6  C   UNL     1       6.889   5.932  18.208  0.00  0.00    +0.000 A 
ATOM      7  H   UNL     1       4.971   4.326  15.115  0.00  0.00    +0.000 HD
ATOM      8  H   UNL     1       5.142   5.837  14.397  0.00  0.00    +0.000 HD
ENDROOT
BRANCH   5   9
ATOM      9  C   UNL     1       7.820   8.238  17.806  0.00  0.00    +0.000 C 
ATOM     10  N   UNL     1       8.424   9.198  18.056  0.00  0.00    +0.000 NA
ENDBRANCH   5   9
BRANCH   6  11
ATOM     11  C   UNL     1       7.444   5.617  19.474  0.00  0.00    +0.000 C 
ATOM     12  N   UNL     1       7.872   5.335  20.512  0.00  0.00    +0.000 NA
ENDBRANCH   6  11
BRANCH   1  13
ATOM     13  C   UNL     1       5.517   3.851  17.845  0.00  0.00    +0.000 C 
BRANCH  13  18
ATOM     14  C   UNL     1       2.419   2.935  21.378  0.00  0.00    +0.000 C 
ATOM     15  C   UNL     1       3.173   2.631  20.098  0.00  0.00    +0.000 C 
ATOM     16  C   UNL     1       2.274   2.402  18.899  0.00  0.00    +0.000 C 
ATOM     17  C   UNL     1       3.225   2.682  17.759  0.00  0.00    +0.000 C 
ATOM     18  C   UNL     1       4.053   3.840  18.301  0.00  0.00    +0.000 C 
ATOM     19  O   UNL     1       4.021   3.735  19.742  0.00  0.00    +0.000 OA
ENDBRANCH  13  18
ENDBRANCH   1  13
TORSDOF 4
ENDMDL
MODEL 5
REMARK VINA RESULT:      -6.1      2.381      5.621
REMARK  Name = 
REMARK  5 active torsions:
REMARK  status: ('A' for Active; 'I' for Inactive)
REMARK    1  A    between atoms: C_1  and  C_2
REMARK    2  A    between atoms: C_5  and  C_6
REMARK    3  A    between atoms: C_6  and  N_7
REMARK    4  A    between atoms: C_11  and  C_12
REMARK    5  A    between atoms: C_14  and  C_15
REMARK                            x       y       z     vdW  Elec       q    Type
REMARK                         _______ _______ _______ _____ _____    ______ ____
ROOT
ATOM      1  N   UNL     1       3.962   5.159  18.881  0.00  0.00    +0.000 N 
ATOM      2  C   UNL     1       2.912   5.901  18.387  0.00  0.00    +0.000 A 
ATOM      3  N   UNL     1       3.007   7.194  18.049  0.00  0.00    +0.000 N 
ATOM      4  N   UNL     1       1.821   5.182  18.290  0.00  0.00    +0.000 NA
ATOM      5  C   UNL     1       2.151   3.942  18.773  0.00  0.00    +0.000 A 
ATOM      6  C   UNL     1       3.463   3.907  19.183  0.00  0.00    +0.000 A 
ATOM      7  H   UNL     1       3.681   7.817  18.479  0.00  0.00    +0.000 HD
ATOM      8  H   UNL     1       2.117   7.659  17.882  0.00  0.00    +0.000 HD
ENDROOT
BRANCH   5   9
ATOM      9  C   UNL     1       1.191   2.882  18.822  0.00  0.00    +0.000 C 
ATOM     10  N   UNL     1       0.425   2.009  18.830  0.00  0.00    +0.000 NA
ENDBRANCH   5   9
BRANCH   6  11
ATOM     11  C   UNL     1       4.172   2.829  19.771  0.00  0.00    +0.000 C 
ATOM     12  N   UNL     1       4.782   1.966  20.243  0.00  0.00    +0.000 NA
ENDBRANCH   6  11
BRANCH   1  13
ATOM     13  C   UNL     1       5.326   5.601  19.082  0.00  0.00    +0.000 C 
BRANCH  13  18
ATOM     14  C   UNL     1       5.735   4.526  14.435  0.00  0.00    +0.000 C 
ATOM     15  C   UNL     1       5.990   4.336  15.917  0.00  0.00    +0.000 C 
ATOM     16  C   UNL     1       7.456   4.401  16.299  0.00  0.00    +0.000 C 
ATOM     17  C   UNL     1       7.364   4.738  17.769  0.00  0.00    +0.000 C 
ATOM     18  C   UNL     1       6.178   5.694  17.812  0.00  0.00    +0.000 C 
ATOM     19  O   UNL     1       5.345   5.372  16.674  0.00  0.00    +0.000 OA
ENDBRANCH  13  18
ENDBRANCH   1  13
TORSDOF 4
ENDMDL
MODEL 6
REMARK VINA RESULT:      -6.1      2.397      5.310
REMARK  Name = 
REMARK  5 active torsions:
REMARK  status: ('A' for Active; 'I' for Inactive)
REMARK    1  A    between atoms: C_1  and  C_2
REMARK    2  A    between atoms: C_5  and  C_6
REMARK    3  A    between atoms: C_6  and  N_7
REMARK    4  A    between atoms: C_11  and  C_12
REMARK    5  A    between atoms: C_14  and  C_15
REMARK                            x       y       z     vdW  Elec       q    Type
REMARK                         _______ _______ _______ _____ _____    ______ ____
ROOT
ATOM      1  N   UNL     1       3.345   4.609  18.237  0.00  0.00    +0.000 N 
ATOM      2  C   UNL     1       2.899   5.700  18.950  0.00  0.00    +0.000 A 
ATOM      3  N   UNL     1       3.000   6.964  18.519  0.00  0.00    +0.000 N 
ATOM      4  N   UNL     1       2.368   5.340  20.092  0.00  0.00    +0.000 NA
ATOM      5  C   UNL     1       2.505   3.977  20.151  0.00  0.00    +0.000 A 
ATOM      6  C   UNL     1       3.141   3.498  19.031  0.00  0.00    +0.000 A 
ATOM      7  H   UNL     1       3.727   7.261  17.878  0.00  0.00    +0.000 HD
ATOM      8  H   UNL     1       2.807   7.673  19.224  0.00  0.00    +0.000 HD
ENDROOT
BRANCH   5   9
ATOM      9  C   UNL     1       2.031   3.230  21.276  0.00  0.00    +0.000 C 
ATOM     10  N   UNL     1       1.673   2.637  22.208  0.00  0.00    +0.000 NA
ENDBRANCH   5   9
BRANCH   6  11
ATOM     11  C   UNL     1       3.502   2.160  18.729  0.00  0.00    +0.000 C 
ATOM     12  N   UNL     1       3.794   1.060  18.519  0.00  0.00    +0.000 NA
ENDBRANCH   6  11
BRANCH   1  13
ATOM     13  C   UNL     1       3.943   4.613  16.918  0.00  0.00    +0.000 C 
BRANCH  13  18
ATOM     14  C   UNL     1       7.894   5.640  19.417  0.00  0.00    +0.000 C 
ATOM     15  C   UNL     1       6.698   5.963  18.544  0.00  0.00    +0.000 C 
ATOM     16  C   UNL     1       7.063   6.588  17.212  0.00  0.00    +0.000 C 
ATOM     17  C   UNL     1       5.830   6.283  16.394  0.00  0.00    +0.000 C 
ATOM     18  C   UNL     1       5.449   4.891  16.883  0.00  0.00    +0.000 C 
ATOM     19  O   UNL     1       5.972   4.766  18.225  0.00  0.00    +0.000 OA
ENDBRANCH  13  18
ENDBRANCH   1  13
TORSDOF 4
ENDMDL
MODEL 7
REMARK VINA RESULT:      -6.1      2.879      3.522
REMARK  Name = 
REMARK  5 active torsions:
REMARK  status: ('A' for Active; 'I' for Inactive)
REMARK    1  A    between atoms: C_1  and  C_2
REMARK    2  A    between atoms: C_5  and  C_6
REMARK    3  A    between atoms: C_6  and  N_7
REMARK    4  A    between atoms: C_11  and  C_12
REMARK    5  A    between atoms: C_14  and  C_15
REMARK                            x       y       z     vdW  Elec       q    Type
REMARK                         _______ _______ _______ _____ _____    ______ ____
ROOT
ATOM      1  N   UNL     1       3.788   5.858  18.314  0.00  0.00    +0.000 N 
ATOM      2  C   UNL     1       4.103   5.138  19.445  0.00  0.00    +0.000 A 
ATOM      3  N   UNL     1       3.297   5.029  20.508  0.00  0.00    +0.000 N 
ATOM      4  N   UNL     1       5.284   4.578  19.342  0.00  0.00    +0.000 NA
ATOM      5  C   UNL     1       5.776   4.975  18.126  0.00  0.00    +0.000 A 
ATOM      6  C   UNL     1       4.887   5.801  17.480  0.00  0.00    +0.000 A 
ATOM      7  H   UNL     1       2.618   5.742  20.748  0.00  0.00    +0.000 HD
ATOM      8  H   UNL     1       3.733   4.631  21.338  0.00  0.00    +0.000 HD
ENDROOT
BRANCH   5   9
ATOM      9  C   UNL     1       7.065   4.550  17.670  0.00  0.00    +0.000 C 
ATOM     10  N   UNL     1       8.123   4.239  17.305  0.00  0.00    +0.000 NA
ENDBRANCH   5   9
BRANCH   6  11
ATOM     11  C   UNL     1       5.038   6.447  16.227  0.00  0.00    +0.000 C 
ATOM     12  N   UNL     1       5.144   7.004  15.218  0.00  0.00    +0.000 NA
ENDBRANCH   6  11
BRANCH   1  13
ATOM     13  C   UNL     1       2.556   6.571  18.048  0.00  0.00    +0.000 C 
BRANCH  13  18
ATOM     14  C   UNL     1       0.958   9.444  21.527  0.00  0.00    +0.000 C 
ATOM     15  C   UNL     1       0.930   8.803  20.154  0.00  0.00    +0.000 C 
ATOM     16  C   UNL     1       1.011   9.797  19.012  0.00  0.00    +0.000 C 
ATOM     17  C   UNL     1       1.513   8.919  17.890  0.00  0.00    +0.000 C 
ATOM     18  C   UNL     1       2.489   7.995  18.609  0.00  0.00    +0.000 C 
ATOM     19  O   UNL     1       2.058   7.928  19.987  0.00  0.00    +0.000 OA
ENDBRANCH  13  18
ENDBRANCH   1  13
TORSDOF 4
ENDMDL
MODEL 8
REMARK VINA RESULT:      -6.0      2.015      2.426
REMARK  Name = 
REMARK  5 active torsions:
REMARK  status: ('A' for Active; 'I' for Inactive)
REMARK    1  A    between atoms: C_1  and  C_2
REMARK    2  A    between atoms: C_5  and  C_6
REMARK    3  A    between atoms: C_6  and  N_7
REMARK    4  A    between atoms: C_11  and  C_12
REMARK    5  A    between atoms: C_14  and  C_15
REMARK                            x       y       z     vdW  Elec       q    Type
REMARK                         _______ _______ _______ _____ _____    ______ ____
ROOT
ATOM      1  N   UNL     1       3.687   4.822  17.367  0.00  0.00    +0.000 N 
ATOM      2  C   UNL     1       3.325   5.930  18.101  0.00  0.00    +0.000 A 
ATOM      3  N   UNL     1       2.144   6.061  18.720  0.00  0.00    +0.000 N 
ATOM      4  N   UNL     1       4.279   6.827  18.115  0.00  0.00    +0.000 NA
ATOM      5  C   UNL     1       5.282   6.313  17.334  0.00  0.00    +0.000 A 
ATOM      6  C   UNL     1       4.928   5.086  16.824  0.00  0.00    +0.000 A 
ATOM      7  H   UNL     1       1.308   5.590  18.395  0.00  0.00    +0.000 HD
ATOM      8  H   UNL     1       1.941   6.999  19.060  0.00  0.00    +0.000 HD
ENDROOT
BRANCH   5   9
ATOM      9  C   UNL     1       6.500   7.033  17.117  0.00  0.00    +0.000 C 
ATOM     10  N   UNL     1       7.503   7.598  16.968  0.00  0.00    +0.000 NA
ENDBRANCH   5   9
BRANCH   6  11
ATOM     11  C   UNL     1       5.668   4.252  15.949  0.00  0.00    +0.000 C 
ATOM     12  N   UNL     1       6.281   3.600  15.215  0.00  0.00    +0.000 NA
ENDBRANCH   6  11
BRANCH   1  13
ATOM     13  C   UNL     1       2.912   3.615  17.168  0.00  0.00    +0.000 C 
BRANCH  13  18
ATOM     14  C   UNL     1       1.480   2.664  21.635  0.00  0.00    +0.000 C 
ATOM     15  C   UNL     1       2.462   3.124  20.575  0.00  0.00    +0.000 C 
ATOM     16  C   UNL     1       3.743   2.314  20.535  0.00  0.00    +0.000 C 
ATOM     17  C   UNL     1       4.226   2.595  19.131  0.00  0.00    +0.000 C 
ATOM     18  C   UNL     1       2.925   2.626  18.338  0.00  0.00    +0.000 C 
ATOM     19  O   UNL     1       1.882   2.999  19.267  0.00  0.00    +0.000 OA
ENDBRANCH  13  18
ENDBRANCH   1  13
TORSDOF 4
ENDMDL
MODEL 9
REMARK VINA RESULT:      -6.0      1.549      3.049
REMARK  Name = 
REMARK  5 active torsions:
REMARK  status: ('A' for Active; 'I' for Inactive)
REMARK    1  A    between atoms: C_1  and  C_2
REMARK    2  A    between atoms: C_5  and  C_6
REMARK    3  A    between atoms: C_6  and  N_7
REMARK    4  A    between atoms: C_11  and  C_12
REMARK    5  A    between atoms: C_14  and  C_15
REMARK                            x       y       z     vdW  Elec       q    Type
REMARK                         _______ _______ _______ _____ _____    ______ ____
ROOT
ATOM      1  N   UNL     1       6.034   5.269  17.427  0.00  0.00    +0.000 N 
ATOM      2  C   UNL     1       5.839   5.968  16.256  0.00  0.00    +0.000 A 
ATOM      3  N   UNL     1       5.101   5.518  15.233  0.00  0.00    +0.000 N 
ATOM      4  N   UNL     1       6.462   7.121  16.278  0.00  0.00    +0.000 NA
ATOM      5  C   UNL     1       7.119   7.163  17.480  0.00  0.00    +0.000 A 
ATOM      6  C   UNL     1       6.904   6.011  18.199  0.00  0.00    +0.000 A 
ATOM      7  H   UNL     1       4.970   4.529  15.054  0.00  0.00    +0.000 HD
ATOM      8  H   UNL     1       5.201   6.047  14.368  0.00  0.00    +0.000 HD
ENDROOT
BRANCH   5   9
ATOM      9  C   UNL     1       7.917   8.291  17.852  0.00  0.00    +0.000 C 
ATOM     10  N   UNL     1       8.563   9.196  18.189  0.00  0.00    +0.000 NA
ENDBRANCH   5   9
BRANCH   6  11
ATOM     11  C   UNL     1       7.433   5.654  19.465  0.00  0.00    +0.000 C 
ATOM     12  N   UNL     1       7.847   5.331  20.497  0.00  0.00    +0.000 NA
ENDBRANCH   6  11
BRANCH   1  13
ATOM     13  C   UNL     1       5.467   3.985  17.781  0.00  0.00    +0.000 C 
BRANCH  13  18
ATOM     14  C   UNL     1       1.106   2.249  18.723  0.00  0.00    +0.000 C 
ATOM     15  C   UNL     1       2.094   3.246  18.151  0.00  0.00    +0.000 C 
ATOM     16  C   UNL     1       1.943   4.648  18.710  0.00  0.00    +0.000 C 
ATOM     17  C   UNL     1       3.308   5.229  18.426  0.00  0.00    +0.000 C 
ATOM     18  C   UNL     1       4.228   4.041  18.682  0.00  0.00    +0.000 C 
ATOM     19  O   UNL     1       3.441   2.850  18.456  0.00  0.00    +0.000 OA
ENDBRANCH  13  18
ENDBRANCH   1  13
TORSDOF 4
ENDMDL
