MODEL 1
REMARK VINA RESULT:      -8.2      0.000      0.000
REMARK  Name = 
REMARK  5 active torsions:
REMARK  status: ('A' for Active; 'I' for Inactive)
REMARK    1  A    between atoms: C_1  and  C_2
REMARK    2  A    between atoms: C_2  and  C_4
REMARK    3  A    between atoms: C_7  and  C_8
REMARK    4  A    between atoms: C_16  and  C_18
REMARK    5  A    between atoms: C_25  and  C_26
REMARK                            x       y       z     vdW  Elec       q    Type
REMARK                         _______ _______ _______ _____ _____    ______ ____
ROOT
ATOM      1  C   UNL     1       6.196   4.407  13.825  0.00  0.00    +0.000 A 
ATOM      2  N   UNL     1       7.419   4.896  13.777  0.00  0.00    +0.000 NA
ATOM      3  N   UNL     1       7.713   5.443  15.007  0.00  0.00    +0.000 NA
ATOM      4  C   UNL     1       6.664   5.280  15.785  0.00  0.00    +0.000 A 
ATOM      5  N   UNL     1       5.681   4.656  15.066  0.00  0.00    +0.000 N 
ATOM      6  C   UNL     1       4.401   4.279  15.601  0.00  0.00    +0.000 C 
ATOM      7  C   UNL     1       4.128   4.929  16.953  0.00  0.00    +0.000 C 
ATOM      8  N   UNL     1       5.322   5.015  17.807  0.00  0.00    +0.000 N 
ATOM      9  C   UNL     1       5.413   4.643  19.156  0.00  0.00    +0.000 C 
ATOM     10  O   UNL     1       6.468   4.702  19.785  0.00  0.00    +0.000 OA
ATOM     11  C   UNL     1       6.496   5.697  17.215  0.00  0.00    +0.000 C 
ATOM     12  C   UNL     1       6.346   7.218  17.313  0.00  0.00    +0.000 C 
ENDROOT
BRANCH   9  13
ATOM     13  C   UNL     1       4.224   4.129  19.894  0.00  0.00    +0.000 A 
ATOM     14  C   UNL     1       3.197   5.025  20.228  0.00  0.00    +0.000 A 
ATOM     15  C   UNL     1       2.089   4.586  20.960  0.00  0.00    +0.000 A 
ATOM     16  C   UNL     1       2.020   3.257  21.363  0.00  0.00    +0.000 A 
ATOM     17  F   UNL     1       0.987   2.843  22.108  0.00  0.00    +0.000 F 
ATOM     18  C   UNL     1       3.001   2.346  20.991  0.00  0.00    +0.000 A 
ATOM     19  C   UNL     1       4.077   2.774  20.212  0.00  0.00    +0.000 A 
ENDBRANCH   9  13
BRANCH   1  23
ATOM     20  C   UNL     1       4.177   3.143  11.252  0.00  0.00    +0.000 A 
ATOM     21  N   UNL     1       5.157   2.236  11.146  0.00  0.00    +0.000 NA
ATOM     22  O   UNL     1       6.061   2.622  12.138  0.00  0.00    +0.000 OA
ATOM     23  C   UNL     1       5.539   3.725  12.754  0.00  0.00    +0.000 A 
ATOM     24  N   UNL     1       4.369   4.078  12.246  0.00  0.00    +0.000 NA
BRANCH  20  26
ATOM     25  C   UNL     1       2.892   4.347   9.481  0.00  0.00    +0.000 C 
ATOM     26  C   UNL     1       2.974   3.118  10.371  0.00  0.00    +0.000 C 
ATOM     27  F   UNL     1       2.988   2.018   9.557  0.00  0.00    +0.000 F 
ENDBRANCH  20  26
ENDBRANCH   1  23
TORSDOF 3
ENDMDL
MODEL 2
REMARK VINA RESULT:      -7.7      0.627      1.174
REMARK  Name = 
REMARK  5 active torsions:
REMARK  status: ('A' for Active; 'I' for Inactive)
REMARK    1  A    between atoms: C_1  and  C_2
REMARK    2  A    between atoms: C_2  and  C_4
REMARK    3  A    between atoms: C_7  and  C_8
REMARK    4  A    between atoms: C_16  and  C_18
REMARK    5  A    between atoms: C_25  and  C_26
REMARK                            x       y       z     vdW  Elec       q    Type
REMARK                         _______ _______ _______ _____ _____    ______ ____
ROOT
ATOM      1  C   UNL     1       6.442   4.463  13.965  0.00  0.00    +0.000 A 
ATOM      2  N   UNL     1       7.649   4.988  13.968  0.00  0.00    +0.000 NA
ATOM      3  N   UNL     1       7.858   5.584  15.192  0.00  0.00    +0.000 NA
ATOM      4  C   UNL     1       6.773   5.413  15.917  0.00  0.00    +0.000 A 
ATOM      5  N   UNL     1       5.851   4.735  15.167  0.00  0.00    +0.000 N 
ATOM      6  C   UNL     1       4.555   4.335  15.644  0.00  0.00    +0.000 C 
ATOM      7  C   UNL     1       4.187   5.018  16.955  0.00  0.00    +0.000 C 
ATOM      8  N   UNL     1       5.328   5.170  17.871  0.00  0.00    +0.000 N 
ATOM      9  C   UNL     1       5.355   4.845  19.235  0.00  0.00    +0.000 C 
ATOM     10  O   UNL     1       6.371   4.957  19.918  0.00  0.00    +0.000 OA
ATOM     11  C   UNL     1       6.512   5.870  17.321  0.00  0.00    +0.000 C 
ATOM     12  C   UNL     1       6.312   7.387  17.358  0.00  0.00    +0.000 C 
ENDROOT
BRANCH   9  13
ATOM     13  C   UNL     1       4.143   4.317  19.922  0.00  0.00    +0.000 A 
ATOM     14  C   UNL     1       4.100   2.957  20.269  0.00  0.00    +0.000 A 
ATOM     15  C   UNL     1       2.959   2.420  20.872  0.00  0.00    +0.000 A 
ATOM     16  C   UNL     1       1.864   3.240  21.117  0.00  0.00    +0.000 A 
ATOM     17  F   UNL     1       0.750   2.720  21.647  0.00  0.00    +0.000 F 
ATOM     18  C   UNL     1       1.913   4.599  20.832  0.00  0.00    +0.000 A 
ATOM     19  C   UNL     1       3.073   5.146  20.281  0.00  0.00    +0.000 A 
ENDBRANCH   9  13
BRANCH   1  23
ATOM     20  C   UNL     1       4.643   3.087  11.287  0.00  0.00    +0.000 A 
ATOM     21  N   UNL     1       5.575   2.127  11.364  0.00  0.00    +0.000 NA
ATOM     22  O   UNL     1       6.387   2.550  12.419  0.00  0.00    +0.000 OA
ATOM     23  C   UNL     1       5.866   3.726  12.883  0.00  0.00    +0.000 A 
ATOM     24  N   UNL     1       4.781   4.092  12.220  0.00  0.00    +0.000 NA
BRANCH  20  26
ATOM     25  C   UNL     1       2.291   2.384  10.827  0.00  0.00    +0.000 C 
ATOM     26  C   UNL     1       3.544   3.047  10.280  0.00  0.00    +0.000 C 
ATOM     27  F   UNL     1       3.203   4.311   9.881  0.00  0.00    +0.000 F 
ENDBRANCH  20  26
ENDBRANCH   1  23
TORSDOF 3
ENDMDL
MODEL 3
REMARK VINA RESULT:      -7.7      5.835      9.119
REMARK  Name = 
REMARK  5 active torsions:
REMARK  status: ('A' for Active; 'I' for Inactive)
REMARK    1  A    between atoms: C_1  and  C_2
REMARK    2  A    between atoms: C_2  and  C_4
REMARK    3  A    between atoms: C_7  and  C_8
REMARK    4  A    between atoms: C_16  and  C_18
REMARK    5  A    between atoms: C_25  and  C_26
REMARK                            x       y       z     vdW  Elec       q    Type
REMARK                         _______ _______ _______ _____ _____    ______ ____
ROOT
ATOM      1  C   UNL     1       0.910   9.534  20.251  0.00  0.00    +0.000 A 
ATOM      2  N   UNL     1       0.613   9.172  21.482  0.00  0.00    +0.000 NA
ATOM      3  N   UNL     1       1.079   7.890  21.679  0.00  0.00    +0.000 NA
ATOM      4  C   UNL     1       1.652   7.491  20.564  0.00  0.00    +0.000 A 
ATOM      5  N   UNL     1       1.541   8.490  19.635  0.00  0.00    +0.000 N 
ATOM      6  C   UNL     1       2.086   8.426  18.307  0.00  0.00    +0.000 C 
ATOM      7  C   UNL     1       2.519   7.014  17.930  0.00  0.00    +0.000 C 
ATOM      8  N   UNL     1       3.130   6.277  19.046  0.00  0.00    +0.000 N 
ATOM      9  C   UNL     1       4.330   5.551  19.012  0.00  0.00    +0.000 C 
ATOM     10  O   UNL     1       4.796   5.003  20.010  0.00  0.00    +0.000 OA
ATOM     11  C   UNL     1       2.316   6.178  20.280  0.00  0.00    +0.000 C 
ATOM     12  C   UNL     1       1.269   5.068  20.152  0.00  0.00    +0.000 C 
ENDROOT
BRANCH   9  13
ATOM     13  C   UNL     1       5.120   5.431  17.754  0.00  0.00    +0.000 A 
ATOM     14  C   UNL     1       4.726   4.481  16.798  0.00  0.00    +0.000 A 
ATOM     15  C   UNL     1       5.472   4.310  15.628  0.00  0.00    +0.000 A 
ATOM     16  C   UNL     1       6.612   5.079  15.425  0.00  0.00    +0.000 A 
ATOM     17  F   UNL     1       7.359   4.883  14.331  0.00  0.00    +0.000 F 
ATOM     18  C   UNL     1       6.981   6.062  16.335  0.00  0.00    +0.000 A 
ATOM     19  C   UNL     1       6.204   6.270  17.475  0.00  0.00    +0.000 A 
ENDBRANCH   9  13
BRANCH   1  23
ATOM     20  C   UNL     1       0.656  12.854  19.151  0.00  0.00    +0.000 A 
ATOM     21  N   UNL     1      -0.365  12.369  18.432  0.00  0.00    +0.000 NA
ATOM     22  O   UNL     1      -0.388  11.016  18.777  0.00  0.00    +0.000 OA
ATOM     23  C   UNL     1       0.622  10.811  19.676  0.00  0.00    +0.000 A 
ATOM     24  N   UNL     1       1.288  11.922  19.945  0.00  0.00    +0.000 NA
BRANCH  20  26
ATOM     25  C   UNL     1       2.407  14.485  18.435  0.00  0.00    +0.000 C 
ATOM     26  C   UNL     1       1.053  14.290  19.097  0.00  0.00    +0.000 C 
ATOM     27  F   UNL     1       0.138  15.023  18.391  0.00  0.00    +0.000 F 
ENDBRANCH  20  26
ENDBRANCH   1  23
TORSDOF 3
ENDMDL
MODEL 4
REMARK VINA RESULT:      -7.7      5.833      9.083
REMARK  Name = 
REMARK  5 active torsions:
REMARK  status: ('A' for Active; 'I' for Inactive)
REMARK    1  A    between atoms: C_1  and  C_2
REMARK    2  A    between atoms: C_2  and  C_4
REMARK    3  A    between atoms: C_7  and  C_8
REMARK    4  A    between atoms: C_16  and  C_18
REMARK    5  A    between atoms: C_25  and  C_26
REMARK                            x       y       z     vdW  Elec       q    Type
REMARK                         _______ _______ _______ _____ _____    ______ ____
ROOT
ATOM      1  C   UNL     1       0.960   9.529  20.147  0.00  0.00    +0.000 A 
ATOM      2  N   UNL     1       0.714   9.220  21.404  0.00  0.00    +0.000 NA
ATOM      3  N   UNL     1       1.196   7.950  21.639  0.00  0.00    +0.000 NA
ATOM      4  C   UNL     1       1.727   7.505  20.521  0.00  0.00    +0.000 A 
ATOM      5  N   UNL     1       1.573   8.461  19.554  0.00  0.00    +0.000 N 
ATOM      6  C   UNL     1       2.066   8.340  18.209  0.00  0.00    +0.000 C 
ATOM      7  C   UNL     1       2.493   6.915  17.878  0.00  0.00    +0.000 C 
ATOM      8  N   UNL     1       3.151   6.231  19.000  0.00  0.00    +0.000 N 
ATOM      9  C   UNL     1       4.354   5.510  18.951  0.00  0.00    +0.000 C 
ATOM     10  O   UNL     1       4.861   5.008  19.953  0.00  0.00    +0.000 OA
ATOM     11  C   UNL     1       2.387   6.183  20.269  0.00  0.00    +0.000 C 
ATOM     12  C   UNL     1       1.343   5.064  20.231  0.00  0.00    +0.000 C 
ENDROOT
BRANCH   9  13
ATOM     13  C   UNL     1       5.094   5.337  17.669  0.00  0.00    +0.000 A 
ATOM     14  C   UNL     1       6.245   6.108  17.445  0.00  0.00    +0.000 A 
ATOM     15  C   UNL     1       6.936   6.004  16.234  0.00  0.00    +0.000 A 
ATOM     16  C   UNL     1       6.468   5.141  15.250  0.00  0.00    +0.000 A 
ATOM     17  F   UNL     1       7.096   5.076  14.070  0.00  0.00    +0.000 F 
ATOM     18  C   UNL     1       5.363   4.330  15.481  0.00  0.00    +0.000 A 
ATOM     19  C   UNL     1       4.708   4.393  16.711  0.00  0.00    +0.000 A 
ENDBRANCH   9  13
BRANCH   1  23
ATOM     20  C   UNL     1       0.691  12.770  18.836  0.00  0.00    +0.000 A 
ATOM     21  N   UNL     1      -0.470  12.306  18.355  0.00  0.00    +0.000 NA
ATOM     22  O   UNL     1      -0.503  10.986  18.811  0.00  0.00    +0.000 OA
ATOM     23  C   UNL     1       0.643  10.778  19.528  0.00  0.00    +0.000 A 
ATOM     24  N   UNL     1       1.406  11.857  19.580  0.00  0.00    +0.000 NA
BRANCH  20  26
ATOM     25  C   UNL     1       0.059  15.186  18.878  0.00  0.00    +0.000 C 
ATOM     26  C   UNL     1       1.150  14.168  18.592  0.00  0.00    +0.000 C 
ATOM     27  F   UNL     1       2.221  14.475  19.387  0.00  0.00    +0.000 F 
ENDBRANCH  20  26
ENDBRANCH   1  23
TORSDOF 3
ENDMDL
MODEL 5
REMARK VINA RESULT:      -7.5      5.241      8.561
REMARK  Name = 
REMARK  5 active torsions:
REMARK  status: ('A' for Active; 'I' for Inactive)
REMARK    1  A    between atoms: C_1  and  C_2
REMARK    2  A    between atoms: C_2  and  C_4
REMARK    3  A    between atoms: C_7  and  C_8
REMARK    4  A    between atoms: C_16  and  C_18
REMARK    5  A    between atoms: C_25  and  C_26
REMARK                            x       y       z     vdW  Elec       q    Type
REMARK                         _______ _______ _______ _____ _____    ______ ____
ROOT
ATOM      1  C   UNL     1       1.238   8.645  20.026  0.00  0.00    +0.000 A 
ATOM      2  N   UNL     1       1.050   8.264  21.273  0.00  0.00    +0.000 NA
ATOM      3  N   UNL     1       1.624   7.023  21.437  0.00  0.00    +0.000 NA
ATOM      4  C   UNL     1       2.153   6.666  20.286  0.00  0.00    +0.000 A 
ATOM      5  N   UNL     1       1.907   7.651  19.369  0.00  0.00    +0.000 N 
ATOM      6  C   UNL     1       2.369   7.625  18.008  0.00  0.00    +0.000 C 
ATOM      7  C   UNL     1       2.884   6.249  17.601  0.00  0.00    +0.000 C 
ATOM      8  N   UNL     1       3.619   5.564  18.673  0.00  0.00    +0.000 N 
ATOM      9  C   UNL     1       4.866   4.932  18.561  0.00  0.00    +0.000 C 
ATOM     10  O   UNL     1       5.436   4.424  19.526  0.00  0.00    +0.000 OA
ATOM     11  C   UNL     1       2.896   5.406  19.957  0.00  0.00    +0.000 C 
ATOM     12  C   UNL     1       1.931   4.219  19.894  0.00  0.00    +0.000 C 
ENDROOT
BRANCH   9  13
ATOM     13  C   UNL     1       5.581   4.869  17.255  0.00  0.00    +0.000 A 
ATOM     14  C   UNL     1       6.678   5.718  17.043  0.00  0.00    +0.000 A 
ATOM     15  C   UNL     1       7.341   5.717  15.812  0.00  0.00    +0.000 A 
ATOM     16  C   UNL     1       6.898   4.877  14.796  0.00  0.00    +0.000 A 
ATOM     17  F   UNL     1       7.497   4.910  13.599  0.00  0.00    +0.000 F 
ATOM     18  C   UNL     1       5.849   3.991  15.011  0.00  0.00    +0.000 A 
ATOM     19  C   UNL     1       5.225   3.953  16.258  0.00  0.00    +0.000 A 
ENDBRANCH   9  13
BRANCH   1  23
ATOM     20  C   UNL     1      -0.316  11.467  18.640  0.00  0.00    +0.000 A 
ATOM     21  N   UNL     1       0.908  11.999  18.755  0.00  0.00    +0.000 NA
ATOM     22  O   UNL     1       1.660  10.960  19.309  0.00  0.00    +0.000 OA
ATOM     23  C   UNL     1       0.818   9.895  19.474  0.00  0.00    +0.000 A 
ATOM     24  N   UNL     1      -0.412  10.159  19.064  0.00  0.00    +0.000 NA
BRANCH  20  26
ATOM     25  C   UNL     1      -2.306  11.396  17.132  0.00  0.00    +0.000 C 
ATOM     26  C   UNL     1      -1.466  12.234  18.082  0.00  0.00    +0.000 C 
ATOM     27  F   UNL     1      -2.288  12.676  19.082  0.00  0.00    +0.000 F 
ENDBRANCH  20  26
ENDBRANCH   1  23
TORSDOF 3
ENDMDL
MODEL 6
REMARK VINA RESULT:      -7.3      9.344     11.784
REMARK  Name = 
REMARK  5 active torsions:
REMARK  status: ('A' for Active; 'I' for Inactive)
REMARK    1  A    between atoms: C_1  and  C_2
REMARK    2  A    between atoms: C_2  and  C_4
REMARK    3  A    between atoms: C_7  and  C_8
REMARK    4  A    between atoms: C_16  and  C_18
REMARK    5  A    between atoms: C_25  and  C_26
REMARK                            x       y       z     vdW  Elec       q    Type
REMARK                         _______ _______ _______ _____ _____    ______ ____
ROOT
ATOM      1  C   UNL     1       0.471   9.964  21.245  0.00  0.00    +0.000 A 
ATOM      2  N   UNL     1       0.713   9.723  22.518  0.00  0.00    +0.000 NA
ATOM      3  N   UNL     1      -0.150  10.487  23.274  0.00  0.00    +0.000 NA
ATOM      4  C   UNL     1      -0.904  11.182  22.450  0.00  0.00    +0.000 A 
ATOM      5  N   UNL     1      -0.523  10.899  21.166  0.00  0.00    +0.000 N 
ATOM      6  C   UNL     1      -1.152  11.447  19.995  0.00  0.00    +0.000 C 
ATOM      7  C   UNL     1      -2.070  12.617  20.329  0.00  0.00    +0.000 C 
ATOM      8  N   UNL     1      -2.814  12.432  21.583  0.00  0.00    +0.000 N 
ATOM      9  C   UNL     1      -4.189  12.629  21.776  0.00  0.00    +0.000 C 
ATOM     10  O   UNL     1      -4.742  12.402  22.852  0.00  0.00    +0.000 OA
ATOM     11  C   UNL     1      -1.997  12.151  22.786  0.00  0.00    +0.000 C 
ATOM     12  C   UNL     1      -1.407  13.444  23.356  0.00  0.00    +0.000 C 
ENDROOT
BRANCH   9  13
ATOM     13  C   UNL     1      -5.061  13.105  20.665  0.00  0.00    +0.000 A 
ATOM     14  C   UNL     1      -5.539  12.170  19.733  0.00  0.00    +0.000 A 
ATOM     15  C   UNL     1      -6.320  12.590  18.652  0.00  0.00    +0.000 A 
ATOM     16  C   UNL     1      -6.610  13.941  18.502  0.00  0.00    +0.000 A 
ATOM     17  F   UNL     1      -7.314  14.355  17.441  0.00  0.00    +0.000 F 
ATOM     18  C   UNL     1      -6.191  14.870  19.447  0.00  0.00    +0.000 A 
ATOM     19  C   UNL     1      -5.460  14.442  20.555  0.00  0.00    +0.000 A 
ENDBRANCH   9  13
BRANCH   1  23
ATOM     20  C   UNL     1       2.117   7.958  18.887  0.00  0.00    +0.000 A 
ATOM     21  N   UNL     1       2.041   9.063  18.133  0.00  0.00    +0.000 NA
ATOM     22  O   UNL     1       1.390   9.976  18.964  0.00  0.00    +0.000 OA
ATOM     23  C   UNL     1       1.137   9.338  20.147  0.00  0.00    +0.000 A 
ATOM     24  N   UNL     1       1.579   8.091  20.149  0.00  0.00    +0.000 NA
BRANCH  20  26
ATOM     25  C   UNL     1       3.324   5.867  19.528  0.00  0.00    +0.000 C 
ATOM     26  C   UNL     1       2.752   6.702  18.395  0.00  0.00    +0.000 C 
ATOM     27  F   UNL     1       1.844   5.927  17.727  0.00  0.00    +0.000 F 
ENDBRANCH  20  26
ENDBRANCH   1  23
TORSDOF 3
ENDMDL
MODEL 7
REMARK VINA RESULT:      -7.3      9.278     11.781
REMARK  Name = 
REMARK  5 active torsions:
REMARK  status: ('A' for Active; 'I' for Inactive)
REMARK    1  A    between atoms: C_1  and  C_2
REMARK    2  A    between atoms: C_2  and  C_4
REMARK    3  A    between atoms: C_7  and  C_8
REMARK    4  A    between atoms: C_16  and  C_18
REMARK    5  A    between atoms: C_25  and  C_26
REMARK                            x       y       z     vdW  Elec       q    Type
REMARK                         _______ _______ _______ _____ _____    ______ ____
ROOT
ATOM      1  C   UNL     1       0.442   9.772  21.522  0.00  0.00    +0.000 A 
ATOM      2  N   UNL     1       0.635   9.606  22.814  0.00  0.00    +0.000 NA
ATOM      3  N   UNL     1      -0.216  10.452  23.490  0.00  0.00    +0.000 NA
ATOM      4  C   UNL     1      -0.915  11.122  22.600  0.00  0.00    +0.000 A 
ATOM      5  N   UNL     1      -0.509  10.740  21.350  0.00  0.00    +0.000 N 
ATOM      6  C   UNL     1      -1.078  11.234  20.126  0.00  0.00    +0.000 C 
ATOM      7  C   UNL     1      -1.954  12.460  20.353  0.00  0.00    +0.000 C 
ATOM      8  N   UNL     1      -2.743  12.389  21.592  0.00  0.00    +0.000 N 
ATOM      9  C   UNL     1      -4.114  12.654  21.727  0.00  0.00    +0.000 C 
ATOM     10  O   UNL     1      -4.708  12.521  22.796  0.00  0.00    +0.000 OA
ATOM     11  C   UNL     1      -1.976  12.154  22.837  0.00  0.00    +0.000 C 
ATOM     12  C   UNL     1      -1.348  13.457  23.341  0.00  0.00    +0.000 C 
ENDROOT
BRANCH   9  13
ATOM     13  C   UNL     1      -4.931  13.091  20.559  0.00  0.00    +0.000 A 
ATOM     14  C   UNL     1      -5.438  14.399  20.542  0.00  0.00    +0.000 A 
ATOM     15  C   UNL     1      -6.247  14.826  19.484  0.00  0.00    +0.000 A 
ATOM     16  C   UNL     1      -6.553  13.942  18.457  0.00  0.00    +0.000 A 
ATOM     17  F   UNL     1      -7.369  14.329  17.468  0.00  0.00    +0.000 F 
ATOM     18  C   UNL     1      -6.012  12.662  18.432  0.00  0.00    +0.000 A 
ATOM     19  C   UNL     1      -5.159  12.256  19.459  0.00  0.00    +0.000 A 
ENDBRANCH   9  13
BRANCH   1  23
ATOM     20  C   UNL     1       2.127   7.571  19.375  0.00  0.00    +0.000 A 
ATOM     21  N   UNL     1       1.991   8.575  18.499  0.00  0.00    +0.000 NA
ATOM     22  O   UNL     1       1.317   9.554  19.234  0.00  0.00    +0.000 OA
ATOM     23  C   UNL     1       1.113   9.048  20.488  0.00  0.00    +0.000 A 
ATOM     24  N   UNL     1       1.607   7.829  20.625  0.00  0.00    +0.000 NA
BRANCH  20  26
ATOM     25  C   UNL     1       2.636   5.234  20.094  0.00  0.00    +0.000 C 
ATOM     26  C   UNL     1       2.805   6.292  19.017  0.00  0.00    +0.000 C 
ATOM     27  F   UNL     1       2.299   5.781  17.853  0.00  0.00    +0.000 F 
ENDBRANCH  20  26
ENDBRANCH   1  23
TORSDOF 3
ENDMDL
MODEL 8
REMARK VINA RESULT:      -7.2      5.646      8.611
REMARK  Name = 
REMARK  5 active torsions:
REMARK  status: ('A' for Active; 'I' for Inactive)
REMARK    1  A    between atoms: C_1  and  C_2
REMARK    2  A    between atoms: C_2  and  C_4
REMARK    3  A    between atoms: C_7  and  C_8
REMARK    4  A    between atoms: C_16  and  C_18
REMARK    5  A    between atoms: C_25  and  C_26
REMARK                            x       y       z     vdW  Elec       q    Type
REMARK                         _______ _______ _______ _____ _____    ______ ____
ROOT
ATOM      1  C   UNL     1       0.650   9.284  19.929  0.00  0.00    +0.000 A 
ATOM      2  N   UNL     1       0.725   9.221  21.242  0.00  0.00    +0.000 NA
ATOM      3  N   UNL     1       1.490   8.125  21.579  0.00  0.00    +0.000 NA
ATOM      4  C   UNL     1       1.868   7.537  20.464  0.00  0.00    +0.000 A 
ATOM      5  N   UNL     1       1.336   8.224  19.407  0.00  0.00    +0.000 N 
ATOM      6  C   UNL     1       1.567   7.893  18.027  0.00  0.00    +0.000 C 
ATOM      7  C   UNL     1       2.199   6.516  17.863  0.00  0.00    +0.000 C 
ATOM      8  N   UNL     1       3.191   6.205  18.902  0.00  0.00    +0.000 N 
ATOM      9  C   UNL     1       4.480   5.690  18.702  0.00  0.00    +0.000 C 
ATOM     10  O   UNL     1       5.267   5.505  19.629  0.00  0.00    +0.000 OA
ATOM     11  C   UNL     1       2.719   6.314  20.303  0.00  0.00    +0.000 C 
ATOM     12  C   UNL     1       1.936   5.063  20.710  0.00  0.00    +0.000 C 
ENDROOT
BRANCH   9  13
ATOM     13  C   UNL     1       4.972   5.362  17.333  0.00  0.00    +0.000 A 
ATOM     14  C   UNL     1       5.056   4.014  16.951  0.00  0.00    +0.000 A 
ATOM     15  C   UNL     1       5.557   3.670  15.691  0.00  0.00    +0.000 A 
ATOM     16  C   UNL     1       5.981   4.672  14.827  0.00  0.00    +0.000 A 
ATOM     17  F   UNL     1       6.509   4.345  13.640  0.00  0.00    +0.000 F 
ATOM     18  C   UNL     1       5.851   6.012  15.169  0.00  0.00    +0.000 A 
ATOM     19  C   UNL     1       5.298   6.356  16.404  0.00  0.00    +0.000 A 
ENDBRANCH   9  13
BRANCH   1  23
ATOM     20  C   UNL     1      -1.423  11.380  18.030  0.00  0.00    +0.000 A 
ATOM     21  N   UNL     1      -0.467  12.285  18.280  0.00  0.00    +0.000 NA
ATOM     22  O   UNL     1       0.455  11.574  19.051  0.00  0.00    +0.000 OA
ATOM     23  C   UNL     1      -0.029  10.303  19.190  0.00  0.00    +0.000 A 
ATOM     24  N   UNL     1      -1.184  10.134  18.567  0.00  0.00    +0.000 NA
BRANCH  20  26
ATOM     25  C   UNL     1      -2.662  10.947  15.905  0.00  0.00    +0.000 C 
ATOM     26  C   UNL     1      -2.633  11.706  17.221  0.00  0.00    +0.000 C 
ATOM     27  F   UNL     1      -3.776  11.393  17.905  0.00  0.00    +0.000 F 
ENDBRANCH  20  26
ENDBRANCH   1  23
TORSDOF 3
ENDMDL
MODEL 9
REMARK VINA RESULT:      -7.2      5.188      8.676
REMARK  Name = 
REMARK  5 active torsions:
REMARK  status: ('A' for Active; 'I' for Inactive)
REMARK    1  A    between atoms: C_1  and  C_2
REMARK    2  A    between atoms: C_2  and  C_4
REMARK    3  A    between atoms: C_7  and  C_8
REMARK    4  A    between atoms: C_16  and  C_18
REMARK    5  A    between atoms: C_25  and  C_26
REMARK                            x       y       z     vdW  Elec       q    Type
REMARK                         _______ _______ _______ _____ _____    ______ ____
ROOT
ATOM      1  C   UNL     1       1.262   8.492  20.043  0.00  0.00    +0.000 A 
ATOM      2  N   UNL     1       1.020   8.023  21.250  0.00  0.00    +0.000 NA
ATOM      3  N   UNL     1       1.569   6.763  21.342  0.00  0.00    +0.000 NA
ATOM      4  C   UNL     1       2.136   6.482  20.188  0.00  0.00    +0.000 A 
ATOM      5  N   UNL     1       1.940   7.537  19.338  0.00  0.00    +0.000 N 
ATOM      6  C   UNL     1       2.453   7.603  17.997  0.00  0.00    +0.000 C 
ATOM      7  C   UNL     1       2.962   6.252  17.508  0.00  0.00    +0.000 C 
ATOM      8  N   UNL     1       3.646   5.476  18.553  0.00  0.00    +0.000 N 
ATOM      9  C   UNL     1       4.886   4.833  18.440  0.00  0.00    +0.000 C 
ATOM     10  O   UNL     1       5.411   4.244  19.385  0.00  0.00    +0.000 OA
ATOM     11  C   UNL     1       2.872   5.238  19.794  0.00  0.00    +0.000 C 
ATOM     12  C   UNL     1       1.892   4.076  19.607  0.00  0.00    +0.000 C 
ENDROOT
BRANCH   9  13
ATOM     13  C   UNL     1       5.649   4.853  17.160  0.00  0.00    +0.000 A 
ATOM     14  C   UNL     1       6.749   5.717  17.042  0.00  0.00    +0.000 A 
ATOM     15  C   UNL     1       7.457   5.795  15.839  0.00  0.00    +0.000 A 
ATOM     16  C   UNL     1       7.056   5.019  14.758  0.00  0.00    +0.000 A 
ATOM     17  F   UNL     1       7.699   5.128  13.588  0.00  0.00    +0.000 F 
ATOM     18  C   UNL     1       6.005   4.118  14.877  0.00  0.00    +0.000 A 
ATOM     19  C   UNL     1       5.335   4.000  16.095  0.00  0.00    +0.000 A 
ENDBRANCH   9  13
BRANCH   1  23
ATOM     20  C   UNL     1       0.831  11.845  19.111  0.00  0.00    +0.000 A 
ATOM     21  N   UNL     1      -0.307  11.383  18.576  0.00  0.00    +0.000 NA
ATOM     22  O   UNL     1      -0.274  10.019  18.878  0.00  0.00    +0.000 OA
ATOM     23  C   UNL     1       0.882   9.786  19.570  0.00  0.00    +0.000 A 
ATOM     24  N   UNL     1       1.592  10.888  19.748  0.00  0.00    +0.000 NA
BRANCH  20  26
ATOM     25  C   UNL     1       2.476  13.489  18.201  0.00  0.00    +0.000 C 
ATOM     26  C   UNL     1       1.220  13.282  19.030  0.00  0.00    +0.000 C 
ATOM     27  F   UNL     1       0.222  14.026  18.463  0.00  0.00    +0.000 F 
ENDBRANCH  20  26
ENDBRANCH   1  23
TORSDOF 3
ENDMDL
