MODEL 1
REMARK VINA RESULT:      -7.1      0.000      0.000
REMARK  Name = 
REMARK  7 active torsions:
REMARK  status: ('A' for Active; 'I' for Inactive)
REMARK    1  A    between atoms: C_1  and  S_2
REMARK    2  A    between atoms: S_2  and  N_5
REMARK    3  A    between atoms: N_5  and  C_6
REMARK    4  A    between atoms: C_6  and  C_7
REMARK    5  A    between atoms: C_7  and  N_8
REMARK    6  A    between atoms: N_11  and  C_12
REMARK    7  A    between atoms: C_12  and  C_13
REMARK                            x       y       z     vdW  Elec       q    Type
REMARK                         _______ _______ _______ _____ _____    ______ ____
ROOT
ATOM      1  N   UNL     1       8.186   6.703  18.934  0.00  0.00    +0.000 N 
ATOM      2  C   UNL     1       8.135   7.876  18.228  0.00  0.00    +0.000 C 
ATOM      3  O   UNL     1       7.570   7.989  17.150  0.00  0.00    +0.000 OA
ATOM      4  N   UNL     1       8.804   8.889  18.861  0.00  0.00    +0.000 N 
ATOM      5  H   UNL     1       8.846   6.627  19.692  0.00  0.00    +0.000 HD
ATOM      6  H   UNL     1       8.867   8.822  19.865  0.00  0.00    +0.000 HD
ENDROOT
BRANCH   1   7
ATOM      7  C   UNL     1       7.593   5.491  18.393  0.00  0.00    +0.000 C 
BRANCH   7   8
ATOM      8  C   UNL     1       6.203   5.187  18.973  0.00  0.00    +0.000 C 
BRANCH   8   9
ATOM      9  N   UNL     1       5.797   3.803  18.619  0.00  0.00    +0.000 NA
ATOM     10  H   UNL     1       6.014   3.565  17.648  0.00  0.00    +0.000 HD
BRANCH   9  12
ATOM     11  C   UNL     1       4.289   2.202  20.215  0.00  0.00    +0.000 C 
ATOM     12  S   UNL     1       4.180   3.396  18.894  0.00  0.00    +0.000 S 
ATOM     13  O   UNL     1       3.738   2.716  17.696  0.00  0.00    +0.000 OA
ATOM     14  O   UNL     1       3.510   4.576  19.375  0.00  0.00    +0.000 OA
ENDBRANCH   9  12
ENDBRANCH   8   9
ENDBRANCH   7   8
ENDBRANCH   1   7
BRANCH   4  15
ATOM     15  C   UNL     1       8.743  10.232  18.317  0.00  0.00    +0.000 C 
BRANCH  15  16
ATOM     16  C   UNL     1       9.953  11.043  18.687  0.00  0.00    +0.000 A 
ATOM     17  C   UNL     1      10.773  11.604  17.696  0.00  0.00    +0.000 A 
ATOM     18  C   UNL     1      11.860  12.410  18.043  0.00  0.00    +0.000 A 
ATOM     19  C   UNL     1      12.138  12.671  19.385  0.00  0.00    +0.000 A 
ATOM     20  C   UNL     1      11.328  12.124  20.379  0.00  0.00    +0.000 A 
ATOM     21  C   UNL     1      10.247  11.320  20.025  0.00  0.00    +0.000 A 
ATOM     22  F   UNL     1       9.476  10.817  20.999  0.00  0.00    +0.000 F 
ENDBRANCH  15  16
ENDBRANCH   4  15
TORSDOF 6
ENDMDL
MODEL 2
REMARK VINA RESULT:      -7.0      5.382      8.516
REMARK  Name = 
REMARK  7 active torsions:
REMARK  status: ('A' for Active; 'I' for Inactive)
REMARK    1  A    between atoms: C_1  and  S_2
REMARK    2  A    between atoms: S_2  and  N_5
REMARK    3  A    between atoms: N_5  and  C_6
REMARK    4  A    between atoms: C_6  and  C_7
REMARK    5  A    between atoms: C_7  and  N_8
REMARK    6  A    between atoms: N_11  and  C_12
REMARK    7  A    between atoms: C_12  and  C_13
REMARK                            x       y       z     vdW  Elec       q    Type
REMARK                         _______ _______ _______ _____ _____    ______ ____
ROOT
ATOM      1  N   UNL     1       5.784   6.251  17.879  0.00  0.00    +0.000 N 
ATOM      2  C   UNL     1       4.858   5.947  18.841  0.00  0.00    +0.000 C 
ATOM      3  O   UNL     1       5.135   5.367  19.882  0.00  0.00    +0.000 OA
ATOM      4  N   UNL     1       3.598   6.348  18.492  0.00  0.00    +0.000 N 
ATOM      5  H   UNL     1       5.455   6.524  16.966  0.00  0.00    +0.000 HD
ATOM      6  H   UNL     1       3.539   7.134  17.862  0.00  0.00    +0.000 HD
ENDROOT
BRANCH   1   7
ATOM      7  C   UNL     1       7.171   5.844  18.034  0.00  0.00    +0.000 C 
BRANCH   7   8
ATOM      8  C   UNL     1       7.500   4.530  17.310  0.00  0.00    +0.000 C 
BRANCH   8   9
ATOM      9  N   UNL     1       7.438   4.732  15.839  0.00  0.00    +0.000 NA
ATOM     10  H   UNL     1       7.888   5.602  15.543  0.00  0.00    +0.000 HD
BRANCH   9  12
ATOM     11  C   UNL     1       6.206   3.861  13.580  0.00  0.00    +0.000 C 
ATOM     12  S   UNL     1       5.904   4.684  15.133  0.00  0.00    +0.000 S 
ATOM     13  O   UNL     1       5.555   6.061  14.862  0.00  0.00    +0.000 OA
ATOM     14  O   UNL     1       5.071   3.848  15.958  0.00  0.00    +0.000 OA
ENDBRANCH   9  12
ENDBRANCH   8   9
ENDBRANCH   7   8
ENDBRANCH   1   7
BRANCH   4  15
ATOM     15  C   UNL     1       2.516   6.221  19.450  0.00  0.00    +0.000 C 
BRANCH  15  16
ATOM     16  C   UNL     1       2.055   4.797  19.590  0.00  0.00    +0.000 A 
ATOM     17  C   UNL     1       2.063   4.160  20.840  0.00  0.00    +0.000 A 
ATOM     18  C   UNL     1       1.573   2.858  20.978  0.00  0.00    +0.000 A 
ATOM     19  C   UNL     1       1.065   2.180  19.870  0.00  0.00    +0.000 A 
ATOM     20  C   UNL     1       1.047   2.804  18.624  0.00  0.00    +0.000 A 
ATOM     21  C   UNL     1       1.537   4.101  18.494  0.00  0.00    +0.000 A 
ATOM     22  F   UNL     1       1.497   4.685  17.288  0.00  0.00    +0.000 F 
ENDBRANCH  15  16
ENDBRANCH   4  15
TORSDOF 6
ENDMDL
MODEL 3
REMARK VINA RESULT:      -7.0      5.493      8.692
REMARK  Name = 
REMARK  7 active torsions:
REMARK  status: ('A' for Active; 'I' for Inactive)
REMARK    1  A    between atoms: C_1  and  S_2
REMARK    2  A    between atoms: S_2  and  N_5
REMARK    3  A    between atoms: N_5  and  C_6
REMARK    4  A    between atoms: C_6  and  C_7
REMARK    5  A    between atoms: C_7  and  N_8
REMARK    6  A    between atoms: N_11  and  C_12
REMARK    7  A    between atoms: C_12  and  C_13
REMARK                            x       y       z     vdW  Elec       q    Type
REMARK                         _______ _______ _______ _____ _____    ______ ____
ROOT
ATOM      1  N   UNL     1       5.999   5.970  18.789  0.00  0.00    +0.000 N 
ATOM      2  C   UNL     1       4.656   6.028  18.523  0.00  0.00    +0.000 C 
ATOM      3  O   UNL     1       4.193   6.025  17.391  0.00  0.00    +0.000 OA
ATOM      4  N   UNL     1       3.906   6.109  19.665  0.00  0.00    +0.000 N 
ATOM      5  H   UNL     1       6.313   6.197  19.719  0.00  0.00    +0.000 HD
ATOM      6  H   UNL     1       4.313   5.705  20.495  0.00  0.00    +0.000 HD
ENDROOT
BRANCH   1   7
ATOM      7  C   UNL     1       6.965   5.949  17.703  0.00  0.00    +0.000 C 
BRANCH   7   8
ATOM      8  C   UNL     1       7.353   4.529  17.267  0.00  0.00    +0.000 C 
BRANCH   8   9
ATOM      9  N   UNL     1       6.467   4.077  16.163  0.00  0.00    +0.000 NA
ATOM     10  H   UNL     1       6.602   3.090  15.930  0.00  0.00    +0.000 HD
BRANCH   9  12
ATOM     11  C   UNL     1       6.140   3.735  13.488  0.00  0.00    +0.000 C 
ATOM     12  S   UNL     1       6.545   4.956  14.722  0.00  0.00    +0.000 S 
ATOM     13  O   UNL     1       7.934   5.327  14.564  0.00  0.00    +0.000 OA
ATOM     14  O   UNL     1       5.505   5.952  14.764  0.00  0.00    +0.000 OA
ENDBRANCH   9  12
ENDBRANCH   8   9
ENDBRANCH   7   8
ENDBRANCH   1   7
BRANCH   4  15
ATOM     15  C   UNL     1       2.460   6.049  19.575  0.00  0.00    +0.000 C 
BRANCH  15  16
ATOM     16  C   UNL     1       1.946   4.643  19.702  0.00  0.00    +0.000 A 
ATOM     17  C   UNL     1       1.907   4.003  20.951  0.00  0.00    +0.000 A 
ATOM     18  C   UNL     1       1.369   2.719  21.076  0.00  0.00    +0.000 A 
ATOM     19  C   UNL     1       0.859   2.061  19.957  0.00  0.00    +0.000 A 
ATOM     20  C   UNL     1       0.888   2.688  18.713  0.00  0.00    +0.000 A 
ATOM     21  C   UNL     1       1.425   3.967  18.595  0.00  0.00    +0.000 A 
ATOM     22  F   UNL     1       1.429   4.554  17.389  0.00  0.00    +0.000 F 
ENDBRANCH  15  16
ENDBRANCH   4  15
TORSDOF 6
ENDMDL
MODEL 4
REMARK VINA RESULT:      -6.9      5.300      8.885
REMARK  Name = 
REMARK  7 active torsions:
REMARK  status: ('A' for Active; 'I' for Inactive)
REMARK    1  A    between atoms: C_1  and  S_2
REMARK    2  A    between atoms: S_2  and  N_5
REMARK    3  A    between atoms: N_5  and  C_6
REMARK    4  A    between atoms: C_6  and  C_7
REMARK    5  A    between atoms: C_7  and  N_8
REMARK    6  A    between atoms: N_11  and  C_12
REMARK    7  A    between atoms: C_12  and  C_13
REMARK                            x       y       z     vdW  Elec       q    Type
REMARK                         _______ _______ _______ _____ _____    ______ ____
ROOT
ATOM      1  N   UNL     1       6.556   4.406  18.394  0.00  0.00    +0.000 N 
ATOM      2  C   UNL     1       5.207   4.178  18.325  0.00  0.00    +0.000 C 
ATOM      3  O   UNL     1       4.371   5.070  18.344  0.00  0.00    +0.000 OA
ATOM      4  N   UNL     1       4.912   2.844  18.253  0.00  0.00    +0.000 N 
ATOM      5  H   UNL     1       7.165   3.628  18.594  0.00  0.00    +0.000 HD
ATOM      6  H   UNL     1       5.619   2.252  17.843  0.00  0.00    +0.000 HD
ENDROOT
BRANCH   1   7
ATOM      7  C   UNL     1       7.068   5.758  18.546  0.00  0.00    +0.000 C 
BRANCH   7   8
ATOM      8  C   UNL     1       7.230   6.497  17.208  0.00  0.00    +0.000 C 
BRANCH   8   9
ATOM      9  N   UNL     1       7.733   5.561  16.169  0.00  0.00    +0.000 NA
ATOM     10  H   UNL     1       8.563   5.917  15.688  0.00  0.00    +0.000 HD
BRANCH   9  12
ATOM     11  C   UNL     1       5.259   6.194  15.242  0.00  0.00    +0.000 C 
ATOM     12  S   UNL     1       6.627   5.078  14.987  0.00  0.00    +0.000 S 
ATOM     13  O   UNL     1       6.208   3.746  15.363  0.00  0.00    +0.000 OA
ATOM     14  O   UNL     1       7.221   5.341  13.702  0.00  0.00    +0.000 OA
ENDBRANCH   9  12
ENDBRANCH   8   9
ENDBRANCH   7   8
ENDBRANCH   1   7
BRANCH   4  15
ATOM     15  C   UNL     1       3.538   2.427  18.045  0.00  0.00    +0.000 C 
BRANCH  15  16
ATOM     16  C   UNL     1       2.704   2.605  19.282  0.00  0.00    +0.000 A 
ATOM     17  C   UNL     1       3.232   2.324  20.552  0.00  0.00    +0.000 A 
ATOM     18  C   UNL     1       2.475   2.552  21.705  0.00  0.00    +0.000 A 
ATOM     19  C   UNL     1       1.183   3.070  21.603  0.00  0.00    +0.000 A 
ATOM     20  C   UNL     1       0.650   3.359  20.348  0.00  0.00    +0.000 A 
ATOM     21  C   UNL     1       1.410   3.128  19.204  0.00  0.00    +0.000 A 
ATOM     22  F   UNL     1       0.879   3.426  18.010  0.00  0.00    +0.000 F 
ENDBRANCH  15  16
ENDBRANCH   4  15
TORSDOF 6
ENDMDL
MODEL 5
REMARK VINA RESULT:      -6.8      1.485      2.121
REMARK  Name = 
REMARK  7 active torsions:
REMARK  status: ('A' for Active; 'I' for Inactive)
REMARK    1  A    between atoms: C_1  and  S_2
REMARK    2  A    between atoms: S_2  and  N_5
REMARK    3  A    between atoms: N_5  and  C_6
REMARK    4  A    between atoms: C_6  and  C_7
REMARK    5  A    between atoms: C_7  and  N_8
REMARK    6  A    between atoms: N_11  and  C_12
REMARK    7  A    between atoms: C_12  and  C_13
REMARK                            x       y       z     vdW  Elec       q    Type
REMARK                         _______ _______ _______ _____ _____    ______ ____
ROOT
ATOM      1  N   UNL     1       8.144   6.533  19.007  0.00  0.00    +0.000 N 
ATOM      2  C   UNL     1       8.101   7.677  18.255  0.00  0.00    +0.000 C 
ATOM      3  O   UNL     1       7.529   7.754  17.177  0.00  0.00    +0.000 OA
ATOM      4  N   UNL     1       8.787   8.706  18.841  0.00  0.00    +0.000 N 
ATOM      5  H   UNL     1       8.808   6.480  19.762  0.00  0.00    +0.000 HD
ATOM      6  H   UNL     1       8.857   8.679  19.847  0.00  0.00    +0.000 HD
ENDROOT
BRANCH   1   7
ATOM      7  C   UNL     1       7.532   5.308  18.519  0.00  0.00    +0.000 C 
BRANCH   7   8
ATOM      8  C   UNL     1       6.144   5.044  19.124  0.00  0.00    +0.000 C 
BRANCH   8   9
ATOM      9  N   UNL     1       5.588   3.776  18.583  0.00  0.00    +0.000 NA
ATOM     10  H   UNL     1       6.316   3.132  18.263  0.00  0.00    +0.000 HD
BRANCH   9  12
ATOM     11  C   UNL     1       5.453   3.799  15.870  0.00  0.00    +0.000 C 
ATOM     12  S   UNL     1       4.451   3.918  17.341  0.00  0.00    +0.000 S 
ATOM     13  O   UNL     1       3.933   5.265  17.436  0.00  0.00    +0.000 OA
ATOM     14  O   UNL     1       3.580   2.773  17.416  0.00  0.00    +0.000 OA
ENDBRANCH   9  12
ENDBRANCH   8   9
ENDBRANCH   7   8
ENDBRANCH   1   7
BRANCH   4  15
ATOM     15  C   UNL     1       8.738  10.027  18.245  0.00  0.00    +0.000 C 
BRANCH  15  16
ATOM     16  C   UNL     1       9.607  11.008  18.980  0.00  0.00    +0.000 A 
ATOM     17  C   UNL     1       9.428  11.238  20.353  0.00  0.00    +0.000 A 
ATOM     18  C   UNL     1      10.279  12.103  21.048  0.00  0.00    +0.000 A 
ATOM     19  C   UNL     1      11.322  12.743  20.379  0.00  0.00    +0.000 A 
ATOM     20  C   UNL     1      11.514  12.519  19.018  0.00  0.00    +0.000 A 
ATOM     21  C   UNL     1      10.662  11.657  18.332  0.00  0.00    +0.000 A 
ATOM     22  F   UNL     1      10.875  11.449  17.025  0.00  0.00    +0.000 F 
ENDBRANCH  15  16
ENDBRANCH   4  15
TORSDOF 6
ENDMDL
MODEL 6
REMARK VINA RESULT:      -6.8      1.539      1.874
REMARK  Name = 
REMARK  7 active torsions:
REMARK  status: ('A' for Active; 'I' for Inactive)
REMARK    1  A    between atoms: C_1  and  S_2
REMARK    2  A    between atoms: S_2  and  N_5
REMARK    3  A    between atoms: N_5  and  C_6
REMARK    4  A    between atoms: C_6  and  C_7
REMARK    5  A    between atoms: C_7  and  N_8
REMARK    6  A    between atoms: N_11  and  C_12
REMARK    7  A    between atoms: C_12  and  C_13
REMARK                            x       y       z     vdW  Elec       q    Type
REMARK                         _______ _______ _______ _____ _____    ______ ____
ROOT
ATOM      1  N   UNL     1       8.213   6.881  18.950  0.00  0.00    +0.000 N 
ATOM      2  C   UNL     1       8.112   7.969  18.123  0.00  0.00    +0.000 C 
ATOM      3  O   UNL     1       7.546   7.940  17.039  0.00  0.00    +0.000 OA
ATOM      4  N   UNL     1       8.731   9.072  18.643  0.00  0.00    +0.000 N 
ATOM      5  H   UNL     1       8.872   6.917  19.711  0.00  0.00    +0.000 HD
ATOM      6  H   UNL     1       8.793   9.116  19.648  0.00  0.00    +0.000 HD
ENDROOT
BRANCH   1   7
ATOM      7  C   UNL     1       7.677   5.593  18.542  0.00  0.00    +0.000 C 
BRANCH   7   8
ATOM      8  C   UNL     1       6.288   5.303  19.130  0.00  0.00    +0.000 C 
BRANCH   8   9
ATOM      9  N   UNL     1       5.897   3.899  18.841  0.00  0.00    +0.000 NA
ATOM     10  H   UNL     1       6.090   3.628  17.873  0.00  0.00    +0.000 HD
BRANCH   9  12
ATOM     11  C   UNL     1       3.611   3.182  17.560  0.00  0.00    +0.000 C 
ATOM     12  S   UNL     1       4.298   3.474  19.180  0.00  0.00    +0.000 S 
ATOM     13  O   UNL     1       3.685   4.662  19.731  0.00  0.00    +0.000 OA
ATOM     14  O   UNL     1       4.323   2.235  19.914  0.00  0.00    +0.000 OA
ENDBRANCH   9  12
ENDBRANCH   8   9
ENDBRANCH   7   8
ENDBRANCH   1   7
BRANCH   4  15
ATOM     15  C   UNL     1       8.612  10.346  17.959  0.00  0.00    +0.000 C 
BRANCH  15  16
ATOM     16  C   UNL     1       9.493  11.397  18.572  0.00  0.00    +0.000 A 
ATOM     17  C   UNL     1      10.442  11.059  19.549  0.00  0.00    +0.000 A 
ATOM     18  C   UNL     1      11.304  12.028  20.071  0.00  0.00    +0.000 A 
ATOM     19  C   UNL     1      11.231  13.346  19.618  0.00  0.00    +0.000 A 
ATOM     20  C   UNL     1      10.297  13.693  18.644  0.00  0.00    +0.000 A 
ATOM     21  C   UNL     1       9.441  12.722  18.129  0.00  0.00    +0.000 A 
ATOM     22  F   UNL     1       8.560  13.079  17.184  0.00  0.00    +0.000 F 
ENDBRANCH  15  16
ENDBRANCH   4  15
TORSDOF 6
ENDMDL
MODEL 7
REMARK VINA RESULT:      -6.8      1.343      1.796
REMARK  Name = 
REMARK  7 active torsions:
REMARK  status: ('A' for Active; 'I' for Inactive)
REMARK    1  A    between atoms: C_1  and  S_2
REMARK    2  A    between atoms: S_2  and  N_5
REMARK    3  A    between atoms: N_5  and  C_6
REMARK    4  A    between atoms: C_6  and  C_7
REMARK    5  A    between atoms: C_7  and  N_8
REMARK    6  A    between atoms: N_11  and  C_12
REMARK    7  A    between atoms: C_12  and  C_13
REMARK                            x       y       z     vdW  Elec       q    Type
REMARK                         _______ _______ _______ _____ _____    ______ ____
ROOT
ATOM      1  N   UNL     1       7.775   6.222  18.886  0.00  0.00    +0.000 N 
ATOM      2  C   UNL     1       7.909   7.341  18.108  0.00  0.00    +0.000 C 
ATOM      3  O   UNL     1       7.526   7.405  16.948  0.00  0.00    +0.000 OA
ATOM      4  N   UNL     1       8.533   8.361  18.773  0.00  0.00    +0.000 N 
ATOM      5  H   UNL     1       8.302   6.167  19.742  0.00  0.00    +0.000 HD
ATOM      6  H   UNL     1       8.435   8.364  19.777  0.00  0.00    +0.000 HD
ENDROOT
BRANCH   1   7
ATOM      7  C   UNL     1       7.197   5.007  18.335  0.00  0.00    +0.000 C 
BRANCH   7   8
ATOM      8  C   UNL     1       5.687   4.886  18.590  0.00  0.00    +0.000 C 
BRANCH   8   9
ATOM      9  N   UNL     1       5.348   3.495  18.987  0.00  0.00    +0.000 NA
ATOM     10  H   UNL     1       5.932   2.799  18.517  0.00  0.00    +0.000 HD
BRANCH   9  12
ATOM     11  C   UNL     1       3.000   3.473  20.353  0.00  0.00    +0.000 C 
ATOM     12  S   UNL     1       3.737   3.024  18.793  0.00  0.00    +0.000 S 
ATOM     13  O   UNL     1       3.760   1.582  18.694  0.00  0.00    +0.000 OA
ATOM     14  O   UNL     1       3.169   3.838  17.748  0.00  0.00    +0.000 OA
ENDBRANCH   9  12
ENDBRANCH   8   9
ENDBRANCH   7   8
ENDBRANCH   1   7
BRANCH   4  15
ATOM     15  C   UNL     1       8.643   9.663  18.142  0.00  0.00    +0.000 C 
BRANCH  15  16
ATOM     16  C   UNL     1       9.408  10.636  18.994  0.00  0.00    +0.000 A 
ATOM     17  C   UNL     1       9.160  10.735  20.372  0.00  0.00    +0.000 A 
ATOM     18  C   UNL     1       9.917  11.596  21.172  0.00  0.00    +0.000 A 
ATOM     19  C   UNL     1      10.935  12.363  20.605  0.00  0.00    +0.000 A 
ATOM     20  C   UNL     1      11.195  12.269  19.239  0.00  0.00    +0.000 A 
ATOM     21  C   UNL     1      10.436  11.411  18.448  0.00  0.00    +0.000 A 
ATOM     22  F   UNL     1      10.714  11.329  17.139  0.00  0.00    +0.000 F 
ENDBRANCH  15  16
ENDBRANCH   4  15
TORSDOF 6
ENDMDL
MODEL 8
REMARK VINA RESULT:      -6.7      4.845      6.482
REMARK  Name = 
REMARK  7 active torsions:
REMARK  status: ('A' for Active; 'I' for Inactive)
REMARK    1  A    between atoms: C_1  and  S_2
REMARK    2  A    between atoms: S_2  and  N_5
REMARK    3  A    between atoms: N_5  and  C_6
REMARK    4  A    between atoms: C_6  and  C_7
REMARK    5  A    between atoms: C_7  and  N_8
REMARK    6  A    between atoms: N_11  and  C_12
REMARK    7  A    between atoms: C_12  and  C_13
REMARK                            x       y       z     vdW  Elec       q    Type
REMARK                         _______ _______ _______ _____ _____    ______ ____
ROOT
ATOM      1  N   UNL     1       3.127   2.146  18.496  0.00  0.00    +0.000 N 
ATOM      2  C   UNL     1       3.500   2.996  17.488  0.00  0.00    +0.000 C 
ATOM      3  O   UNL     1       2.708   3.683  16.860  0.00  0.00    +0.000 OA
ATOM      4  N   UNL     1       4.849   2.967  17.261  0.00  0.00    +0.000 N 
ATOM      5  H   UNL     1       3.792   1.459  18.814  0.00  0.00    +0.000 HD
ATOM      6  H   UNL     1       5.428   2.715  18.047  0.00  0.00    +0.000 HD
ENDROOT
BRANCH   1   7
ATOM      7  C   UNL     1       1.725   1.983  18.842  0.00  0.00    +0.000 C 
BRANCH   7   8
ATOM      8  C   UNL     1       1.266   2.926  19.964  0.00  0.00    +0.000 C 
BRANCH   8   9
ATOM      9  N   UNL     1       1.117   4.307  19.437  0.00  0.00    +0.000 NA
ATOM     10  H   UNL     1       1.158   4.345  18.416  0.00  0.00    +0.000 HD
BRANCH   9  12
ATOM     11  C   UNL     1       2.544   6.461  18.596  0.00  0.00    +0.000 C 
ATOM     12  S   UNL     1       2.194   5.464  20.033  0.00  0.00    +0.000 S 
ATOM     13  O   UNL     1       3.392   4.737  20.391  0.00  0.00    +0.000 OA
ATOM     14  O   UNL     1       1.485   6.261  21.002  0.00  0.00    +0.000 OA
ENDBRANCH   9  12
ENDBRANCH   8   9
ENDBRANCH   7   8
ENDBRANCH   1   7
BRANCH   4  15
ATOM     15  C   UNL     1       5.433   3.899  16.315  0.00  0.00    +0.000 C 
BRANCH  15  16
ATOM     16  C   UNL     1       6.197   4.994  17.005  0.00  0.00    +0.000 A 
ATOM     17  C   UNL     1       7.114   4.698  18.025  0.00  0.00    +0.000 A 
ATOM     18  C   UNL     1       7.869   5.712  18.620  0.00  0.00    +0.000 A 
ATOM     19  C   UNL     1       7.722   7.034  18.198  0.00  0.00    +0.000 A 
ATOM     20  C   UNL     1       6.819   7.340  17.182  0.00  0.00    +0.000 A 
ATOM     21  C   UNL     1       6.069   6.324  16.594  0.00  0.00    +0.000 A 
ATOM     22  F   UNL     1       5.217   6.643  15.610  0.00  0.00    +0.000 F 
ENDBRANCH  15  16
ENDBRANCH   4  15
TORSDOF 6
ENDMDL
MODEL 9
REMARK VINA RESULT:      -6.7      5.320      8.376
REMARK  Name = 
REMARK  7 active torsions:
REMARK  status: ('A' for Active; 'I' for Inactive)
REMARK    1  A    between atoms: C_1  and  S_2
REMARK    2  A    between atoms: S_2  and  N_5
REMARK    3  A    between atoms: N_5  and  C_6
REMARK    4  A    between atoms: C_6  and  C_7
REMARK    5  A    between atoms: C_7  and  N_8
REMARK    6  A    between atoms: N_11  and  C_12
REMARK    7  A    between atoms: C_12  and  C_13
REMARK                            x       y       z     vdW  Elec       q    Type
REMARK                         _______ _______ _______ _____ _____    ______ ____
ROOT
ATOM      1  N   UNL     1       6.277   5.673  18.968  0.00  0.00    +0.000 N 
ATOM      2  C   UNL     1       4.966   5.982  18.719  0.00  0.00    +0.000 C 
ATOM      3  O   UNL     1       4.556   6.344  17.624  0.00  0.00    +0.000 OA
ATOM      4  N   UNL     1       4.184   5.856  19.834  0.00  0.00    +0.000 N 
ATOM      5  H   UNL     1       6.578   5.598  19.927  0.00  0.00    +0.000 HD
ATOM      6  H   UNL     1       4.499   5.194  20.527  0.00  0.00    +0.000 HD
ENDROOT
BRANCH   1   7
ATOM      7  C   UNL     1       7.279   5.812  17.925  0.00  0.00    +0.000 C 
BRANCH   7   8
ATOM      8  C   UNL     1       7.599   4.489  17.214  0.00  0.00    +0.000 C 
BRANCH   8   9
ATOM      9  N   UNL     1       7.688   4.709  15.747  0.00  0.00    +0.000 NA
ATOM     10  H   UNL     1       8.145   5.592  15.509  0.00  0.00    +0.000 HD
BRANCH   9  12
ATOM     11  C   UNL     1       5.213   3.598  15.908  0.00  0.00    +0.000 C 
ATOM     12  S   UNL     1       6.238   4.636  14.882  0.00  0.00    +0.000 S 
ATOM     13  O   UNL     1       6.544   3.920  13.664  0.00  0.00    +0.000 OA
ATOM     14  O   UNL     1       5.684   5.966  14.850  0.00  0.00    +0.000 OA
ENDBRANCH   9  12
ENDBRANCH   8   9
ENDBRANCH   7   8
ENDBRANCH   1   7
BRANCH   4  15
ATOM     15  C   UNL     1       2.747   6.020  19.720  0.00  0.00    +0.000 C 
BRANCH  15  16
ATOM     16  C   UNL     1       2.038   4.700  19.615  0.00  0.00    +0.000 A 
ATOM     17  C   UNL     1       1.601   4.216  18.372  0.00  0.00    +0.000 A 
ATOM     18  C   UNL     1       0.999   2.958  18.269  0.00  0.00    +0.000 A 
ATOM     19  C   UNL     1       0.831   2.168  19.406  0.00  0.00    +0.000 A 
ATOM     20  C   UNL     1       1.265   2.635  20.645  0.00  0.00    +0.000 A 
ATOM     21  C   UNL     1       1.863   3.889  20.740  0.00  0.00    +0.000 A 
ATOM     22  F   UNL     1       2.284   4.310  21.942  0.00  0.00    +0.000 F 
ENDBRANCH  15  16
ENDBRANCH   4  15
TORSDOF 6
ENDMDL
