MODEL 1
REMARK VINA RESULT:      -8.4      0.000      0.000
REMARK  Name = 
REMARK  7 active torsions:
REMARK  status: ('A' for Active; 'I' for Inactive)
REMARK    1  A    between atoms: C_1  and  C_2
REMARK    2  A    between atoms: C_5  and  C_6
REMARK    3  A    between atoms: N_8  and  C_9
REMARK    4  A    between atoms: C_16  and  C_17
REMARK    5  A    between atoms: N_18  and  N_19
REMARK    6  A    between atoms: N_19  and  S_20
REMARK    7  A    between atoms: S_20  and  C_23
REMARK                            x       y       z     vdW  Elec       q    Type
REMARK                         _______ _______ _______ _____ _____    ______ ____
ROOT
ATOM      1  C   UNL     1       2.727   6.589  18.769  0.00  0.00    +0.000 A 
ATOM      2  N   UNL     1       1.950   7.145  19.713  0.00  0.00    +0.000 NA
ATOM      3  N   UNL     1       1.782   8.438  19.340  0.00  0.00    +0.000 N 
ATOM      4  C   UNL     1       2.499   8.722  18.205  0.00  0.00    +0.000 A 
ATOM      5  C   UNL     1       3.151   7.569  17.830  0.00  0.00    +0.000 A 
ENDROOT
BRANCH   1  10
ATOM      6  C   UNL     1       3.855   0.910  18.732  0.00  0.00    +0.000 C 
ATOM      7  C   UNL     1       3.561   2.380  18.754  0.00  0.00    +0.000 A 
ATOM      8  C   UNL     1       4.414   3.268  19.414  0.00  0.00    +0.000 A 
ATOM      9  C   UNL     1       4.146   4.639  19.411  0.00  0.00    +0.000 A 
ATOM     10  C   UNL     1       3.004   5.149  18.775  0.00  0.00    +0.000 A 
ATOM     11  C   UNL     1       2.158   4.256  18.106  0.00  0.00    +0.000 A 
ATOM     12  C   UNL     1       2.434   2.885  18.096  0.00  0.00    +0.000 A 
ENDBRANCH   1  10
BRANCH   3  13
ATOM     13  C   UNL     1       0.948   9.318  20.083  0.00  0.00    +0.000 A 
ATOM     14  C   UNL     1       0.508  10.515  19.498  0.00  0.00    +0.000 A 
ATOM     15  C   UNL     1      -0.305  11.394  20.218  0.00  0.00    +0.000 A 
ATOM     16  C   UNL     1      -0.680  11.086  21.526  0.00  0.00    +0.000 A 
ATOM     17  C   UNL     1      -0.249   9.901  22.114  0.00  0.00    +0.000 A 
ATOM     18  C   UNL     1       0.562   9.014  21.396  0.00  0.00    +0.000 A 
ENDBRANCH   3  13
BRANCH   5  19
ATOM     19  C   UNL     1       4.043   7.432  16.706  0.00  0.00    +0.000 C 
ATOM     20  N   UNL     1       4.371   6.241  16.329  0.00  0.00    +0.000 NA
BRANCH  20  21
ATOM     21  N   UNL     1       5.284   6.177  15.226  0.00  0.00    +0.000 N 
ATOM     22  H   UNL     1       5.070   6.509  14.285  0.00  0.00    +0.000 HD
BRANCH  21  23
ATOM     23  S   UNL     1       6.631   5.138  15.317  0.00  0.00    +0.000 S 
ATOM     24  O   UNL     1       6.201   3.760  15.410  0.00  0.00    +0.000 OA
ATOM     25  O   UNL     1       7.538   5.587  14.278  0.00  0.00    +0.000 OA
BRANCH  23  26
ATOM     26  C   UNL     1       7.313   5.614  16.885  0.00  0.00    +0.000 A 
ATOM     27  C   UNL     1       7.536   4.634  17.858  0.00  0.00    +0.000 A 
ATOM     28  C   UNL     1       7.988   5.013  19.121  0.00  0.00    +0.000 A 
ATOM     29  C   UNL     1       8.228   6.359  19.402  0.00  0.00    +0.000 A 
ATOM     30  C   UNL     1       8.034   7.330  18.417  0.00  0.00    +0.000 A 
ATOM     31  C   UNL     1       7.577   6.960  17.152  0.00  0.00    +0.000 A 
ENDBRANCH  23  26
ENDBRANCH  21  23
ENDBRANCH  20  21
ENDBRANCH   5  19
TORSDOF 6
ENDMDL
MODEL 2
REMARK VINA RESULT:      -8.3      3.556      7.739
REMARK  Name = 
REMARK  7 active torsions:
REMARK  status: ('A' for Active; 'I' for Inactive)
REMARK    1  A    between atoms: C_1  and  C_2
REMARK    2  A    between atoms: C_5  and  C_6
REMARK    3  A    between atoms: N_8  and  C_9
REMARK    4  A    between atoms: C_16  and  C_17
REMARK    5  A    between atoms: N_18  and  N_19
REMARK    6  A    between atoms: N_19  and  S_20
REMARK    7  A    between atoms: S_20  and  C_23
REMARK                            x       y       z     vdW  Elec       q    Type
REMARK                         _______ _______ _______ _____ _____    ______ ____
ROOT
ATOM      1  C   UNL     1       4.010   4.943  17.291  0.00  0.00    +0.000 A 
ATOM      2  N   UNL     1       4.440   4.222  16.243  0.00  0.00    +0.000 NA
ATOM      3  N   UNL     1       5.138   5.085  15.462  0.00  0.00    +0.000 N 
ATOM      4  C   UNL     1       5.096   6.358  15.972  0.00  0.00    +0.000 A 
ATOM      5  C   UNL     1       4.349   6.314  17.128  0.00  0.00    +0.000 A 
ENDROOT
BRANCH   1  10
ATOM      6  C   UNL     1       1.355   2.447  21.790  0.00  0.00    +0.000 C 
ATOM      7  C   UNL     1       2.035   3.087  20.617  0.00  0.00    +0.000 A 
ATOM      8  C   UNL     1       1.341   3.968  19.784  0.00  0.00    +0.000 A 
ATOM      9  C   UNL     1       1.988   4.578  18.706  0.00  0.00    +0.000 A 
ATOM     10  C   UNL     1       3.333   4.298  18.420  0.00  0.00    +0.000 A 
ATOM     11  C   UNL     1       4.027   3.422  19.265  0.00  0.00    +0.000 A 
ATOM     12  C   UNL     1       3.383   2.823  20.353  0.00  0.00    +0.000 A 
ENDBRANCH   1  10
BRANCH   3  13
ATOM     13  C   UNL     1       5.800   4.642  14.283  0.00  0.00    +0.000 A 
ATOM     14  C   UNL     1       7.069   5.151  13.970  0.00  0.00    +0.000 A 
ATOM     15  C   UNL     1       7.729   4.733  12.812  0.00  0.00    +0.000 A 
ATOM     16  C   UNL     1       7.127   3.809  11.959  0.00  0.00    +0.000 A 
ATOM     17  C   UNL     1       5.868   3.298  12.262  0.00  0.00    +0.000 A 
ATOM     18  C   UNL     1       5.203   3.710  13.423  0.00  0.00    +0.000 A 
ENDBRANCH   3  13
BRANCH   5  19
ATOM     19  C   UNL     1       4.026   7.442  17.965  0.00  0.00    +0.000 C 
ATOM     20  N   UNL     1       2.845   7.956  17.867  0.00  0.00    +0.000 NA
BRANCH  20  21
ATOM     21  N   UNL     1       2.599   9.093  18.704  0.00  0.00    +0.000 N 
ATOM     22  H   UNL     1       3.076   9.266  19.590  0.00  0.00    +0.000 HD
BRANCH  21  23
ATOM     23  S   UNL     1       1.176  10.002  18.481  0.00  0.00    +0.000 S 
ATOM     24  O   UNL     1       1.498  11.378  18.172  0.00  0.00    +0.000 OA
ATOM     25  O   UNL     1       0.336   9.200  17.611  0.00  0.00    +0.000 OA
BRANCH  23  26
ATOM     26  C   UNL     1       0.486   9.945  20.115  0.00  0.00    +0.000 A 
ATOM     27  C   UNL     1      -0.234  11.047  20.590  0.00  0.00    +0.000 A 
ATOM     28  C   UNL     1      -0.703  11.045  21.903  0.00  0.00    +0.000 A 
ATOM     29  C   UNL     1      -0.465   9.944  22.727  0.00  0.00    +0.000 A 
ATOM     30  C   UNL     1       0.227   8.834  22.238  0.00  0.00    +0.000 A 
ATOM     31  C   UNL     1       0.704   8.830  20.927  0.00  0.00    +0.000 A 
ENDBRANCH  23  26
ENDBRANCH  21  23
ENDBRANCH  20  21
ENDBRANCH   5  19
TORSDOF 6
ENDMDL
MODEL 3
REMARK VINA RESULT:      -8.3      2.172      2.921
REMARK  Name = 
REMARK  7 active torsions:
REMARK  status: ('A' for Active; 'I' for Inactive)
REMARK    1  A    between atoms: C_1  and  C_2
REMARK    2  A    between atoms: C_5  and  C_6
REMARK    3  A    between atoms: N_8  and  C_9
REMARK    4  A    between atoms: C_16  and  C_17
REMARK    5  A    between atoms: N_18  and  N_19
REMARK    6  A    between atoms: N_19  and  S_20
REMARK    7  A    between atoms: S_20  and  C_23
REMARK                            x       y       z     vdW  Elec       q    Type
REMARK                         _______ _______ _______ _____ _____    ______ ____
ROOT
ATOM      1  C   UNL     1       2.364   7.106  18.647  0.00  0.00    +0.000 A 
ATOM      2  N   UNL     1       1.563   7.954  19.312  0.00  0.00    +0.000 NA
ATOM      3  N   UNL     1       1.777   9.175  18.762  0.00  0.00    +0.000 N 
ATOM      4  C   UNL     1       2.754   9.119  17.800  0.00  0.00    +0.000 A 
ATOM      5  C   UNL     1       3.183   7.813  17.724  0.00  0.00    +0.000 A 
ENDROOT
BRANCH   1  10
ATOM      6  C   UNL     1       2.149   1.393  19.560  0.00  0.00    +0.000 C 
ATOM      7  C   UNL     1       2.196   2.874  19.333  0.00  0.00    +0.000 A 
ATOM      8  C   UNL     1       2.629   3.738  20.341  0.00  0.00    +0.000 A 
ATOM      9  C   UNL     1       2.691   5.115  20.114  0.00  0.00    +0.000 A 
ATOM     10  C   UNL     1       2.294   5.661  18.884  0.00  0.00    +0.000 A 
ATOM     11  C   UNL     1       1.870   4.790  17.873  0.00  0.00    +0.000 A 
ATOM     12  C   UNL     1       1.822   3.410  18.095  0.00  0.00    +0.000 A 
ENDBRANCH   1  10
BRANCH   3  13
ATOM     13  C   UNL     1       1.037  10.315  19.183  0.00  0.00    +0.000 A 
ATOM     14  C   UNL     1       1.440  11.593  18.771  0.00  0.00    +0.000 A 
ATOM     15  C   UNL     1       0.729  12.723  19.182  0.00  0.00    +0.000 A 
ATOM     16  C   UNL     1      -0.385  12.584  20.010  0.00  0.00    +0.000 A 
ATOM     17  C   UNL     1      -0.793  11.320  20.423  0.00  0.00    +0.000 A 
ATOM     18  C   UNL     1      -0.087  10.183  20.011  0.00  0.00    +0.000 A 
ENDBRANCH   3  13
BRANCH   5  19
ATOM     19  C   UNL     1       4.226   7.318  16.862  0.00  0.00    +0.000 C 
ATOM     20  N   UNL     1       5.312   6.881  17.408  0.00  0.00    +0.000 NA
BRANCH  20  21
ATOM     21  N   UNL     1       6.321   6.432  16.494  0.00  0.00    +0.000 N 
ATOM     22  H   UNL     1       6.697   6.998  15.732  0.00  0.00    +0.000 HD
BRANCH  21  23
ATOM     23  S   UNL     1       6.641   4.765  16.358  0.00  0.00    +0.000 S 
ATOM     24  O   UNL     1       7.937   4.451  16.918  0.00  0.00    +0.000 OA
ATOM     25  O   UNL     1       5.433   4.100  16.808  0.00  0.00    +0.000 OA
BRANCH  23  26
ATOM     26  C   UNL     1       6.740   4.589  14.595  0.00  0.00    +0.000 A 
ATOM     27  C   UNL     1       5.924   3.649  13.956  0.00  0.00    +0.000 A 
ATOM     28  C   UNL     1       6.059   3.443  12.584  0.00  0.00    +0.000 A 
ATOM     29  C   UNL     1       6.992   4.183  11.856  0.00  0.00    +0.000 A 
ATOM     30  C   UNL     1       7.782   5.142  12.493  0.00  0.00    +0.000 A 
ATOM     31  C   UNL     1       7.657   5.350  13.866  0.00  0.00    +0.000 A 
ENDBRANCH  23  26
ENDBRANCH  21  23
ENDBRANCH  20  21
ENDBRANCH   5  19
TORSDOF 6
ENDMDL
MODEL 4
REMARK VINA RESULT:      -8.3      2.251      3.142
REMARK  Name = 
REMARK  7 active torsions:
REMARK  status: ('A' for Active; 'I' for Inactive)
REMARK    1  A    between atoms: C_1  and  C_2
REMARK    2  A    between atoms: C_5  and  C_6
REMARK    3  A    between atoms: N_8  and  C_9
REMARK    4  A    between atoms: C_16  and  C_17
REMARK    5  A    between atoms: N_18  and  N_19
REMARK    6  A    between atoms: N_19  and  S_20
REMARK    7  A    between atoms: S_20  and  C_23
REMARK                            x       y       z     vdW  Elec       q    Type
REMARK                         _______ _______ _______ _____ _____    ______ ____
ROOT
ATOM      1  C   UNL     1       2.347   7.231  18.594  0.00  0.00    +0.000 A 
ATOM      2  N   UNL     1       1.521   8.091  19.211  0.00  0.00    +0.000 NA
ATOM      3  N   UNL     1       1.721   9.292  18.612  0.00  0.00    +0.000 N 
ATOM      4  C   UNL     1       2.713   9.213  17.667  0.00  0.00    +0.000 A 
ATOM      5  C   UNL     1       3.166   7.913  17.653  0.00  0.00    +0.000 A 
ENDROOT
BRANCH   1  10
ATOM      6  C   UNL     1       2.094   1.571  19.786  0.00  0.00    +0.000 C 
ATOM      7  C   UNL     1       2.169   3.035  19.469  0.00  0.00    +0.000 A 
ATOM      8  C   UNL     1       1.966   3.495  18.166  0.00  0.00    +0.000 A 
ATOM      9  C   UNL     1       2.017   4.862  17.884  0.00  0.00    +0.000 A 
ATOM     10  C   UNL     1       2.299   5.797  18.892  0.00  0.00    +0.000 A 
ATOM     11  C   UNL     1       2.491   5.331  20.199  0.00  0.00    +0.000 A 
ATOM     12  C   UNL     1       2.426   3.963  20.484  0.00  0.00    +0.000 A 
ENDBRANCH   1  10
BRANCH   3  13
ATOM     13  C   UNL     1       0.954  10.434  18.974  0.00  0.00    +0.000 A 
ATOM     14  C   UNL     1      -0.368  10.271  19.410  0.00  0.00    +0.000 A 
ATOM     15  C   UNL     1      -1.137  11.383  19.762  0.00  0.00    +0.000 A 
ATOM     16  C   UNL     1      -0.591  12.664  19.677  0.00  0.00    +0.000 A 
ATOM     17  C   UNL     1       0.720  12.836  19.245  0.00  0.00    +0.000 A 
ATOM     18  C   UNL     1       1.497  11.724  18.896  0.00  0.00    +0.000 A 
ENDBRANCH   3  13
BRANCH   5  19
ATOM     19  C   UNL     1       4.231   7.401  16.827  0.00  0.00    +0.000 C 
ATOM     20  N   UNL     1       5.283   6.932  17.411  0.00  0.00    +0.000 NA
BRANCH  20  21
ATOM     21  N   UNL     1       6.316   6.468  16.533  0.00  0.00    +0.000 N 
ATOM     22  H   UNL     1       6.724   7.026  15.782  0.00  0.00    +0.000 HD
BRANCH  21  23
ATOM     23  S   UNL     1       6.622   4.796  16.413  0.00  0.00    +0.000 S 
ATOM     24  O   UNL     1       7.919   4.478  16.967  0.00  0.00    +0.000 OA
ATOM     25  O   UNL     1       5.411   4.147  16.880  0.00  0.00    +0.000 OA
BRANCH  23  26
ATOM     26  C   UNL     1       6.706   4.600  14.651  0.00  0.00    +0.000 A 
ATOM     27  C   UNL     1       5.855   3.682  14.026  0.00  0.00    +0.000 A 
ATOM     28  C   UNL     1       5.976   3.458  12.655  0.00  0.00    +0.000 A 
ATOM     29  C   UNL     1       6.930   4.159  11.916  0.00  0.00    +0.000 A 
ATOM     30  C   UNL     1       7.756   5.097  12.540  0.00  0.00    +0.000 A 
ATOM     31  C   UNL     1       7.645   5.323  13.911  0.00  0.00    +0.000 A 
ENDBRANCH  23  26
ENDBRANCH  21  23
ENDBRANCH  20  21
ENDBRANCH   5  19
TORSDOF 6
ENDMDL
MODEL 5
REMARK VINA RESULT:      -8.3      2.076      2.811
REMARK  Name = 
REMARK  7 active torsions:
REMARK  status: ('A' for Active; 'I' for Inactive)
REMARK    1  A    between atoms: C_1  and  C_2
REMARK    2  A    between atoms: C_5  and  C_6
REMARK    3  A    between atoms: N_8  and  C_9
REMARK    4  A    between atoms: C_16  and  C_17
REMARK    5  A    between atoms: N_18  and  N_19
REMARK    6  A    between atoms: N_19  and  S_20
REMARK    7  A    between atoms: S_20  and  C_23
REMARK                            x       y       z     vdW  Elec       q    Type
REMARK                         _______ _______ _______ _____ _____    ______ ____
ROOT
ATOM      1  C   UNL     1       2.388   6.618  19.315  0.00  0.00    +0.000 A 
ATOM      2  N   UNL     1       1.649   7.124  20.315  0.00  0.00    +0.000 NA
ATOM      3  N   UNL     1       1.489   8.440  20.028  0.00  0.00    +0.000 N 
ATOM      4  C   UNL     1       2.176   8.785  18.891  0.00  0.00    +0.000 A 
ATOM      5  C   UNL     1       2.798   7.649  18.425  0.00  0.00    +0.000 A 
ENDROOT
BRANCH   1  10
ATOM      6  C   UNL     1       3.430   0.938  18.891  0.00  0.00    +0.000 C 
ATOM      7  C   UNL     1       3.159   2.408  19.014  0.00  0.00    +0.000 A 
ATOM      8  C   UNL     1       4.030   3.238  19.723  0.00  0.00    +0.000 A 
ATOM      9  C   UNL     1       3.782   4.610  19.814  0.00  0.00    +0.000 A 
ATOM     10  C   UNL     1       2.643   5.178  19.222  0.00  0.00    +0.000 A 
ATOM     11  C   UNL     1       1.779   4.343  18.503  0.00  0.00    +0.000 A 
ATOM     12  C   UNL     1       2.035   2.972  18.400  0.00  0.00    +0.000 A 
ENDBRANCH   1  10
BRANCH   3  13
ATOM     13  C   UNL     1       0.691   9.283  20.851  0.00  0.00    +0.000 A 
ATOM     14  C   UNL     1       0.459  10.611  20.462  0.00  0.00    +0.000 A 
ATOM     15  C   UNL     1      -0.316  11.454  21.263  0.00  0.00    +0.000 A 
ATOM     16  C   UNL     1      -0.859  10.979  22.457  0.00  0.00    +0.000 A 
ATOM     17  C   UNL     1      -0.633   9.664  22.850  0.00  0.00    +0.000 A 
ATOM     18  C   UNL     1       0.138   8.813  22.050  0.00  0.00    +0.000 A 
ENDBRANCH   3  13
BRANCH   5  19
ATOM     19  C   UNL     1       3.652   7.571  17.267  0.00  0.00    +0.000 C 
ATOM     20  N   UNL     1       4.366   6.507  17.107  0.00  0.00    +0.000 NA
BRANCH  20  21
ATOM     21  N   UNL     1       5.217   6.507  15.953  0.00  0.00    +0.000 N 
ATOM     22  H   UNL     1       4.922   6.810  15.024  0.00  0.00    +0.000 HD
BRANCH  21  23
ATOM     23  S   UNL     1       6.649   5.584  15.972  0.00  0.00    +0.000 S 
ATOM     24  O   UNL     1       7.804   6.446  16.093  0.00  0.00    +0.000 OA
ATOM     25  O   UNL     1       6.401   4.503  16.906  0.00  0.00    +0.000 OA
BRANCH  23  26
ATOM     26  C   UNL     1       6.629   4.907  14.331  0.00  0.00    +0.000 A 
ATOM     27  C   UNL     1       5.637   3.983  13.986  0.00  0.00    +0.000 A 
ATOM     28  C   UNL     1       5.667   3.382  12.729  0.00  0.00    +0.000 A 
ATOM     29  C   UNL     1       6.674   3.714  11.821  0.00  0.00    +0.000 A 
ATOM     30  C   UNL     1       7.643   4.661  12.159  0.00  0.00    +0.000 A 
ATOM     31  C   UNL     1       7.623   5.264  13.416  0.00  0.00    +0.000 A 
ENDBRANCH  23  26
ENDBRANCH  21  23
ENDBRANCH  20  21
ENDBRANCH   5  19
TORSDOF 6
ENDMDL
MODEL 6
REMARK VINA RESULT:      -8.3      2.062      3.013
REMARK  Name = 
REMARK  7 active torsions:
REMARK  status: ('A' for Active; 'I' for Inactive)
REMARK    1  A    between atoms: C_1  and  C_2
REMARK    2  A    between atoms: C_5  and  C_6
REMARK    3  A    between atoms: N_8  and  C_9
REMARK    4  A    between atoms: C_16  and  C_17
REMARK    5  A    between atoms: N_18  and  N_19
REMARK    6  A    between atoms: N_19  and  S_20
REMARK    7  A    between atoms: S_20  and  C_23
REMARK                            x       y       z     vdW  Elec       q    Type
REMARK                         _______ _______ _______ _____ _____    ______ ____
ROOT
ATOM      1  C   UNL     1       2.447   6.587  19.295  0.00  0.00    +0.000 A 
ATOM      2  N   UNL     1       1.674   7.078  20.277  0.00  0.00    +0.000 NA
ATOM      3  N   UNL     1       1.517   8.397  20.001  0.00  0.00    +0.000 N 
ATOM      4  C   UNL     1       2.239   8.758  18.891  0.00  0.00    +0.000 A 
ATOM      5  C   UNL     1       2.881   7.630  18.432  0.00  0.00    +0.000 A 
ENDROOT
BRANCH   1  10
ATOM      6  C   UNL     1       3.520   0.916  18.834  0.00  0.00    +0.000 C 
ATOM      7  C   UNL     1       3.241   2.383  18.966  0.00  0.00    +0.000 A 
ATOM      8  C   UNL     1       4.125   3.219  19.653  0.00  0.00    +0.000 A 
ATOM      9  C   UNL     1       3.869   4.588  19.753  0.00  0.00    +0.000 A 
ATOM     10  C   UNL     1       2.710   5.148  19.193  0.00  0.00    +0.000 A 
ATOM     11  C   UNL     1       1.833   4.308  18.496  0.00  0.00    +0.000 A 
ATOM     12  C   UNL     1       2.097   2.939  18.384  0.00  0.00    +0.000 A 
ENDBRANCH   1  10
BRANCH   3  13
ATOM     13  C   UNL     1       0.690   9.227  20.808  0.00  0.00    +0.000 A 
ATOM     14  C   UNL     1       0.476   8.893  22.153  0.00  0.00    +0.000 A 
ATOM     15  C   UNL     1      -0.339   9.694  22.957  0.00  0.00    +0.000 A 
ATOM     16  C   UNL     1      -0.948  10.829  22.422  0.00  0.00    +0.000 A 
ATOM     17  C   UNL     1      -0.741  11.168  21.088  0.00  0.00    +0.000 A 
ATOM     18  C   UNL     1       0.079  10.372  20.279  0.00  0.00    +0.000 A 
ENDBRANCH   3  13
BRANCH   5  19
ATOM     19  C   UNL     1       3.773   7.569  17.301  0.00  0.00    +0.000 C 
ATOM     20  N   UNL     1       4.311   6.432  17.009  0.00  0.00    +0.000 NA
BRANCH  20  21
ATOM     21  N   UNL     1       5.211   6.448  15.894  0.00  0.00    +0.000 N 
ATOM     22  H   UNL     1       4.950   6.737  14.951  0.00  0.00    +0.000 HD
BRANCH  21  23
ATOM     23  S   UNL     1       6.665   5.565  15.983  0.00  0.00    +0.000 S 
ATOM     24  O   UNL     1       7.794   6.461  16.100  0.00  0.00    +0.000 OA
ATOM     25  O   UNL     1       6.422   4.513  16.952  0.00  0.00    +0.000 OA
BRANCH  23  26
ATOM     26  C   UNL     1       6.705   4.827  14.370  0.00  0.00    +0.000 A 
ATOM     27  C   UNL     1       7.671   5.249  13.450  0.00  0.00    +0.000 A 
ATOM     28  C   UNL     1       7.653   4.738  12.153  0.00  0.00    +0.000 A 
ATOM     29  C   UNL     1       6.685   3.803  11.786  0.00  0.00    +0.000 A 
ATOM     30  C   UNL     1       5.742   3.361  12.716  0.00  0.00    +0.000 A 
ATOM     31  C   UNL     1       5.750   3.871  14.014  0.00  0.00    +0.000 A 
ENDBRANCH  23  26
ENDBRANCH  21  23
ENDBRANCH  20  21
ENDBRANCH   5  19
TORSDOF 6
ENDMDL
MODEL 7
REMARK VINA RESULT:      -8.2      3.497      6.652
REMARK  Name = 
REMARK  7 active torsions:
REMARK  status: ('A' for Active; 'I' for Inactive)
REMARK    1  A    between atoms: C_1  and  C_2
REMARK    2  A    between atoms: C_5  and  C_6
REMARK    3  A    between atoms: N_8  and  C_9
REMARK    4  A    between atoms: C_16  and  C_17
REMARK    5  A    between atoms: N_18  and  N_19
REMARK    6  A    between atoms: N_19  and  S_20
REMARK    7  A    between atoms: S_20  and  C_23
REMARK                            x       y       z     vdW  Elec       q    Type
REMARK                         _______ _______ _______ _____ _____    ______ ____
ROOT
ATOM      1  C   UNL     1       7.149   6.239  16.839  0.00  0.00    +0.000 A 
ATOM      2  N   UNL     1       7.482   7.536  16.744  0.00  0.00    +0.000 NA
ATOM      3  N   UNL     1       7.918   7.898  17.976  0.00  0.00    +0.000 N 
ATOM      4  C   UNL     1       7.800   6.860  18.866  0.00  0.00    +0.000 A 
ATOM      5  C   UNL     1       7.274   5.788  18.182  0.00  0.00    +0.000 A 
ENDROOT
BRANCH   1  10
ATOM      6  C   UNL     1       5.605   3.263  12.118  0.00  0.00    +0.000 C 
ATOM      7  C   UNL     1       6.014   4.025  13.343  0.00  0.00    +0.000 A 
ATOM      8  C   UNL     1       7.285   4.596  13.437  0.00  0.00    +0.000 A 
ATOM      9  C   UNL     1       7.651   5.323  14.573  0.00  0.00    +0.000 A 
ATOM     10  C   UNL     1       6.765   5.471  15.651  0.00  0.00    +0.000 A 
ATOM     11  C   UNL     1       5.487   4.906  15.547  0.00  0.00    +0.000 A 
ATOM     12  C   UNL     1       5.116   4.191  14.404  0.00  0.00    +0.000 A 
ENDBRANCH   1  10
BRANCH   3  13
ATOM     13  C   UNL     1       8.419   9.205  18.227  0.00  0.00    +0.000 A 
ATOM     14  C   UNL     1       9.267   9.423  19.323  0.00  0.00    +0.000 A 
ATOM     15  C   UNL     1       9.762  10.702  19.588  0.00  0.00    +0.000 A 
ATOM     16  C   UNL     1       9.411  11.771  18.764  0.00  0.00    +0.000 A 
ATOM     17  C   UNL     1       8.571  11.565  17.674  0.00  0.00    +0.000 A 
ATOM     18  C   UNL     1       8.076  10.284  17.401  0.00  0.00    +0.000 A 
ENDBRANCH   3  13
BRANCH   5  19
ATOM     19  C   UNL     1       6.957   4.501  18.748  0.00  0.00    +0.000 C 
ATOM     20  N   UNL     1       5.716   4.222  18.970  0.00  0.00    +0.000 NA
BRANCH  20  21
ATOM     21  N   UNL     1       5.471   2.940  19.561  0.00  0.00    +0.000 N 
ATOM     22  H   UNL     1       6.157   2.184  19.597  0.00  0.00    +0.000 HD
BRANCH  21  23
ATOM     23  S   UNL     1       3.867   2.447  19.856  0.00  0.00    +0.000 S 
ATOM     24  O   UNL     1       3.439   1.496  18.854  0.00  0.00    +0.000 OA
ATOM     25  O   UNL     1       3.809   2.143  21.273  0.00  0.00    +0.000 OA
BRANCH  23  26
ATOM     26  C   UNL     1       2.998   3.970  19.585  0.00  0.00    +0.000 A 
ATOM     27  C   UNL     1       2.835   4.439  18.277  0.00  0.00    +0.000 A 
ATOM     28  C   UNL     1       2.231   5.678  18.063  0.00  0.00    +0.000 A 
ATOM     29  C   UNL     1       1.781   6.431  19.149  0.00  0.00    +0.000 A 
ATOM     30  C   UNL     1       1.917   5.943  20.450  0.00  0.00    +0.000 A 
ATOM     31  C   UNL     1       2.525   4.708  20.673  0.00  0.00    +0.000 A 
ENDBRANCH  23  26
ENDBRANCH  21  23
ENDBRANCH  20  21
ENDBRANCH   5  19
TORSDOF 6
ENDMDL
MODEL 8
REMARK VINA RESULT:      -8.2      0.114      1.533
REMARK  Name = 
REMARK  7 active torsions:
REMARK  status: ('A' for Active; 'I' for Inactive)
REMARK    1  A    between atoms: C_1  and  C_2
REMARK    2  A    between atoms: C_5  and  C_6
REMARK    3  A    between atoms: N_8  and  C_9
REMARK    4  A    between atoms: C_16  and  C_17
REMARK    5  A    between atoms: N_18  and  N_19
REMARK    6  A    between atoms: N_19  and  S_20
REMARK    7  A    between atoms: S_20  and  C_23
REMARK                            x       y       z     vdW  Elec       q    Type
REMARK                         _______ _______ _______ _____ _____    ______ ____
ROOT
ATOM      1  C   UNL     1       2.785   6.544  18.700  0.00  0.00    +0.000 A 
ATOM      2  N   UNL     1       1.979   7.106  19.615  0.00  0.00    +0.000 NA
ATOM      3  N   UNL     1       1.824   8.397  19.230  0.00  0.00    +0.000 N 
ATOM      4  C   UNL     1       2.578   8.674  18.118  0.00  0.00    +0.000 A 
ATOM      5  C   UNL     1       3.239   7.519  17.769  0.00  0.00    +0.000 A 
ENDROOT
BRANCH   1  10
ATOM      6  C   UNL     1       3.836   0.852  18.842  0.00  0.00    +0.000 C 
ATOM      7  C   UNL     1       3.566   2.326  18.793  0.00  0.00    +0.000 A 
ATOM      8  C   UNL     1       2.467   2.827  18.091  0.00  0.00    +0.000 A 
ATOM      9  C   UNL     1       2.209   4.200  18.068  0.00  0.00    +0.000 A 
ATOM     10  C   UNL     1       3.060   5.105  18.722  0.00  0.00    +0.000 A 
ATOM     11  C   UNL     1       4.155   4.596  19.433  0.00  0.00    +0.000 A 
ATOM     12  C   UNL     1       4.404   3.220  19.468  0.00  0.00    +0.000 A 
ENDBRANCH   1  10
BRANCH   3  13
ATOM     13  C   UNL     1       0.967   9.282  19.942  0.00  0.00    +0.000 A 
ATOM     14  C   UNL     1       0.594   8.975  21.259  0.00  0.00    +0.000 A 
ATOM     15  C   UNL     1      -0.252   9.830  21.969  0.00  0.00    +0.000 A 
ATOM     16  C   UNL     1      -0.734  10.993  21.369  0.00  0.00    +0.000 A 
ATOM     17  C   UNL     1      -0.369  11.306  20.063  0.00  0.00    +0.000 A 
ATOM     18  C   UNL     1       0.483  10.456  19.348  0.00  0.00    +0.000 A 
ENDBRANCH   3  13
BRANCH   5  19
ATOM     19  C   UNL     1       4.166   7.376  16.675  0.00  0.00    +0.000 C 
ATOM     20  N   UNL     1       4.371   6.192  16.200  0.00  0.00    +0.000 NA
BRANCH  20  21
ATOM     21  N   UNL     1       5.326   6.115  15.135  0.00  0.00    +0.000 N 
ATOM     22  H   UNL     1       5.140   6.411  14.175  0.00  0.00    +0.000 HD
BRANCH  21  23
ATOM     23  S   UNL     1       6.694   5.116  15.311  0.00  0.00    +0.000 S 
ATOM     24  O   UNL     1       6.301   3.725  15.367  0.00  0.00    +0.000 OA
ATOM     25  O   UNL     1       7.655   5.599  14.336  0.00  0.00    +0.000 OA
BRANCH  23  26
ATOM     26  C   UNL     1       7.255   5.602  16.922  0.00  0.00    +0.000 A 
ATOM     27  C   UNL     1       7.537   6.950  17.169  0.00  0.00    +0.000 A 
ATOM     28  C   UNL     1       8.061   7.326  18.405  0.00  0.00    +0.000 A 
ATOM     29  C   UNL     1       8.288   6.362  19.389  0.00  0.00    +0.000 A 
ATOM     30  C   UNL     1       7.975   5.022  19.148  0.00  0.00    +0.000 A 
ATOM     31  C   UNL     1       7.455   4.637  17.913  0.00  0.00    +0.000 A 
ENDBRANCH  23  26
ENDBRANCH  21  23
ENDBRANCH  20  21
ENDBRANCH   5  19
TORSDOF 6
ENDMDL
MODEL 9
REMARK VINA RESULT:      -8.2      3.547      7.724
REMARK  Name = 
REMARK  7 active torsions:
REMARK  status: ('A' for Active; 'I' for Inactive)
REMARK    1  A    between atoms: C_1  and  C_2
REMARK    2  A    between atoms: C_5  and  C_6
REMARK    3  A    between atoms: N_8  and  C_9
REMARK    4  A    between atoms: C_16  and  C_17
REMARK    5  A    between atoms: N_18  and  N_19
REMARK    6  A    between atoms: N_19  and  S_20
REMARK    7  A    between atoms: S_20  and  C_23
REMARK                            x       y       z     vdW  Elec       q    Type
REMARK                         _______ _______ _______ _____ _____    ______ ____
ROOT
ATOM      1  C   UNL     1       4.015   4.916  17.262  0.00  0.00    +0.000 A 
ATOM      2  N   UNL     1       4.437   4.204  16.205  0.00  0.00    +0.000 NA
ATOM      3  N   UNL     1       5.146   5.067  15.436  0.00  0.00    +0.000 N 
ATOM      4  C   UNL     1       5.119   6.334  15.963  0.00  0.00    +0.000 A 
ATOM      5  C   UNL     1       4.369   6.285  17.116  0.00  0.00    +0.000 A 
ENDROOT
BRANCH   1  10
ATOM      6  C   UNL     1       1.314   2.399  21.723  0.00  0.00    +0.000 C 
ATOM      7  C   UNL     1       2.007   3.043  20.559  0.00  0.00    +0.000 A 
ATOM      8  C   UNL     1       1.288   3.800  19.631  0.00  0.00    +0.000 A 
ATOM      9  C   UNL     1       1.944   4.416  18.562  0.00  0.00    +0.000 A 
ATOM     10  C   UNL     1       3.328   4.265  18.382  0.00  0.00    +0.000 A 
ATOM     11  C   UNL     1       4.045   3.514  19.321  0.00  0.00    +0.000 A 
ATOM     12  C   UNL     1       3.390   2.910  20.400  0.00  0.00    +0.000 A 
ENDBRANCH   1  10
BRANCH   3  13
ATOM     13  C   UNL     1       5.805   4.633  14.253  0.00  0.00    +0.000 A 
ATOM     14  C   UNL     1       5.173   3.709  13.408  0.00  0.00    +0.000 A 
ATOM     15  C   UNL     1       5.810   3.266  12.246  0.00  0.00    +0.000 A 
ATOM     16  C   UNL     1       7.082   3.739  11.923  0.00  0.00    +0.000 A 
ATOM     17  C   UNL     1       7.717   4.655  12.756  0.00  0.00    +0.000 A 
ATOM     18  C   UNL     1       7.082   5.106  13.919  0.00  0.00    +0.000 A 
ENDBRANCH   3  13
BRANCH   5  19
ATOM     19  C   UNL     1       4.058   7.406  17.968  0.00  0.00    +0.000 C 
ATOM     20  N   UNL     1       2.865   7.898  17.916  0.00  0.00    +0.000 NA
BRANCH  20  21
ATOM     21  N   UNL     1       2.631   9.029  18.764  0.00  0.00    +0.000 N 
ATOM     22  H   UNL     1       3.074   9.165  19.674  0.00  0.00    +0.000 HD
BRANCH  21  23
ATOM     23  S   UNL     1       1.260  10.004  18.497  0.00  0.00    +0.000 S 
ATOM     24  O   UNL     1       1.657  11.337  18.100  0.00  0.00    +0.000 OA
ATOM     25  O   UNL     1       0.365   9.199  17.686  0.00  0.00    +0.000 OA
BRANCH  23  26
ATOM     26  C   UNL     1       0.587  10.089  20.137  0.00  0.00    +0.000 A 
ATOM     27  C   UNL     1       0.869   9.061  21.044  0.00  0.00    +0.000 A 
ATOM     28  C   UNL     1       0.274   9.076  22.304  0.00  0.00    +0.000 A 
ATOM     29  C   UNL     1      -0.585  10.119  22.657  0.00  0.00    +0.000 A 
ATOM     30  C   UNL     1      -0.838  11.159  21.760  0.00  0.00    +0.000 A 
ATOM     31  C   UNL     1      -0.250  11.148  20.495  0.00  0.00    +0.000 A 
ENDBRANCH  23  26
ENDBRANCH  21  23
ENDBRANCH  20  21
ENDBRANCH   5  19
TORSDOF 6
ENDMDL
