MODEL 1
REMARK VINA RESULT:      -7.4      0.000      0.000
REMARK  Name = 
REMARK  12 active torsions:
REMARK  status: ('A' for Active; 'I' for Inactive)
REMARK    1  A    between atoms: C_2  and  C_3
REMARK    2  A    between atoms: C_2  and  C_4
REMARK    3  A    between atoms: C_4  and  O_5
REMARK    4  A    between atoms: C_4  and  C_6
REMARK    5  A    between atoms: C_6  and  C_7
REMARK    6  A    between atoms: C_8  and  O_9
REMARK    7  A    between atoms: O_9  and  C_10
REMARK    8  A    between atoms: C_14  and  C_15
REMARK    9  A    between atoms: C_18  and  O_19
REMARK   10  A    between atoms: C_21  and  O_22
REMARK   11  A    between atoms: C_23  and  C_24
REMARK   12  A    between atoms: C_27  and  O_28
REMARK                            x       y       z     vdW  Elec       q    Type
REMARK                         _______ _______ _______ _____ _____    ______ ____
ROOT
ATOM      1  C   UNL     1       3.533   5.483  18.992  0.00  0.00    +0.000 A 
ATOM      2  C   UNL     1       3.875   5.931  17.692  0.00  0.00    +0.000 A 
ATOM      3  C   UNL     1       3.381   7.149  17.201  0.00  0.00    +0.000 A 
ATOM      4  C   UNL     1       2.586   7.906  18.052  0.00  0.00    +0.000 A 
ATOM      5  O   UNL     1       2.068   9.121  17.749  0.00  0.00    +0.000 OA
ATOM      6  C   UNL     1       1.376   9.559  18.845  0.00  0.00    +0.000 A 
ATOM      7  C   UNL     1       1.392   8.580  19.825  0.00  0.00    +0.000 A 
ATOM      8  C   UNL     1       2.226   7.528  19.332  0.00  0.00    +0.000 A 
ATOM      9  C   UNL     1       2.710   6.298  19.807  0.00  0.00    +0.000 A 
ENDROOT
BRANCH   6  10
ATOM     10  C   UNL     1       0.857  10.920  18.724  0.00  0.00    +0.000 A 
ATOM     11  C   UNL     1       1.749  12.009  18.751  0.00  0.00    +0.000 A 
ATOM     12  C   UNL     1       1.286  13.323  18.702  0.00  0.00    +0.000 A 
ATOM     13  C   UNL     1      -0.079  13.563  18.623  0.00  0.00    +0.000 A 
ATOM     14  C   UNL     1      -0.986  12.509  18.583  0.00  0.00    +0.000 A 
ATOM     15  C   UNL     1      -0.518  11.201  18.639  0.00  0.00    +0.000 A 
BRANCH  13  16
ATOM     16  O   UNL     1      -0.584  14.826  18.598  0.00  0.00    +0.000 OA
ATOM     17  H   UNL     1      -0.604  15.173  19.504  0.00  0.00    +0.000 HD
ENDBRANCH  13  16
BRANCH  15  18
ATOM     18  O   UNL     1      -1.433  10.178  18.638  0.00  0.00    +0.000 OA
ATOM     19  H   UNL     1      -2.191  10.429  19.195  0.00  0.00    +0.000 HD
ENDBRANCH  15  18
ENDBRANCH   6  10
BRANCH   2  20
ATOM     20  O   UNL     1       4.690   5.119  16.935  0.00  0.00    +0.000 OA
ATOM     21  C   UNL     1       5.625   5.788  16.086  0.00  0.00    +0.000 C 
ENDBRANCH   2  20
BRANCH   7  22
ATOM     22  C   UNL     1       0.704   8.629  21.091  0.00  0.00    +0.000 C 
ATOM     23  O   UNL     1      -0.515   8.762  21.178  0.00  0.00    +0.000 OA
ENDBRANCH   7  22
BRANCH   9  24
ATOM     24  O   UNL     1       2.428   5.865  21.084  0.00  0.00    +0.000 OA
ATOM     25  H   UNL     1       1.547   5.433  21.105  0.00  0.00    +0.000 HD
ENDBRANCH   9  24
BRANCH   1  26
ATOM     26  C   UNL     1       4.083   4.188  19.569  0.00  0.00    +0.000 C 
BRANCH  26  27
ATOM     27  C   UNL     1       3.312   2.900  19.196  0.00  0.00    +0.000 C 
BRANCH  27  29
ATOM     28  C   UNL     1       0.820   2.868  19.034  0.00  0.00    +0.000 C 
ATOM     29  C   UNL     1       1.921   2.810  19.807  0.00  0.00    +0.000 C 
ATOM     30  C   UNL     1       1.805   2.607  21.290  0.00  0.00    +0.000 C 
ENDBRANCH  27  29
BRANCH  27  31
ATOM     31  O   UNL     1       3.249   2.806  17.766  0.00  0.00    +0.000 OA
ATOM     32  H   UNL     1       3.312   1.876  17.510  0.00  0.00    +0.000 HD
ENDBRANCH  27  31
ENDBRANCH  26  27
ENDBRANCH   1  26
TORSDOF 10
ENDMDL
MODEL 2
REMARK VINA RESULT:      -7.2      0.808      1.046
REMARK  Name = 
REMARK  12 active torsions:
REMARK  status: ('A' for Active; 'I' for Inactive)
REMARK    1  A    between atoms: C_2  and  C_3
REMARK    2  A    between atoms: C_2  and  C_4
REMARK    3  A    between atoms: C_4  and  O_5
REMARK    4  A    between atoms: C_4  and  C_6
REMARK    5  A    between atoms: C_6  and  C_7
REMARK    6  A    between atoms: C_8  and  O_9
REMARK    7  A    between atoms: O_9  and  C_10
REMARK    8  A    between atoms: C_14  and  C_15
REMARK    9  A    between atoms: C_18  and  O_19
REMARK   10  A    between atoms: C_21  and  O_22
REMARK   11  A    between atoms: C_23  and  C_24
REMARK   12  A    between atoms: C_27  and  O_28
REMARK                            x       y       z     vdW  Elec       q    Type
REMARK                         _______ _______ _______ _____ _____    ______ ____
ROOT
ATOM      1  C   UNL     1       3.384   5.761  19.072  0.00  0.00    +0.000 A 
ATOM      2  C   UNL     1       3.692   6.362  17.826  0.00  0.00    +0.000 A 
ATOM      3  C   UNL     1       3.136   7.601  17.471  0.00  0.00    +0.000 A 
ATOM      4  C   UNL     1       2.316   8.223  18.403  0.00  0.00    +0.000 A 
ATOM      5  O   UNL     1       1.739   9.438  18.236  0.00  0.00    +0.000 OA
ATOM      6  C   UNL     1       1.038   9.722  19.376  0.00  0.00    +0.000 A 
ATOM      7  C   UNL     1       1.109   8.645  20.245  0.00  0.00    +0.000 A 
ATOM      8  C   UNL     1       1.987   7.693  19.637  0.00  0.00    +0.000 A 
ATOM      9  C   UNL     1       2.532   6.444  19.974  0.00  0.00    +0.000 A 
ENDROOT
BRANCH   6  10
ATOM     10  C   UNL     1       0.454  11.062  19.405  0.00  0.00    +0.000 A 
ATOM     11  C   UNL     1       0.841  11.966  20.412  0.00  0.00    +0.000 A 
ATOM     12  C   UNL     1       0.261  13.230  20.510  0.00  0.00    +0.000 A 
ATOM     13  C   UNL     1      -0.716  13.605  19.597  0.00  0.00    +0.000 A 
ATOM     14  C   UNL     1      -1.113  12.739  18.584  0.00  0.00    +0.000 A 
ATOM     15  C   UNL     1      -0.534  11.478  18.496  0.00  0.00    +0.000 A 
BRANCH  13  16
ATOM     16  O   UNL     1      -1.330  14.816  19.664  0.00  0.00    +0.000 OA
ATOM     17  H   UNL     1      -0.909  15.416  19.028  0.00  0.00    +0.000 HD
ENDBRANCH  13  16
BRANCH  15  18
ATOM     18  O   UNL     1      -0.969  10.625  17.512  0.00  0.00    +0.000 OA
ATOM     19  H   UNL     1      -1.756  11.008  17.086  0.00  0.00    +0.000 HD
ENDBRANCH  15  18
ENDBRANCH   6  10
BRANCH   2  20
ATOM     20  O   UNL     1       4.536   5.676  16.981  0.00  0.00    +0.000 OA
ATOM     21  C   UNL     1       5.795   6.298  16.714  0.00  0.00    +0.000 C 
ENDBRANCH   2  20
BRANCH   7  22
ATOM     22  C   UNL     1       0.433   8.524  21.511  0.00  0.00    +0.000 C 
ATOM     23  O   UNL     1      -0.703   8.065  21.615  0.00  0.00    +0.000 OA
ENDBRANCH   7  22
BRANCH   9  24
ATOM     24  O   UNL     1       2.283   5.863  21.198  0.00  0.00    +0.000 OA
ATOM     25  H   UNL     1       1.379   5.481  21.211  0.00  0.00    +0.000 HD
ENDBRANCH   9  24
BRANCH   1  26
ATOM     26  C   UNL     1       4.000   4.438  19.502  0.00  0.00    +0.000 C 
BRANCH  26  27
ATOM     27  C   UNL     1       3.249   3.164  19.051  0.00  0.00    +0.000 C 
BRANCH  27  29
ATOM     28  C   UNL     1       2.229   2.538  21.243  0.00  0.00    +0.000 C 
ATOM     29  C   UNL     1       2.063   2.797  19.932  0.00  0.00    +0.000 C 
ATOM     30  C   UNL     1       0.695   2.775  19.315  0.00  0.00    +0.000 C 
ENDBRANCH  27  29
BRANCH  27  31
ATOM     31  O   UNL     1       2.838   3.337  17.688  0.00  0.00    +0.000 OA
ATOM     32  H   UNL     1       1.955   3.732  17.675  0.00  0.00    +0.000 HD
ENDBRANCH  27  31
ENDBRANCH  26  27
ENDBRANCH   1  26
TORSDOF 10
ENDMDL
MODEL 3
REMARK VINA RESULT:      -7.2      0.889      1.369
REMARK  Name = 
REMARK  12 active torsions:
REMARK  status: ('A' for Active; 'I' for Inactive)
REMARK    1  A    between atoms: C_2  and  C_3
REMARK    2  A    between atoms: C_2  and  C_4
REMARK    3  A    between atoms: C_4  and  O_5
REMARK    4  A    between atoms: C_4  and  C_6
REMARK    5  A    between atoms: C_6  and  C_7
REMARK    6  A    between atoms: C_8  and  O_9
REMARK    7  A    between atoms: O_9  and  C_10
REMARK    8  A    between atoms: C_14  and  C_15
REMARK    9  A    between atoms: C_18  and  O_19
REMARK   10  A    between atoms: C_21  and  O_22
REMARK   11  A    between atoms: C_23  and  C_24
REMARK   12  A    between atoms: C_27  and  O_28
REMARK                            x       y       z     vdW  Elec       q    Type
REMARK                         _______ _______ _______ _____ _____    ______ ____
ROOT
ATOM      1  C   UNL     1       3.213   5.850  19.112  0.00  0.00    +0.000 A 
ATOM      2  C   UNL     1       3.578   6.398  17.857  0.00  0.00    +0.000 A 
ATOM      3  C   UNL     1       3.094   7.652  17.455  0.00  0.00    +0.000 A 
ATOM      4  C   UNL     1       2.287   8.342  18.349  0.00  0.00    +0.000 A 
ATOM      5  O   UNL     1       1.776   9.579  18.135  0.00  0.00    +0.000 OA
ATOM      6  C   UNL     1       1.066   9.932  19.250  0.00  0.00    +0.000 A 
ATOM      7  C   UNL     1       1.064   8.878  20.150  0.00  0.00    +0.000 A 
ATOM      8  C   UNL     1       1.905   7.866  19.590  0.00  0.00    +0.000 A 
ATOM      9  C   UNL     1       2.378   6.601  19.975  0.00  0.00    +0.000 A 
ENDROOT
BRANCH   6  10
ATOM     10  C   UNL     1       0.552  11.299  19.228  0.00  0.00    +0.000 A 
ATOM     11  C   UNL     1      -0.763  11.554  19.661  0.00  0.00    +0.000 A 
ATOM     12  C   UNL     1      -1.310  12.835  19.596  0.00  0.00    +0.000 A 
ATOM     13  C   UNL     1      -0.543  13.879  19.096  0.00  0.00    +0.000 A 
ATOM     14  C   UNL     1       0.762  13.663  18.670  0.00  0.00    +0.000 A 
ATOM     15  C   UNL     1       1.300  12.382  18.732  0.00  0.00    +0.000 A 
BRANCH  13  16
ATOM     16  O   UNL     1      -1.037  15.142  18.988  0.00  0.00    +0.000 OA
ATOM     17  H   UNL     1      -1.223  15.482  19.879  0.00  0.00    +0.000 HD
ENDBRANCH  13  16
BRANCH  15  18
ATOM     18  O   UNL     1       2.576  12.184  18.270  0.00  0.00    +0.000 OA
ATOM     19  H   UNL     1       2.580  12.271  17.300  0.00  0.00    +0.000 HD
ENDBRANCH  15  18
ENDBRANCH   6  10
BRANCH   2  20
ATOM     20  O   UNL     1       4.404   5.646  17.052  0.00  0.00    +0.000 OA
ATOM     21  C   UNL     1       5.508   6.339  16.467  0.00  0.00    +0.000 C 
ENDBRANCH   2  20
BRANCH   7  22
ATOM     22  C   UNL     1       0.355   8.829  21.404  0.00  0.00    +0.000 C 
ATOM     23  O   UNL     1      -0.511   7.990  21.644  0.00  0.00    +0.000 OA
ENDBRANCH   7  22
BRANCH   9  24
ATOM     24  O   UNL     1       2.073   6.070  21.209  0.00  0.00    +0.000 OA
ATOM     25  H   UNL     1       2.523   6.582  21.915  0.00  0.00    +0.000 HD
ENDBRANCH   9  24
BRANCH   1  26
ATOM     26  C   UNL     1       3.751   4.511  19.594  0.00  0.00    +0.000 C 
BRANCH  26  27
ATOM     27  C   UNL     1       2.987   3.259  19.104  0.00  0.00    +0.000 C 
BRANCH  27  29
ATOM     28  C   UNL     1       0.531   2.863  19.329  0.00  0.00    +0.000 C 
ATOM     29  C   UNL     1       1.741   2.934  19.916  0.00  0.00    +0.000 C 
ATOM     30  C   UNL     1       1.898   2.649  21.382  0.00  0.00    +0.000 C 
ENDBRANCH  27  29
BRANCH  27  31
ATOM     31  O   UNL     1       2.662   3.439  17.718  0.00  0.00    +0.000 OA
ATOM     32  H   UNL     1       1.829   3.925  17.653  0.00  0.00    +0.000 HD
ENDBRANCH  27  31
ENDBRANCH  26  27
ENDBRANCH   1  26
TORSDOF 10
ENDMDL
MODEL 4
REMARK VINA RESULT:      -7.2      2.115      4.061
REMARK  Name = 
REMARK  12 active torsions:
REMARK  status: ('A' for Active; 'I' for Inactive)
REMARK    1  A    between atoms: C_2  and  C_3
REMARK    2  A    between atoms: C_2  and  C_4
REMARK    3  A    between atoms: C_4  and  O_5
REMARK    4  A    between atoms: C_4  and  C_6
REMARK    5  A    between atoms: C_6  and  C_7
REMARK    6  A    between atoms: C_8  and  O_9
REMARK    7  A    between atoms: O_9  and  C_10
REMARK    8  A    between atoms: C_14  and  C_15
REMARK    9  A    between atoms: C_18  and  O_19
REMARK   10  A    between atoms: C_21  and  O_22
REMARK   11  A    between atoms: C_23  and  C_24
REMARK   12  A    between atoms: C_27  and  O_28
REMARK                            x       y       z     vdW  Elec       q    Type
REMARK                         _______ _______ _______ _____ _____    ______ ____
ROOT
ATOM      1  C   UNL     1       3.379   5.255  18.859  0.00  0.00    +0.000 A 
ATOM      2  C   UNL     1       2.811   4.722  20.044  0.00  0.00    +0.000 A 
ATOM      3  C   UNL     1       2.013   5.521  20.877  0.00  0.00    +0.000 A 
ATOM      4  C   UNL     1       1.775   6.827  20.473  0.00  0.00    +0.000 A 
ATOM      5  O   UNL     1       0.993   7.713  21.137  0.00  0.00    +0.000 OA
ATOM      6  C   UNL     1       0.978   8.874  20.415  0.00  0.00    +0.000 A 
ATOM      7  C   UNL     1       1.818   8.750  19.320  0.00  0.00    +0.000 A 
ATOM      8  C   UNL     1       2.292   7.400  19.325  0.00  0.00    +0.000 A 
ATOM      9  C   UNL     1       3.105   6.598  18.508  0.00  0.00    +0.000 A 
ENDROOT
BRANCH   6  10
ATOM     10  C   UNL     1       0.073   9.896  20.937  0.00  0.00    +0.000 A 
ATOM     11  C   UNL     1      -0.746  10.619  20.049  0.00  0.00    +0.000 A 
ATOM     12  C   UNL     1      -1.575  11.643  20.503  0.00  0.00    +0.000 A 
ATOM     13  C   UNL     1      -1.596  11.956  21.855  0.00  0.00    +0.000 A 
ATOM     14  C   UNL     1      -0.808  11.254  22.760  0.00  0.00    +0.000 A 
ATOM     15  C   UNL     1       0.022  10.237  22.300  0.00  0.00    +0.000 A 
BRANCH  13  16
ATOM     16  O   UNL     1      -2.369  12.962  22.345  0.00  0.00    +0.000 OA
ATOM     17  H   UNL     1      -2.497  13.626  21.648  0.00  0.00    +0.000 HD
ENDBRANCH  13  16
BRANCH  15  18
ATOM     18  O   UNL     1       0.820   9.584  23.205  0.00  0.00    +0.000 OA
ATOM     19  H   UNL     1       0.338   9.490  24.045  0.00  0.00    +0.000 HD
ENDBRANCH  15  18
ENDBRANCH   6  10
BRANCH   2  20
ATOM     20  O   UNL     1       3.087   3.407  20.345  0.00  0.00    +0.000 OA
ATOM     21  C   UNL     1       2.404   2.868  21.478  0.00  0.00    +0.000 C 
ENDBRANCH   2  20
BRANCH   7  22
ATOM     22  C   UNL     1       2.136   9.783  18.367  0.00  0.00    +0.000 C 
ATOM     23  O   UNL     1       2.144   9.587  17.154  0.00  0.00    +0.000 OA
ENDBRANCH   7  22
BRANCH   9  24
ATOM     24  O   UNL     1       3.630   7.082  17.330  0.00  0.00    +0.000 OA
ATOM     25  H   UNL     1       3.771   6.345  16.697  0.00  0.00    +0.000 HD
ENDBRANCH   9  24
BRANCH   1  26
ATOM     26  C   UNL     1       4.216   4.405  17.914  0.00  0.00    +0.000 C 
BRANCH  26  27
ATOM     27  C   UNL     1       5.735   4.365  18.205  0.00  0.00    +0.000 C 
BRANCH  27  29
ATOM     28  C   UNL     1       6.604   4.932  15.933  0.00  0.00    +0.000 C 
ATOM     29  C   UNL     1       6.572   5.205  17.251  0.00  0.00    +0.000 C 
ATOM     30  C   UNL     1       7.326   6.378  17.808  0.00  0.00    +0.000 C 
ENDBRANCH  27  29
BRANCH  27  31
ATOM     31  O   UNL     1       5.948   4.770  19.565  0.00  0.00    +0.000 OA
ATOM     32  H   UNL     1       6.867   4.590  19.805  0.00  0.00    +0.000 HD
ENDBRANCH  27  31
ENDBRANCH  26  27
ENDBRANCH   1  26
TORSDOF 10
ENDMDL
MODEL 5
REMARK VINA RESULT:      -7.1      1.181      1.617
REMARK  Name = 
REMARK  12 active torsions:
REMARK  status: ('A' for Active; 'I' for Inactive)
REMARK    1  A    between atoms: C_2  and  C_3
REMARK    2  A    between atoms: C_2  and  C_4
REMARK    3  A    between atoms: C_4  and  O_5
REMARK    4  A    between atoms: C_4  and  C_6
REMARK    5  A    between atoms: C_6  and  C_7
REMARK    6  A    between atoms: C_8  and  O_9
REMARK    7  A    between atoms: O_9  and  C_10
REMARK    8  A    between atoms: C_14  and  C_15
REMARK    9  A    between atoms: C_18  and  O_19
REMARK   10  A    between atoms: C_21  and  O_22
REMARK   11  A    between atoms: C_23  and  C_24
REMARK   12  A    between atoms: C_27  and  O_28
REMARK                            x       y       z     vdW  Elec       q    Type
REMARK                         _______ _______ _______ _____ _____    ______ ____
ROOT
ATOM      1  C   UNL     1       3.474   5.834  19.108  0.00  0.00    +0.000 A 
ATOM      2  C   UNL     1       3.801   6.479  17.889  0.00  0.00    +0.000 A 
ATOM      3  C   UNL     1       3.209   7.705  17.547  0.00  0.00    +0.000 A 
ATOM      4  C   UNL     1       2.333   8.270  18.464  0.00  0.00    +0.000 A 
ATOM      5  O   UNL     1       1.714   9.465  18.308  0.00  0.00    +0.000 OA
ATOM      6  C   UNL     1       0.964   9.691  19.429  0.00  0.00    +0.000 A 
ATOM      7  C   UNL     1       1.048   8.594  20.272  0.00  0.00    +0.000 A 
ATOM      8  C   UNL     1       1.983   7.694  19.672  0.00  0.00    +0.000 A 
ATOM      9  C   UNL     1       2.566   6.458  19.996  0.00  0.00    +0.000 A 
ENDROOT
BRANCH   6  10
ATOM     10  C   UNL     1       0.327  11.006  19.472  0.00  0.00    +0.000 A 
ATOM     11  C   UNL     1      -0.622  11.351  18.492  0.00  0.00    +0.000 A 
ATOM     12  C   UNL     1      -1.204  12.618  18.463  0.00  0.00    +0.000 A 
ATOM     13  C   UNL     1      -0.841  13.556  19.420  0.00  0.00    +0.000 A 
ATOM     14  C   UNL     1       0.086  13.244  20.408  0.00  0.00    +0.000 A 
ATOM     15  C   UNL     1       0.666  11.981  20.428  0.00  0.00    +0.000 A 
BRANCH  13  16
ATOM     16  O   UNL     1      -1.360  14.813  19.422  0.00  0.00    +0.000 OA
ATOM     17  H   UNL     1      -0.817  15.377  18.847  0.00  0.00    +0.000 HD
ENDBRANCH  13  16
BRANCH  15  18
ATOM     18  O   UNL     1       1.608  11.707  21.388  0.00  0.00    +0.000 OA
ATOM     19  H   UNL     1       2.494  11.767  20.990  0.00  0.00    +0.000 HD
ENDBRANCH  15  18
ENDBRANCH   6  10
BRANCH   2  20
ATOM     20  O   UNL     1       4.700   5.849  17.057  0.00  0.00    +0.000 OA
ATOM     21  C   UNL     1       5.967   6.493  16.903  0.00  0.00    +0.000 C 
ENDBRANCH   2  20
BRANCH   7  22
ATOM     22  C   UNL     1       0.334   8.414  21.511  0.00  0.00    +0.000 C 
ATOM     23  O   UNL     1       0.564   9.088  22.513  0.00  0.00    +0.000 OA
ENDBRANCH   7  22
BRANCH   9  24
ATOM     24  O   UNL     1       2.298   5.835  21.195  0.00  0.00    +0.000 OA
ATOM     25  H   UNL     1       2.467   6.453  21.939  0.00  0.00    +0.000 HD
ENDBRANCH   9  24
BRANCH   1  26
ATOM     26  C   UNL     1       4.127   4.525  19.526  0.00  0.00    +0.000 C 
BRANCH  26  27
ATOM     27  C   UNL     1       3.519   3.240  18.916  0.00  0.00    +0.000 C 
BRANCH  27  29
ATOM     28  C   UNL     1       1.195   2.873  19.755  0.00  0.00    +0.000 C 
ATOM     29  C   UNL     1       2.005   3.283  18.761  0.00  0.00    +0.000 C 
ATOM     30  C   UNL     1       1.434   3.837  17.488  0.00  0.00    +0.000 C 
ENDBRANCH  27  29
BRANCH  27  31
ATOM     31  O   UNL     1       4.155   2.991  17.655  0.00  0.00    +0.000 OA
ATOM     32  H   UNL     1       3.520   3.161  16.945  0.00  0.00    +0.000 HD
ENDBRANCH  27  31
ENDBRANCH  26  27
ENDBRANCH   1  26
TORSDOF 10
ENDMDL
MODEL 6
REMARK VINA RESULT:      -7.1      1.659      8.285
REMARK  Name = 
REMARK  12 active torsions:
REMARK  status: ('A' for Active; 'I' for Inactive)
REMARK    1  A    between atoms: C_2  and  C_3
REMARK    2  A    between atoms: C_2  and  C_4
REMARK    3  A    between atoms: C_4  and  O_5
REMARK    4  A    between atoms: C_4  and  C_6
REMARK    5  A    between atoms: C_6  and  C_7
REMARK    6  A    between atoms: C_8  and  O_9
REMARK    7  A    between atoms: O_9  and  C_10
REMARK    8  A    between atoms: C_14  and  C_15
REMARK    9  A    between atoms: C_18  and  O_19
REMARK   10  A    between atoms: C_21  and  O_22
REMARK   11  A    between atoms: C_23  and  C_24
REMARK   12  A    between atoms: C_27  and  O_28
REMARK                            x       y       z     vdW  Elec       q    Type
REMARK                         _______ _______ _______ _____ _____    ______ ____
ROOT
ATOM      1  C   UNL     1       0.662  10.628  19.681  0.00  0.00    +0.000 A 
ATOM      2  C   UNL     1       0.305  10.136  20.961  0.00  0.00    +0.000 A 
ATOM      3  C   UNL     1       0.649   8.832  21.349  0.00  0.00    +0.000 A 
ATOM      4  C   UNL     1       1.383   8.071  20.449  0.00  0.00    +0.000 A 
ATOM      5  O   UNL     1       1.832   6.814  20.685  0.00  0.00    +0.000 OA
ATOM      6  C   UNL     1       2.536   6.414  19.583  0.00  0.00    +0.000 A 
ATOM      7  C   UNL     1       2.471   7.397  18.608  0.00  0.00    +0.000 A 
ATOM      8  C   UNL     1       1.769   8.498  19.192  0.00  0.00    +0.000 A 
ATOM      9  C   UNL     1       1.403   9.798  18.806  0.00  0.00    +0.000 A 
ENDROOT
BRANCH   6  10
ATOM     10  C   UNL     1       3.196   5.118  19.728  0.00  0.00    +0.000 A 
ATOM     11  C   UNL     1       4.516   4.955  19.268  0.00  0.00    +0.000 A 
ATOM     12  C   UNL     1       5.156   3.717  19.332  0.00  0.00    +0.000 A 
ATOM     13  C   UNL     1       4.480   2.627  19.862  0.00  0.00    +0.000 A 
ATOM     14  C   UNL     1       3.179   2.757  20.335  0.00  0.00    +0.000 A 
ATOM     15  C   UNL     1       2.544   3.992  20.263  0.00  0.00    +0.000 A 
BRANCH  13  16
ATOM     16  O   UNL     1       5.050   1.393  19.925  0.00  0.00    +0.000 OA
ATOM     17  H   UNL     1       4.923   0.947  19.072  0.00  0.00    +0.000 HD
ENDBRANCH  13  16
BRANCH  15  18
ATOM     18  O   UNL     1       1.247   4.088  20.699  0.00  0.00    +0.000 OA
ATOM     19  H   UNL     1       0.983   3.242  21.101  0.00  0.00    +0.000 HD
ENDBRANCH  15  18
ENDBRANCH   6  10
BRANCH   2  20
ATOM     20  O   UNL     1      -0.402  10.978  21.791  0.00  0.00    +0.000 OA
ATOM     21  C   UNL     1      -0.810  10.424  23.044  0.00  0.00    +0.000 C 
ENDBRANCH   2  20
BRANCH   7  22
ATOM     22  C   UNL     1       3.013   7.315  17.276  0.00  0.00    +0.000 C 
ATOM     23  O   UNL     1       4.220   7.372  17.047  0.00  0.00    +0.000 OA
ENDBRANCH   7  22
BRANCH   9  24
ATOM     24  O   UNL     1       1.779  10.312  17.585  0.00  0.00    +0.000 OA
ATOM     25  H   UNL     1       1.539   9.686  16.868  0.00  0.00    +0.000 HD
ENDBRANCH   9  24
BRANCH   1  26
ATOM     26  C   UNL     1       0.339  12.050  19.246  0.00  0.00    +0.000 C 
BRANCH  26  27
ATOM     27  C   UNL     1      -1.101  12.289  18.732  0.00  0.00    +0.000 C 
BRANCH  27  29
ATOM     28  C   UNL     1      -3.218  12.574  20.026  0.00  0.00    +0.000 C 
ATOM     29  C   UNL     1      -1.993  13.037  19.712  0.00  0.00    +0.000 C 
ATOM     30  C   UNL     1      -1.458  14.283  20.357  0.00  0.00    +0.000 C 
ENDBRANCH  27  29
BRANCH  27  31
ATOM     31  O   UNL     1      -1.026  12.981  17.478  0.00  0.00    +0.000 OA
ATOM     32  H   UNL     1      -1.889  12.937  17.044  0.00  0.00    +0.000 HD
ENDBRANCH  27  31
ENDBRANCH  26  27
ENDBRANCH   1  26
TORSDOF 10
ENDMDL
MODEL 7
REMARK VINA RESULT:      -7.0      1.090      1.214
REMARK  Name = 
REMARK  12 active torsions:
REMARK  status: ('A' for Active; 'I' for Inactive)
REMARK    1  A    between atoms: C_2  and  C_3
REMARK    2  A    between atoms: C_2  and  C_4
REMARK    3  A    between atoms: C_4  and  O_5
REMARK    4  A    between atoms: C_4  and  C_6
REMARK    5  A    between atoms: C_6  and  C_7
REMARK    6  A    between atoms: C_8  and  O_9
REMARK    7  A    between atoms: O_9  and  C_10
REMARK    8  A    between atoms: C_14  and  C_15
REMARK    9  A    between atoms: C_18  and  O_19
REMARK   10  A    between atoms: C_21  and  O_22
REMARK   11  A    between atoms: C_23  and  C_24
REMARK   12  A    between atoms: C_27  and  O_28
REMARK                            x       y       z     vdW  Elec       q    Type
REMARK                         _______ _______ _______ _____ _____    ______ ____
ROOT
ATOM      1  C   UNL     1       3.658   5.553  19.018  0.00  0.00    +0.000 A 
ATOM      2  C   UNL     1       3.924   6.190  17.781  0.00  0.00    +0.000 A 
ATOM      3  C   UNL     1       3.296   7.400  17.449  0.00  0.00    +0.000 A 
ATOM      4  C   UNL     1       2.446   7.959  18.394  0.00  0.00    +0.000 A 
ATOM      5  O   UNL     1       1.798   9.141  18.249  0.00  0.00    +0.000 OA
ATOM      6  C   UNL     1       1.088   9.365  19.396  0.00  0.00    +0.000 A 
ATOM      7  C   UNL     1       1.226   8.280  20.247  0.00  0.00    +0.000 A 
ATOM      8  C   UNL     1       2.154   7.391  19.620  0.00  0.00    +0.000 A 
ATOM      9  C   UNL     1       2.773   6.170  19.935  0.00  0.00    +0.000 A 
ENDROOT
BRANCH   6  10
ATOM     10  C   UNL     1       0.428  10.668  19.450  0.00  0.00    +0.000 A 
ATOM     11  C   UNL     1       0.702  11.543  20.519  0.00  0.00    +0.000 A 
ATOM     12  C   UNL     1       0.045  12.767  20.637  0.00  0.00    +0.000 A 
ATOM     13  C   UNL     1      -0.895  13.132  19.683  0.00  0.00    +0.000 A 
ATOM     14  C   UNL     1      -1.181  12.295  18.610  0.00  0.00    +0.000 A 
ATOM     15  C   UNL     1      -0.527  11.073  18.500  0.00  0.00    +0.000 A 
BRANCH  13  16
ATOM     16  O   UNL     1      -1.581  14.303  19.766  0.00  0.00    +0.000 OA
ATOM     17  H   UNL     1      -1.906  14.411  20.675  0.00  0.00    +0.000 HD
ENDBRANCH  13  16
BRANCH  15  18
ATOM     18  O   UNL     1      -0.854  10.247  17.455  0.00  0.00    +0.000 OA
ATOM     19  H   UNL     1      -1.377   9.499  17.793  0.00  0.00    +0.000 HD
ENDBRANCH  15  18
ENDBRANCH   6  10
BRANCH   2  20
ATOM     20  O   UNL     1       4.802   5.568  16.922  0.00  0.00    +0.000 OA
ATOM     21  C   UNL     1       5.822   6.397  16.361  0.00  0.00    +0.000 C 
ENDBRANCH   2  20
BRANCH   7  22
ATOM     22  C   UNL     1       0.564   8.101  21.514  0.00  0.00    +0.000 C 
ATOM     23  O   UNL     1      -0.660   8.117  21.631  0.00  0.00    +0.000 OA
ENDBRANCH   7  22
BRANCH   9  24
ATOM     24  O   UNL     1       2.564   5.556  21.150  0.00  0.00    +0.000 OA
ATOM     25  H   UNL     1       3.147   4.772  21.235  0.00  0.00    +0.000 HD
ENDBRANCH   9  24
BRANCH   1  26
ATOM     26  C   UNL     1       4.352   4.261  19.425  0.00  0.00    +0.000 C 
BRANCH  26  27
ATOM     27  C   UNL     1       3.452   3.005  19.502  0.00  0.00    +0.000 C 
BRANCH  27  29
ATOM     28  C   UNL     1       2.643   2.815  17.147  0.00  0.00    +0.000 C 
ATOM     29  C   UNL     1       2.350   2.965  18.452  0.00  0.00    +0.000 C 
ATOM     30  C   UNL     1       0.923   3.050  18.912  0.00  0.00    +0.000 C 
ENDBRANCH  27  29
BRANCH  27  31
ATOM     31  O   UNL     1       4.287   1.842  19.411  0.00  0.00    +0.000 OA
ATOM     32  H   UNL     1       5.148   2.102  19.056  0.00  0.00    +0.000 HD
ENDBRANCH  27  31
ENDBRANCH  26  27
ENDBRANCH   1  26
TORSDOF 10
ENDMDL
MODEL 8
REMARK VINA RESULT:      -7.0      0.976      1.172
REMARK  Name = 
REMARK  12 active torsions:
REMARK  status: ('A' for Active; 'I' for Inactive)
REMARK    1  A    between atoms: C_2  and  C_3
REMARK    2  A    between atoms: C_2  and  C_4
REMARK    3  A    between atoms: C_4  and  O_5
REMARK    4  A    between atoms: C_4  and  C_6
REMARK    5  A    between atoms: C_6  and  C_7
REMARK    6  A    between atoms: C_8  and  O_9
REMARK    7  A    between atoms: O_9  and  C_10
REMARK    8  A    between atoms: C_14  and  C_15
REMARK    9  A    between atoms: C_18  and  O_19
REMARK   10  A    between atoms: C_21  and  O_22
REMARK   11  A    between atoms: C_23  and  C_24
REMARK   12  A    between atoms: C_27  and  O_28
REMARK                            x       y       z     vdW  Elec       q    Type
REMARK                         _______ _______ _______ _____ _____    ______ ____
ROOT
ATOM      1  C   UNL     1       3.280   5.758  19.084  0.00  0.00    +0.000 A 
ATOM      2  C   UNL     1       3.640   6.241  17.801  0.00  0.00    +0.000 A 
ATOM      3  C   UNL     1       3.169   7.481  17.344  0.00  0.00    +0.000 A 
ATOM      4  C   UNL     1       2.380   8.224  18.212  0.00  0.00    +0.000 A 
ATOM      5  O   UNL     1       1.884   9.457  17.944  0.00  0.00    +0.000 OA
ATOM      6  C   UNL     1       1.190   9.871  19.047  0.00  0.00    +0.000 A 
ATOM      7  C   UNL     1       1.182   8.862  19.996  0.00  0.00    +0.000 A 
ATOM      8  C   UNL     1       2.004   7.813  19.477  0.00  0.00    +0.000 A 
ATOM      9  C   UNL     1       2.464   6.561  19.917  0.00  0.00    +0.000 A 
ENDROOT
BRANCH   6  10
ATOM     10  C   UNL     1       0.694  11.244  18.965  0.00  0.00    +0.000 A 
ATOM     11  C   UNL     1       1.325  12.257  19.711  0.00  0.00    +0.000 A 
ATOM     12  C   UNL     1       0.842  13.564  19.707  0.00  0.00    +0.000 A 
ATOM     13  C   UNL     1      -0.281  13.874  18.953  0.00  0.00    +0.000 A 
ATOM     14  C   UNL     1      -0.922  12.899  18.196  0.00  0.00    +0.000 A 
ATOM     15  C   UNL     1      -0.438  11.595  18.209  0.00  0.00    +0.000 A 
BRANCH  13  16
ATOM     16  O   UNL     1      -0.807  15.128  18.934  0.00  0.00    +0.000 OA
ATOM     17  H   UNL     1      -1.039  15.357  18.019  0.00  0.00    +0.000 HD
ENDBRANCH  13  16
BRANCH  15  18
ATOM     18  O   UNL     1      -1.110  10.641  17.486  0.00  0.00    +0.000 OA
ATOM     19  H   UNL     1      -1.421  11.034  16.652  0.00  0.00    +0.000 HD
ENDBRANCH  15  18
ENDBRANCH   6  10
BRANCH   2  20
ATOM     20  O   UNL     1       4.448   5.440  17.025  0.00  0.00    +0.000 OA
ATOM     21  C   UNL     1       5.204   6.107  16.012  0.00  0.00    +0.000 C 
ENDBRANCH   2  20
BRANCH   7  22
ATOM     22  C   UNL     1       0.485   8.882  21.257  0.00  0.00    +0.000 C 
ATOM     23  O   UNL     1       1.067   8.821  22.338  0.00  0.00    +0.000 OA
ENDBRANCH   7  22
BRANCH   9  24
ATOM     24  O   UNL     1       2.163   6.093  21.178  0.00  0.00    +0.000 OA
ATOM     25  H   UNL     1       2.990   5.873  21.660  0.00  0.00    +0.000 HD
ENDBRANCH   9  24
BRANCH   1  26
ATOM     26  C   UNL     1       3.804   4.436  19.624  0.00  0.00    +0.000 C 
BRANCH  26  27
ATOM     27  C   UNL     1       2.732   3.395  20.022  0.00  0.00    +0.000 C 
BRANCH  27  29
ATOM     28  C   UNL     1       0.756   2.498  18.786  0.00  0.00    +0.000 C 
ATOM     29  C   UNL     1       2.089   2.683  18.841  0.00  0.00    +0.000 C 
ATOM     30  C   UNL     1       2.972   2.231  17.713  0.00  0.00    +0.000 C 
ENDBRANCH  27  29
BRANCH  27  31
ATOM     31  O   UNL     1       3.328   2.452  20.924  0.00  0.00    +0.000 OA
ATOM     32  H   UNL     1       3.098   1.557  20.639  0.00  0.00    +0.000 HD
ENDBRANCH  27  31
ENDBRANCH  26  27
ENDBRANCH   1  26
TORSDOF 10
ENDMDL
MODEL 9
REMARK VINA RESULT:      -6.9      2.161      7.702
REMARK  Name = 
REMARK  12 active torsions:
REMARK  status: ('A' for Active; 'I' for Inactive)
REMARK    1  A    between atoms: C_2  and  C_3
REMARK    2  A    between atoms: C_2  and  C_4
REMARK    3  A    between atoms: C_4  and  O_5
REMARK    4  A    between atoms: C_4  and  C_6
REMARK    5  A    between atoms: C_6  and  C_7
REMARK    6  A    between atoms: C_8  and  O_9
REMARK    7  A    between atoms: O_9  and  C_10
REMARK    8  A    between atoms: C_14  and  C_15
REMARK    9  A    between atoms: C_18  and  O_19
REMARK   10  A    between atoms: C_21  and  O_22
REMARK   11  A    between atoms: C_23  and  C_24
REMARK   12  A    between atoms: C_27  and  O_28
REMARK                            x       y       z     vdW  Elec       q    Type
REMARK                         _______ _______ _______ _____ _____    ______ ____
ROOT
ATOM      1  C   UNL     1       0.299  10.005  20.089  0.00  0.00    +0.000 A 
ATOM      2  C   UNL     1       0.760  10.689  18.936  0.00  0.00    +0.000 A 
ATOM      3  C   UNL     1       1.704  10.099  18.083  0.00  0.00    +0.000 A 
ATOM      4  C   UNL     1       2.129   8.814  18.391  0.00  0.00    +0.000 A 
ATOM      5  O   UNL     1       3.000   8.087  17.649  0.00  0.00    +0.000 OA
ATOM      6  C   UNL     1       3.142   6.869  18.255  0.00  0.00    +0.000 A 
ATOM      7  C   UNL     1       2.413   6.849  19.433  0.00  0.00    +0.000 A 
ATOM      8  C   UNL     1       1.709   8.092  19.494  0.00  0.00    +0.000 A 
ATOM      9  C   UNL     1       0.779   8.700  20.352  0.00  0.00    +0.000 A 
ENDROOT
BRANCH   6  10
ATOM     10  C   UNL     1       3.959   5.916  17.505  0.00  0.00    +0.000 A 
ATOM     11  C   UNL     1       3.488   4.605  17.304  0.00  0.00    +0.000 A 
ATOM     12  C   UNL     1       4.265   3.651  16.649  0.00  0.00    +0.000 A 
ATOM     13  C   UNL     1       5.526   4.000  16.184  0.00  0.00    +0.000 A 
ATOM     14  C   UNL     1       6.016   5.290  16.357  0.00  0.00    +0.000 A 
ATOM     15  C   UNL     1       5.238   6.235  17.017  0.00  0.00    +0.000 A 
BRANCH  13  16
ATOM     16  O   UNL     1       6.333   3.101  15.561  0.00  0.00    +0.000 OA
ATOM     17  H   UNL     1       5.899   2.232  15.569  0.00  0.00    +0.000 HD
ENDBRANCH  13  16
BRANCH  15  18
ATOM     18  O   UNL     1       5.758   7.490  17.211  0.00  0.00    +0.000 OA
ATOM     19  H   UNL     1       6.564   7.420  17.751  0.00  0.00    +0.000 HD
ENDBRANCH  15  18
ENDBRANCH   6  10
BRANCH   2  20
ATOM     20  O   UNL     1       0.259  11.951  18.704  0.00  0.00    +0.000 OA
ATOM     21  C   UNL     1       1.193  13.027  18.823  0.00  0.00    +0.000 C 
ENDBRANCH   2  20
BRANCH   7  22
ATOM     22  C   UNL     1       2.376   5.776  20.395  0.00  0.00    +0.000 C 
ATOM     23  O   UNL     1       1.326   5.263  20.775  0.00  0.00    +0.000 OA
ENDBRANCH   7  22
BRANCH   9  24
ATOM     24  O   UNL     1       0.283   8.035  21.453  0.00  0.00    +0.000 OA
ATOM     25  H   UNL     1       0.405   8.582  22.259  0.00  0.00    +0.000 HD
ENDBRANCH   9  24
BRANCH   1  26
ATOM     26  C   UNL     1      -0.753  10.601  21.012  0.00  0.00    +0.000 C 
BRANCH  26  27
ATOM     27  C   UNL     1      -0.217  11.336  22.263  0.00  0.00    +0.000 C 
BRANCH  27  29
ATOM     28  C   UNL     1      -0.723  13.725  22.788  0.00  0.00    +0.000 C 
ATOM     29  C   UNL     1      -1.131  12.442  22.772  0.00  0.00    +0.000 C 
ATOM     30  C   UNL     1      -2.518  12.075  23.215  0.00  0.00    +0.000 C 
ENDBRANCH  27  29
BRANCH  27  31
ATOM     31  O   UNL     1       0.031  10.365  23.289  0.00  0.00    +0.000 OA
ATOM     32  H   UNL     1       0.320   9.540  22.876  0.00  0.00    +0.000 HD
ENDBRANCH  27  31
ENDBRANCH  26  27
ENDBRANCH   1  26
TORSDOF 10
ENDMDL
