MODEL 1
REMARK VINA RESULT:      -8.4      0.000      0.000
REMARK  Name = 
REMARK  8 active torsions:
REMARK  status: ('A' for Active; 'I' for Inactive)
REMARK    1  A    between atoms: C_1  and  O_2
REMARK    2  A    between atoms: O_2  and  C_3
REMARK    3  A    between atoms: C_6  and  N_7
REMARK    4  A    between atoms: C_8  and  C_10
REMARK    5  A    between atoms: C_14  and  C_15
REMARK    6  A    between atoms: C_18  and  C_19
REMARK    7  A    between atoms: C_20  and  C_21
REMARK    8  A    between atoms: C_24  and  C_25
REMARK                            x       y       z     vdW  Elec       q    Type
REMARK                         _______ _______ _______ _____ _____    ______ ____
ROOT
ATOM      1  C   UNL     1       1.788   8.496  19.392  0.00  0.00    +0.000 A 
ATOM      2  C   UNL     1       1.682   9.679  18.634  0.00  0.00    +0.000 A 
ATOM      3  C   UNL     1       0.929  10.539  19.391  0.00  0.00    +0.000 A 
ATOM      4  N   UNL     1       0.511  11.812  19.142  0.00  0.00    +0.000 NA
ATOM      5  C   UNL     1      -0.189  12.398  20.069  0.00  0.00    +0.000 A 
ATOM      6  C   UNL     1      -0.586  11.738  21.355  0.00  0.00    +0.000 A 
ATOM      7  C   UNL     1      -0.139  10.481  21.557  0.00  0.00    +0.000 A 
ATOM      8  N   UNL     1       0.626   9.861  20.577  0.00  0.00    +0.000 N 
ATOM      9  N   UNL     1       1.151   8.607  20.571  0.00  0.00    +0.000 NA
ENDROOT
BRANCH   5  10
ATOM     10  C   UNL     1      -0.623  13.810  19.866  0.00  0.00    +0.000 A 
ATOM     11  C   UNL     1      -0.015  14.572  18.864  0.00  0.00    +0.000 A 
ATOM     12  C   UNL     1      -0.350  15.919  18.708  0.00  0.00    +0.000 A 
ATOM     13  C   UNL     1      -1.284  16.536  19.556  0.00  0.00    +0.000 A 
ATOM     14  C   UNL     1      -1.578  17.999  19.373  0.00  0.00    +0.000 C 
ATOM     15  C   UNL     1      -1.894  15.774  20.571  0.00  0.00    +0.000 A 
ATOM     16  C   UNL     1      -2.884  16.347  21.550  0.00  0.00    +0.000 C 
ATOM     17  C   UNL     1      -1.561  14.413  20.710  0.00  0.00    +0.000 A 
ENDBRANCH   5  10
BRANCH   1  19
ATOM     18  N   UNL     1       3.189   7.403  17.798  0.00  0.00    +0.000 N 
ATOM     19  C   UNL     1       2.481   7.267  18.980  0.00  0.00    +0.000 C 
ATOM     20  O   UNL     1       2.425   6.263  19.684  0.00  0.00    +0.000 OA
ATOM     21  H   UNL     1       3.182   8.342  17.405  0.00  0.00    +0.000 HD
BRANCH  18  25
ATOM     22  C   UNL     1       5.455   4.379  15.900  0.00  0.00    +0.000 A 
ATOM     23  C   UNL     1       5.804   5.716  15.737  0.00  0.00    +0.000 A 
ATOM     24  C   UNL     1       5.081   6.723  16.377  0.00  0.00    +0.000 A 
ATOM     25  C   UNL     1       3.980   6.414  17.178  0.00  0.00    +0.000 A 
ATOM     26  C   UNL     1       3.641   5.069  17.358  0.00  0.00    +0.000 A 
ATOM     27  C   UNL     1       4.369   4.054  16.712  0.00  0.00    +0.000 A 
BRANCH  22  29
ATOM     28  C   UNL     1       6.225   3.673  13.777  0.00  0.00    +0.000 C 
ATOM     29  O   UNL     1       6.222   3.503  15.187  0.00  0.00    +0.000 OA
ENDBRANCH  22  29
ENDBRANCH  18  25
ENDBRANCH   1  19
BRANCH   7  30
ATOM     30  C   UNL     1      -0.455   9.734  22.799  0.00  0.00    +0.000 C 
ATOM     31  F   UNL     1       0.574   9.503  23.648  0.00  0.00    +0.000 F 
ATOM     32  F   UNL     1      -1.402  10.392  23.524  0.00  0.00    +0.000 F 
ATOM     33  F   UNL     1      -0.991   8.519  22.507  0.00  0.00    +0.000 F 
ENDBRANCH   7  30
TORSDOF 5
ENDMDL
MODEL 2
REMARK VINA RESULT:      -8.4      3.799     10.608
REMARK  Name = 
REMARK  8 active torsions:
REMARK  status: ('A' for Active; 'I' for Inactive)
REMARK    1  A    between atoms: C_1  and  O_2
REMARK    2  A    between atoms: O_2  and  C_3
REMARK    3  A    between atoms: C_6  and  N_7
REMARK    4  A    between atoms: C_8  and  C_10
REMARK    5  A    between atoms: C_14  and  C_15
REMARK    6  A    between atoms: C_18  and  C_19
REMARK    7  A    between atoms: C_20  and  C_21
REMARK    8  A    between atoms: C_24  and  C_25
REMARK                            x       y       z     vdW  Elec       q    Type
REMARK                         _______ _______ _______ _____ _____    ______ ____
ROOT
ATOM      1  C   UNL     1       2.250   6.569  19.682  0.00  0.00    +0.000 A 
ATOM      2  C   UNL     1       2.879   7.059  18.520  0.00  0.00    +0.000 A 
ATOM      3  C   UNL     1       3.481   5.973  17.938  0.00  0.00    +0.000 A 
ATOM      4  N   UNL     1       4.230   5.872  16.804  0.00  0.00    +0.000 NA
ATOM      5  C   UNL     1       4.662   4.687  16.484  0.00  0.00    +0.000 A 
ATOM      6  C   UNL     1       4.417   3.459  17.309  0.00  0.00    +0.000 A 
ATOM      7  C   UNL     1       3.661   3.611  18.416  0.00  0.00    +0.000 A 
ATOM      8  N   UNL     1       3.181   4.872  18.749  0.00  0.00    +0.000 N 
ATOM      9  N   UNL     1       2.430   5.244  19.819  0.00  0.00    +0.000 NA
ENDROOT
BRANCH   5  10
ATOM     10  C   UNL     1       5.440   4.516  15.224  0.00  0.00    +0.000 A 
ATOM     11  C   UNL     1       6.704   5.105  15.117  0.00  0.00    +0.000 A 
ATOM     12  C   UNL     1       7.415   5.024  13.918  0.00  0.00    +0.000 A 
ATOM     13  C   UNL     1       6.877   4.368  12.799  0.00  0.00    +0.000 A 
ATOM     14  C   UNL     1       7.667   4.345  11.519  0.00  0.00    +0.000 C 
ATOM     15  C   UNL     1       5.602   3.778  12.899  0.00  0.00    +0.000 A 
ATOM     16  C   UNL     1       4.924   3.080  11.751  0.00  0.00    +0.000 C 
ATOM     17  C   UNL     1       4.900   3.852  14.117  0.00  0.00    +0.000 A 
ENDBRANCH   5  10
BRANCH   1  19
ATOM     18  N   UNL     1       1.346   8.695  20.284  0.00  0.00    +0.000 N 
ATOM     19  C   UNL     1       1.498   7.371  20.658  0.00  0.00    +0.000 C 
ATOM     20  O   UNL     1       1.045   6.843  21.669  0.00  0.00    +0.000 OA
ATOM     21  H   UNL     1       1.722   8.922  19.366  0.00  0.00    +0.000 HD
BRANCH  18  25
ATOM     22  C   UNL     1      -0.708  11.641  22.517  0.00  0.00    +0.000 A 
ATOM     23  C   UNL     1      -0.142  11.967  21.289  0.00  0.00    +0.000 A 
ATOM     24  C   UNL     1       0.517  11.000  20.529  0.00  0.00    +0.000 A 
ATOM     25  C   UNL     1       0.641   9.689  20.993  0.00  0.00    +0.000 A 
ATOM     26  C   UNL     1       0.055   9.355  22.218  0.00  0.00    +0.000 A 
ATOM     27  C   UNL     1      -0.609  10.330  22.985  0.00  0.00    +0.000 A 
BRANCH  22  29
ATOM     28  C   UNL     1      -0.783  13.980  22.859  0.00  0.00    +0.000 C 
ATOM     29  O   UNL     1      -1.288  12.690  23.171  0.00  0.00    +0.000 OA
ENDBRANCH  22  29
ENDBRANCH  18  25
ENDBRANCH   1  19
BRANCH   7  30
ATOM     30  C   UNL     1       3.339   2.465  19.300  0.00  0.00    +0.000 C 
ATOM     31  F   UNL     1       2.036   2.301  19.630  0.00  0.00    +0.000 F 
ATOM     32  F   UNL     1       3.734   1.294  18.728  0.00  0.00    +0.000 F 
ATOM     33  F   UNL     1       4.022   2.554  20.473  0.00  0.00    +0.000 F 
ENDBRANCH   7  30
TORSDOF 5
ENDMDL
MODEL 3
REMARK VINA RESULT:      -8.4      3.340      5.309
REMARK  Name = 
REMARK  8 active torsions:
REMARK  status: ('A' for Active; 'I' for Inactive)
REMARK    1  A    between atoms: C_1  and  O_2
REMARK    2  A    between atoms: O_2  and  C_3
REMARK    3  A    between atoms: C_6  and  N_7
REMARK    4  A    between atoms: C_8  and  C_10
REMARK    5  A    between atoms: C_14  and  C_15
REMARK    6  A    between atoms: C_18  and  C_19
REMARK    7  A    between atoms: C_20  and  C_21
REMARK    8  A    between atoms: C_24  and  C_25
REMARK                            x       y       z     vdW  Elec       q    Type
REMARK                         _______ _______ _______ _____ _____    ______ ____
ROOT
ATOM      1  C   UNL     1       4.331   5.392  17.765  0.00  0.00    +0.000 A 
ATOM      2  C   UNL     1       3.937   6.744  17.822  0.00  0.00    +0.000 A 
ATOM      3  C   UNL     1       3.035   6.826  18.851  0.00  0.00    +0.000 A 
ATOM      4  N   UNL     1       2.334   7.888  19.338  0.00  0.00    +0.000 NA
ATOM      5  C   UNL     1       1.550   7.665  20.352  0.00  0.00    +0.000 A 
ATOM      6  C   UNL     1       1.352   6.314  20.971  0.00  0.00    +0.000 A 
ATOM      7  C   UNL     1       2.076   5.298  20.458  0.00  0.00    +0.000 A 
ATOM      8  N   UNL     1       2.930   5.538  19.389  0.00  0.00    +0.000 N 
ATOM      9  N   UNL     1       3.723   4.662  18.716  0.00  0.00    +0.000 NA
ENDROOT
BRANCH   5  10
ATOM     10  C   UNL     1       0.804   8.807  20.956  0.00  0.00    +0.000 A 
ATOM     11  C   UNL     1       0.670   8.875  22.345  0.00  0.00    +0.000 A 
ATOM     12  C   UNL     1      -0.091   9.892  22.927  0.00  0.00    +0.000 A 
ATOM     13  C   UNL     1      -0.745  10.849  22.136  0.00  0.00    +0.000 A 
ATOM     14  C   UNL     1      -1.586  11.899  22.809  0.00  0.00    +0.000 C 
ATOM     15  C   UNL     1      -0.618  10.782  20.734  0.00  0.00    +0.000 A 
ATOM     16  C   UNL     1      -1.302  11.741  19.797  0.00  0.00    +0.000 C 
ATOM     17  C   UNL     1       0.164   9.762  20.159  0.00  0.00    +0.000 A 
ENDBRANCH   5  10
BRANCH   1  19
ATOM     18  N   UNL     1       4.837   4.902  15.485  0.00  0.00    +0.000 N 
ATOM     19  C   UNL     1       5.268   4.807  16.797  0.00  0.00    +0.000 C 
ATOM     20  O   UNL     1       6.331   4.329  17.181  0.00  0.00    +0.000 OA
ATOM     21  H   UNL     1       3.964   5.411  15.361  0.00  0.00    +0.000 HD
BRANCH  18  25
ATOM     22  C   UNL     1       7.043   3.591  12.124  0.00  0.00    +0.000 A 
ATOM     23  C   UNL     1       5.772   3.080  12.364  0.00  0.00    +0.000 A 
ATOM     24  C   UNL     1       5.022   3.522  13.455  0.00  0.00    +0.000 A 
ATOM     25  C   UNL     1       5.538   4.470  14.340  0.00  0.00    +0.000 A 
ATOM     26  C   UNL     1       6.808   4.999  14.088  0.00  0.00    +0.000 A 
ATOM     27  C   UNL     1       7.565   4.553  12.989  0.00  0.00    +0.000 A 
BRANCH  22  29
ATOM     28  C   UNL     1       7.316   1.712  10.712  0.00  0.00    +0.000 C 
ATOM     29  O   UNL     1       7.679   3.044  11.046  0.00  0.00    +0.000 OA
ENDBRANCH  22  29
ENDBRANCH  18  25
ENDBRANCH   1  19
BRANCH   7  30
ATOM     30  C   UNL     1       1.975   3.921  21.000  0.00  0.00    +0.000 C 
ATOM     31  F   UNL     1       2.748   2.978  20.411  0.00  0.00    +0.000 F 
ATOM     32  F   UNL     1       2.299   3.903  22.323  0.00  0.00    +0.000 F 
ATOM     33  F   UNL     1       0.695   3.468  20.925  0.00  0.00    +0.000 F 
ENDBRANCH   7  30
TORSDOF 5
ENDMDL
MODEL 4
REMARK VINA RESULT:      -8.4      3.700     10.511
REMARK  Name = 
REMARK  8 active torsions:
REMARK  status: ('A' for Active; 'I' for Inactive)
REMARK    1  A    between atoms: C_1  and  O_2
REMARK    2  A    between atoms: O_2  and  C_3
REMARK    3  A    between atoms: C_6  and  N_7
REMARK    4  A    between atoms: C_8  and  C_10
REMARK    5  A    between atoms: C_14  and  C_15
REMARK    6  A    between atoms: C_18  and  C_19
REMARK    7  A    between atoms: C_20  and  C_21
REMARK    8  A    between atoms: C_24  and  C_25
REMARK                            x       y       z     vdW  Elec       q    Type
REMARK                         _______ _______ _______ _____ _____    ______ ____
ROOT
ATOM      1  C   UNL     1       2.201   7.300  19.529  0.00  0.00    +0.000 A 
ATOM      2  C   UNL     1       2.906   7.660  18.363  0.00  0.00    +0.000 A 
ATOM      3  C   UNL     1       3.444   6.495  17.880  0.00  0.00    +0.000 A 
ATOM      4  N   UNL     1       4.222   6.260  16.787  0.00  0.00    +0.000 NA
ATOM      5  C   UNL     1       4.574   5.027  16.565  0.00  0.00    +0.000 A 
ATOM      6  C   UNL     1       4.208   3.881  17.460  0.00  0.00    +0.000 A 
ATOM      7  C   UNL     1       3.428   4.166  18.524  0.00  0.00    +0.000 A 
ATOM      8  N   UNL     1       3.033   5.478  18.750  0.00  0.00    +0.000 N 
ATOM      9  N   UNL     1       2.276   5.979  19.763  0.00  0.00    +0.000 NA
ENDROOT
BRANCH   5  10
ATOM     10  C   UNL     1       5.381   4.711  15.351  0.00  0.00    +0.000 A 
ATOM     11  C   UNL     1       6.696   5.178  15.266  0.00  0.00    +0.000 A 
ATOM     12  C   UNL     1       7.442   4.961  14.105  0.00  0.00    +0.000 A 
ATOM     13  C   UNL     1       6.889   4.290  13.003  0.00  0.00    +0.000 A 
ATOM     14  C   UNL     1       7.721   4.120  11.761  0.00  0.00    +0.000 C 
ATOM     15  C   UNL     1       5.562   3.824  13.081  0.00  0.00    +0.000 A 
ATOM     16  C   UNL     1       4.867   3.121  11.945  0.00  0.00    +0.000 C 
ATOM     17  C   UNL     1       4.823   4.034  14.261  0.00  0.00    +0.000 A 
ENDBRANCH   5  10
BRANCH   1  19
ATOM     18  N   UNL     1       0.883   9.278  19.751  0.00  0.00    +0.000 N 
ATOM     19  C   UNL     1       1.479   8.221  20.418  0.00  0.00    +0.000 C 
ATOM     20  O   UNL     1       1.419   7.994  21.623  0.00  0.00    +0.000 OA
ATOM     21  H   UNL     1       0.975   9.246  18.738  0.00  0.00    +0.000 HD
BRANCH  18  25
ATOM     22  C   UNL     1      -1.591  12.266  21.434  0.00  0.00    +0.000 A 
ATOM     23  C   UNL     1      -0.579  11.690  22.195  0.00  0.00    +0.000 A 
ATOM     24  C   UNL     1       0.261  10.721  21.646  0.00  0.00    +0.000 A 
ATOM     25  C   UNL     1       0.093  10.293  20.328  0.00  0.00    +0.000 A 
ATOM     26  C   UNL     1      -0.912  10.886  19.556  0.00  0.00    +0.000 A 
ATOM     27  C   UNL     1      -1.759  11.862  20.109  0.00  0.00    +0.000 A 
BRANCH  22  29
ATOM     28  C   UNL     1      -3.728  12.826  22.279  0.00  0.00    +0.000 C 
ATOM     29  O   UNL     1      -2.361  13.171  22.107  0.00  0.00    +0.000 OA
ENDBRANCH  22  29
ENDBRANCH  18  25
ENDBRANCH   1  19
BRANCH   7  30
ATOM     30  C   UNL     1       2.989   3.111  19.469  0.00  0.00    +0.000 C 
ATOM     31  F   UNL     1       3.393   3.242  20.755  0.00  0.00    +0.000 F 
ATOM     32  F   UNL     1       1.630   3.038  19.506  0.00  0.00    +0.000 F 
ATOM     33  F   UNL     1       3.416   1.887  19.057  0.00  0.00    +0.000 F 
ENDBRANCH   7  30
TORSDOF 5
ENDMDL
MODEL 5
REMARK VINA RESULT:      -8.3      3.545     10.243
REMARK  Name = 
REMARK  8 active torsions:
REMARK  status: ('A' for Active; 'I' for Inactive)
REMARK    1  A    between atoms: C_1  and  O_2
REMARK    2  A    between atoms: O_2  and  C_3
REMARK    3  A    between atoms: C_6  and  N_7
REMARK    4  A    between atoms: C_8  and  C_10
REMARK    5  A    between atoms: C_14  and  C_15
REMARK    6  A    between atoms: C_18  and  C_19
REMARK    7  A    between atoms: C_20  and  C_21
REMARK    8  A    between atoms: C_24  and  C_25
REMARK                            x       y       z     vdW  Elec       q    Type
REMARK                         _______ _______ _______ _____ _____    ______ ____
ROOT
ATOM      1  C   UNL     1       1.058   7.790  20.564  0.00  0.00    +0.000 A 
ATOM      2  C   UNL     1       1.884   8.182  19.491  0.00  0.00    +0.000 A 
ATOM      3  C   UNL     1       2.592   7.062  19.139  0.00  0.00    +0.000 A 
ATOM      4  N   UNL     1       3.536   6.872  18.175  0.00  0.00    +0.000 NA
ATOM      5  C   UNL     1       4.030   5.674  18.058  0.00  0.00    +0.000 A 
ATOM      6  C   UNL     1       3.650   4.525  18.944  0.00  0.00    +0.000 A 
ATOM      7  C   UNL     1       2.704   4.764  19.876  0.00  0.00    +0.000 A 
ATOM      8  N   UNL     1       2.159   6.037  19.988  0.00  0.00    +0.000 N 
ATOM      9  N   UNL     1       1.223   6.490  20.864  0.00  0.00    +0.000 NA
ENDROOT
BRANCH   5  10
ATOM     10  C   UNL     1       5.026   5.403  16.982  0.00  0.00    +0.000 A 
ATOM     11  C   UNL     1       6.302   5.966  17.077  0.00  0.00    +0.000 A 
ATOM     12  C   UNL     1       7.224   5.790  16.042  0.00  0.00    +0.000 A 
ATOM     13  C   UNL     1       6.888   5.064  14.889  0.00  0.00    +0.000 A 
ATOM     14  C   UNL     1       7.903   4.939  13.786  0.00  0.00    +0.000 C 
ATOM     15  C   UNL     1       5.602   4.499  14.786  0.00  0.00    +0.000 A 
ATOM     16  C   UNL     1       5.133   3.730  13.579  0.00  0.00    +0.000 C 
ATOM     17  C   UNL     1       4.685   4.670  15.841  0.00  0.00    +0.000 A 
ENDBRANCH   5  10
BRANCH   1  19
ATOM     18  N   UNL     1       0.153   9.978  20.873  0.00  0.00    +0.000 N 
ATOM     19  C   UNL     1       0.134   8.662  21.303  0.00  0.00    +0.000 C 
ATOM     20  O   UNL     1      -0.584   8.193  22.181  0.00  0.00    +0.000 OA
ATOM     21  H   UNL     1       0.757  10.153  20.073  0.00  0.00    +0.000 HD
BRANCH  18  25
ATOM     22  C   UNL     1      -2.347  13.094  22.258  0.00  0.00    +0.000 A 
ATOM     23  C   UNL     1      -1.625  12.325  23.165  0.00  0.00    +0.000 A 
ATOM     24  C   UNL     1      -0.777  11.310  22.722  0.00  0.00    +0.000 A 
ATOM     25  C   UNL     1      -0.649  11.029  21.361  0.00  0.00    +0.000 A 
ATOM     26  C   UNL     1      -1.359  11.815  20.447  0.00  0.00    +0.000 A 
ATOM     27  C   UNL     1      -2.215  12.838  20.893  0.00  0.00    +0.000 A 
BRANCH  22  29
ATOM     28  C   UNL     1      -3.779  13.655  24.055  0.00  0.00    +0.000 C 
ATOM     29  O   UNL     1      -3.166  14.025  22.829  0.00  0.00    +0.000 OA
ENDBRANCH  22  29
ENDBRANCH  18  25
ENDBRANCH   1  19
BRANCH   7  30
ATOM     30  C   UNL     1       2.236   3.700  20.797  0.00  0.00    +0.000 C 
ATOM     31  F   UNL     1       2.397   3.930  22.122  0.00  0.00    +0.000 F 
ATOM     32  F   UNL     1       0.908   3.459  20.614  0.00  0.00    +0.000 F 
ATOM     33  F   UNL     1       2.866   2.524  20.534  0.00  0.00    +0.000 F 
ENDBRANCH   7  30
TORSDOF 5
ENDMDL
MODEL 6
REMARK VINA RESULT:      -8.2      0.335      1.409
REMARK  Name = 
REMARK  8 active torsions:
REMARK  status: ('A' for Active; 'I' for Inactive)
REMARK    1  A    between atoms: C_1  and  O_2
REMARK    2  A    between atoms: O_2  and  C_3
REMARK    3  A    between atoms: C_6  and  N_7
REMARK    4  A    between atoms: C_8  and  C_10
REMARK    5  A    between atoms: C_14  and  C_15
REMARK    6  A    between atoms: C_18  and  C_19
REMARK    7  A    between atoms: C_20  and  C_21
REMARK    8  A    between atoms: C_24  and  C_25
REMARK                            x       y       z     vdW  Elec       q    Type
REMARK                         _______ _______ _______ _____ _____    ______ ____
ROOT
ATOM      1  C   UNL     1       1.749   8.539  19.396  0.00  0.00    +0.000 A 
ATOM      2  C   UNL     1       1.677   9.747  18.673  0.00  0.00    +0.000 A 
ATOM      3  C   UNL     1       0.963  10.611  19.464  0.00  0.00    +0.000 A 
ATOM      4  N   UNL     1       0.589  11.905  19.256  0.00  0.00    +0.000 NA
ATOM      5  C   UNL     1      -0.080  12.487  20.208  0.00  0.00    +0.000 A 
ATOM      6  C   UNL     1      -0.487  11.804  21.480  0.00  0.00    +0.000 A 
ATOM      7  C   UNL     1      -0.083  10.527  21.640  0.00  0.00    +0.000 A 
ATOM      8  N   UNL     1       0.649   9.910  20.634  0.00  0.00    +0.000 N 
ATOM      9  N   UNL     1       1.129   8.638  20.585  0.00  0.00    +0.000 NA
ENDROOT
BRANCH   5  10
ATOM     10  C   UNL     1      -0.465  13.919  20.051  0.00  0.00    +0.000 A 
ATOM     11  C   UNL     1      -1.633  14.382  20.664  0.00  0.00    +0.000 A 
ATOM     12  C   UNL     1      -2.054  15.699  20.465  0.00  0.00    +0.000 A 
ATOM     13  C   UNL     1      -1.328  16.574  19.641  0.00  0.00    +0.000 A 
ATOM     14  C   UNL     1      -1.847  17.970  19.427  0.00  0.00    +0.000 C 
ATOM     15  C   UNL     1      -0.154  16.111  19.017  0.00  0.00    +0.000 A 
ATOM     16  C   UNL     1       0.678  16.960  18.092  0.00  0.00    +0.000 C 
ATOM     17  C   UNL     1       0.270  14.787  19.236  0.00  0.00    +0.000 A 
ENDBRANCH   5  10
BRANCH   1  19
ATOM     18  N   UNL     1       3.224   7.478  17.848  0.00  0.00    +0.000 N 
ATOM     19  C   UNL     1       2.393   7.299  18.940  0.00  0.00    +0.000 C 
ATOM     20  O   UNL     1       2.195   6.247  19.540  0.00  0.00    +0.000 OA
ATOM     21  H   UNL     1       3.323   8.445  17.545  0.00  0.00    +0.000 HD
BRANCH  18  25
ATOM     22  C   UNL     1       5.455   4.444  15.925  0.00  0.00    +0.000 A 
ATOM     23  C   UNL     1       5.780   5.781  15.723  0.00  0.00    +0.000 A 
ATOM     24  C   UNL     1       5.070   6.792  16.370  0.00  0.00    +0.000 A 
ATOM     25  C   UNL     1       4.004   6.487  17.218  0.00  0.00    +0.000 A 
ATOM     26  C   UNL     1       3.688   5.141  17.437  0.00  0.00    +0.000 A 
ATOM     27  C   UNL     1       4.404   4.122  16.784  0.00  0.00    +0.000 A 
BRANCH  22  29
ATOM     28  C   UNL     1       6.171   3.719  13.790  0.00  0.00    +0.000 C 
ATOM     29  O   UNL     1       6.205   3.562  15.201  0.00  0.00    +0.000 OA
ENDBRANCH  22  29
ENDBRANCH  18  25
ENDBRANCH   1  19
BRANCH   7  30
ATOM     30  C   UNL     1      -0.412   9.756  22.863  0.00  0.00    +0.000 C 
ATOM     31  F   UNL     1      -1.023   8.561  22.682  0.00  0.00    +0.000 F 
ATOM     32  F   UNL     1       0.714   9.500  23.584  0.00  0.00    +0.000 F 
ATOM     33  F   UNL     1      -1.222  10.479  23.684  0.00  0.00    +0.000 F 
ENDBRANCH   7  30
TORSDOF 5
ENDMDL
MODEL 7
REMARK VINA RESULT:      -8.2      3.601      4.511
REMARK  Name = 
REMARK  8 active torsions:
REMARK  status: ('A' for Active; 'I' for Inactive)
REMARK    1  A    between atoms: C_1  and  O_2
REMARK    2  A    between atoms: O_2  and  C_3
REMARK    3  A    between atoms: C_6  and  N_7
REMARK    4  A    between atoms: C_8  and  C_10
REMARK    5  A    between atoms: C_14  and  C_15
REMARK    6  A    between atoms: C_18  and  C_19
REMARK    7  A    between atoms: C_20  and  C_21
REMARK    8  A    between atoms: C_24  and  C_25
REMARK                            x       y       z     vdW  Elec       q    Type
REMARK                         _______ _______ _______ _____ _____    ______ ____
ROOT
ATOM      1  C   UNL     1       0.414  10.020  18.507  0.00  0.00    +0.000 A 
ATOM      2  C   UNL     1       0.133  10.712  19.702  0.00  0.00    +0.000 A 
ATOM      3  C   UNL     1      -1.140  11.200  19.558  0.00  0.00    +0.000 A 
ATOM      4  N   UNL     1      -1.907  11.947  20.400  0.00  0.00    +0.000 NA
ATOM      5  C   UNL     1      -3.106  12.252  19.995  0.00  0.00    +0.000 A 
ATOM      6  C   UNL     1      -3.657  11.864  18.656  0.00  0.00    +0.000 A 
ATOM      7  C   UNL     1      -2.861  11.117  17.864  0.00  0.00    +0.000 A 
ATOM      8  N   UNL     1      -1.588  10.772  18.303  0.00  0.00    +0.000 N 
ATOM      9  N   UNL     1      -0.630  10.053  17.661  0.00  0.00    +0.000 NA
ENDROOT
BRANCH   5  10
ATOM     10  C   UNL     1      -4.003  13.022  20.904  0.00  0.00    +0.000 A 
ATOM     11  C   UNL     1      -3.440  13.887  21.846  0.00  0.00    +0.000 A 
ATOM     12  C   UNL     1      -4.257  14.558  22.759  0.00  0.00    +0.000 A 
ATOM     13  C   UNL     1      -5.648  14.368  22.760  0.00  0.00    +0.000 A 
ATOM     14  C   UNL     1      -6.479  15.082  23.791  0.00  0.00    +0.000 C 
ATOM     15  C   UNL     1      -6.221  13.493  21.817  0.00  0.00    +0.000 A 
ATOM     16  C   UNL     1      -7.696  13.197  21.755  0.00  0.00    +0.000 C 
ATOM     17  C   UNL     1      -5.389  12.833  20.891  0.00  0.00    +0.000 A 
ENDBRANCH   5  10
BRANCH   1  19
ATOM     18  N   UNL     1       1.788   8.079  18.720  0.00  0.00    +0.000 N 
ATOM     19  C   UNL     1       1.679   9.348  18.177  0.00  0.00    +0.000 C 
ATOM     20  O   UNL     1       2.500   9.903  17.454  0.00  0.00    +0.000 OA
ATOM     21  H   UNL     1       0.962   7.761  19.223  0.00  0.00    +0.000 HD
BRANCH  18  25
ATOM     22  C   UNL     1       4.930   5.293  18.222  0.00  0.00    +0.000 A 
ATOM     23  C   UNL     1       4.731   6.294  17.277  0.00  0.00    +0.000 A 
ATOM     24  C   UNL     1       3.715   7.236  17.441  0.00  0.00    +0.000 A 
ATOM     25  C   UNL     1       2.862   7.183  18.544  0.00  0.00    +0.000 A 
ATOM     26  C   UNL     1       3.073   6.188  19.505  0.00  0.00    +0.000 A 
ATOM     27  C   UNL     1       4.097   5.239  19.340  0.00  0.00    +0.000 A 
BRANCH  22  29
ATOM     28  C   UNL     1       7.255   4.936  17.971  0.00  0.00    +0.000 C 
ATOM     29  O   UNL     1       5.933   4.418  17.919  0.00  0.00    +0.000 OA
ENDBRANCH  22  29
ENDBRANCH  18  25
ENDBRANCH   1  19
BRANCH   7  30
ATOM     30  C   UNL     1      -3.305  10.661  16.525  0.00  0.00    +0.000 C 
ATOM     31  F   UNL     1      -4.571  10.978  16.164  0.00  0.00    +0.000 F 
ATOM     32  F   UNL     1      -2.497  11.171  15.554  0.00  0.00    +0.000 F 
ATOM     33  F   UNL     1      -3.205   9.309  16.419  0.00  0.00    +0.000 F 
ENDBRANCH   7  30
TORSDOF 5
ENDMDL
MODEL 8
REMARK VINA RESULT:      -8.2      3.372      4.318
REMARK  Name = 
REMARK  8 active torsions:
REMARK  status: ('A' for Active; 'I' for Inactive)
REMARK    1  A    between atoms: C_1  and  O_2
REMARK    2  A    between atoms: O_2  and  C_3
REMARK    3  A    between atoms: C_6  and  N_7
REMARK    4  A    between atoms: C_8  and  C_10
REMARK    5  A    between atoms: C_14  and  C_15
REMARK    6  A    between atoms: C_18  and  C_19
REMARK    7  A    between atoms: C_20  and  C_21
REMARK    8  A    between atoms: C_24  and  C_25
REMARK                            x       y       z     vdW  Elec       q    Type
REMARK                         _______ _______ _______ _____ _____    ______ ____
ROOT
ATOM      1  C   UNL     1       0.507   9.992  18.604  0.00  0.00    +0.000 A 
ATOM      2  C   UNL     1       0.330  10.751  19.778  0.00  0.00    +0.000 A 
ATOM      3  C   UNL     1      -0.928  11.289  19.687  0.00  0.00    +0.000 A 
ATOM      4  N   UNL     1      -1.609  12.109  20.536  0.00  0.00    +0.000 NA
ATOM      5  C   UNL     1      -2.816  12.449  20.189  0.00  0.00    +0.000 A 
ATOM      6  C   UNL     1      -3.465  12.026  18.905  0.00  0.00    +0.000 A 
ATOM      7  C   UNL     1      -2.752  11.207  18.104  0.00  0.00    +0.000 A 
ATOM      8  N   UNL     1      -1.470  10.825  18.483  0.00  0.00    +0.000 N 
ATOM      9  N   UNL     1      -0.585  10.034  17.821  0.00  0.00    +0.000 NA
ENDROOT
BRANCH   5  10
ATOM     10  C   UNL     1      -3.621  13.300  21.110  0.00  0.00    +0.000 A 
ATOM     11  C   UNL     1      -3.368  14.674  21.165  0.00  0.00    +0.000 A 
ATOM     12  C   UNL     1      -4.057  15.477  22.078  0.00  0.00    +0.000 A 
ATOM     13  C   UNL     1      -4.997  14.926  22.962  0.00  0.00    +0.000 A 
ATOM     14  C   UNL     1      -5.680  15.828  23.953  0.00  0.00    +0.000 C 
ATOM     15  C   UNL     1      -5.251  13.541  22.915  0.00  0.00    +0.000 A 
ATOM     16  C   UNL     1      -6.217  12.848  23.840  0.00  0.00    +0.000 C 
ATOM     17  C   UNL     1      -4.564  12.743  21.981  0.00  0.00    +0.000 A 
ENDBRANCH   5  10
BRANCH   1  19
ATOM     18  N   UNL     1       1.823   8.016  18.855  0.00  0.00    +0.000 N 
ATOM     19  C   UNL     1       1.719   9.248  18.233  0.00  0.00    +0.000 C 
ATOM     20  O   UNL     1       2.503   9.719  17.414  0.00  0.00    +0.000 OA
ATOM     21  H   UNL     1       1.026   7.766  19.437  0.00  0.00    +0.000 HD
BRANCH  18  25
ATOM     22  C   UNL     1       4.978   5.264  18.260  0.00  0.00    +0.000 A 
ATOM     23  C   UNL     1       4.160   5.153  19.378  0.00  0.00    +0.000 A 
ATOM     24  C   UNL     1       3.099   6.038  19.575  0.00  0.00    +0.000 A 
ATOM     25  C   UNL     1       2.848   7.067  18.666  0.00  0.00    +0.000 A 
ATOM     26  C   UNL     1       3.659   7.167  17.530  0.00  0.00    +0.000 A 
ATOM     27  C   UNL     1       4.728   6.276  17.332  0.00  0.00    +0.000 A 
BRANCH  22  29
ATOM     28  C   UNL     1       7.259   4.856  17.784  0.00  0.00    +0.000 C 
ATOM     29  O   UNL     1       5.999   4.359  18.212  0.00  0.00    +0.000 OA
ENDBRANCH  22  29
ENDBRANCH  18  25
ENDBRANCH   1  19
BRANCH   7  30
ATOM     30  C   UNL     1      -3.297  10.710  16.818  0.00  0.00    +0.000 C 
ATOM     31  F   UNL     1      -3.350   9.367  16.658  0.00  0.00    +0.000 F 
ATOM     32  F   UNL     1      -4.568  11.163  16.631  0.00  0.00    +0.000 F 
ATOM     33  F   UNL     1      -2.574  11.192  15.771  0.00  0.00    +0.000 F 
ENDBRANCH   7  30
TORSDOF 5
ENDMDL
MODEL 9
REMARK VINA RESULT:      -8.1      4.350     10.873
REMARK  Name = 
REMARK  8 active torsions:
REMARK  status: ('A' for Active; 'I' for Inactive)
REMARK    1  A    between atoms: C_1  and  O_2
REMARK    2  A    between atoms: O_2  and  C_3
REMARK    3  A    between atoms: C_6  and  N_7
REMARK    4  A    between atoms: C_8  and  C_10
REMARK    5  A    between atoms: C_14  and  C_15
REMARK    6  A    between atoms: C_18  and  C_19
REMARK    7  A    between atoms: C_20  and  C_21
REMARK    8  A    between atoms: C_24  and  C_25
REMARK                            x       y       z     vdW  Elec       q    Type
REMARK                         _______ _______ _______ _____ _____    ______ ____
ROOT
ATOM      1  C   UNL     1      -0.694  10.864  22.228  0.00  0.00    +0.000 A 
ATOM      2  C   UNL     1      -0.428   9.545  22.646  0.00  0.00    +0.000 A 
ATOM      3  C   UNL     1       0.329   8.985  21.649  0.00  0.00    +0.000 A 
ATOM      4  N   UNL     1       0.855   7.734  21.527  0.00  0.00    +0.000 NA
ATOM      5  C   UNL     1       1.557   7.489  20.459  0.00  0.00    +0.000 A 
ATOM      6  C   UNL     1       1.776   8.484  19.359  0.00  0.00    +0.000 A 
ATOM      7  C   UNL     1       1.242   9.710  19.533  0.00  0.00    +0.000 A 
ATOM      8  N   UNL     1       0.510   9.981  20.682  0.00  0.00    +0.000 N 
ATOM      9  N   UNL     1      -0.124  11.130  21.040  0.00  0.00    +0.000 NA
ENDROOT
BRANCH   5  10
ATOM     10  C   UNL     1       2.199   6.152  20.306  0.00  0.00    +0.000 A 
ATOM     11  C   UNL     1       3.268   6.007  19.417  0.00  0.00    +0.000 A 
ATOM     12  C   UNL     1       3.832   4.748  19.199  0.00  0.00    +0.000 A 
ATOM     13  C   UNL     1       3.334   3.609  19.850  0.00  0.00    +0.000 A 
ATOM     14  C   UNL     1       3.950   2.270  19.549  0.00  0.00    +0.000 C 
ATOM     15  C   UNL     1       2.253   3.748  20.742  0.00  0.00    +0.000 A 
ATOM     16  C   UNL     1       1.626   2.586  21.466  0.00  0.00    +0.000 C 
ATOM     17  C   UNL     1       1.701   5.024  20.966  0.00  0.00    +0.000 A 
ENDBRANCH   5  10
BRANCH   1  19
ATOM     18  N   UNL     1      -1.045  13.152  22.815  0.00  0.00    +0.000 N 
ATOM     19  C   UNL     1      -1.502  11.853  22.956  0.00  0.00    +0.000 C 
ATOM     20  O   UNL     1      -2.497  11.495  23.580  0.00  0.00    +0.000 OA
ATOM     21  H   UNL     1      -0.252  13.256  22.185  0.00  0.00    +0.000 HD
BRANCH  18  25
ATOM     22  C   UNL     1      -2.929  16.579  24.422  0.00  0.00    +0.000 A 
ATOM     23  C   UNL     1      -1.886  15.971  25.111  0.00  0.00    +0.000 A 
ATOM     24  C   UNL     1      -1.238  14.855  24.582  0.00  0.00    +0.000 A 
ATOM     25  C   UNL     1      -1.634  14.311  23.359  0.00  0.00    +0.000 A 
ATOM     26  C   UNL     1      -2.671  14.934  22.656  0.00  0.00    +0.000 A 
ATOM     27  C   UNL     1      -3.325  16.058  23.190  0.00  0.00    +0.000 A 
BRANCH  22  29
ATOM     28  C   UNL     1      -2.601  18.562  25.669  0.00  0.00    +0.000 C 
ATOM     29  O   UNL     1      -3.498  17.637  25.072  0.00  0.00    +0.000 OA
ENDBRANCH  22  29
ENDBRANCH  18  25
ENDBRANCH   1  19
BRANCH   7  30
ATOM     30  C   UNL     1       1.407  10.780  18.519  0.00  0.00    +0.000 C 
ATOM     31  F   UNL     1       2.041  11.907  18.923  0.00  0.00    +0.000 F 
ATOM     32  F   UNL     1       2.106  10.318  17.446  0.00  0.00    +0.000 F 
ATOM     33  F   UNL     1       0.199  11.173  18.034  0.00  0.00    +0.000 F 
ENDBRANCH   7  30
TORSDOF 5
ENDMDL
