MODEL 1
REMARK VINA RESULT:      -8.3      0.000      0.000
REMARK  Name = 
REMARK  2 active torsions:
REMARK  status: ('A' for Active; 'I' for Inactive)
REMARK    1  A    between atoms: C_3  and  C_4
REMARK    2  A    between atoms: C_7  and  C_8
REMARK                            x       y       z     vdW  Elec       q    Type
REMARK                         _______ _______ _______ _____ _____    ______ ____
ROOT
ATOM      1 CL   UNL     1       2.349   8.561  17.804  0.00  0.00    +0.000 Cl
ATOM      2  C   UNL     1       2.571   7.093  18.729  0.00  0.00    +0.000 C 
ATOM      3  C   UNL     1       2.096   6.928  19.991  0.00  0.00    +0.000 C 
ATOM      4  C   UNL     1       2.215   5.578  20.670  0.00  0.00    +0.000 C 
ATOM      5  C   UNL     1       1.311   4.523  20.039  0.00  0.00    +0.000 C 
ATOM      6  C   UNL     1       1.499   4.268  18.538  0.00  0.00    +0.000 C 
ATOM      7  C   UNL     1       2.808   4.693  17.911  0.00  0.00    +0.000 A 
ATOM      8  C   UNL     1       3.517   3.756  17.137  0.00  0.00    +0.000 A 
ATOM      9  C   UNL     1       4.684   4.109  16.462  0.00  0.00    +0.000 A 
ATOM     10  C   UNL     1       5.174   5.405  16.559  0.00  0.00    +0.000 A 
ATOM     11  C   UNL     1       4.487   6.346  17.326  0.00  0.00    +0.000 A 
ATOM     12  C   UNL     1       3.288   6.019  17.992  0.00  0.00    +0.000 A 
ENDROOT
BRANCH   3  13
ATOM     13  C   UNL     1       1.497   8.035  20.685  0.00  0.00    +0.000 A 
ATOM     14  N   UNL     1       1.805   8.466  21.902  0.00  0.00    +0.000 NA
ATOM     15  N   UNL     1       1.044   9.586  22.163  0.00  0.00    +0.000 NA
ATOM     16  C   UNL     1       0.316   9.796  21.086  0.00  0.00    +0.000 A 
ATOM     17  O   UNL     1       0.566   8.877  20.113  0.00  0.00    +0.000 OA
BRANCH  16  18
ATOM     18  C   UNL     1      -0.662  10.828  20.771  0.00  0.00    +0.000 A 
ATOM     19  C   UNL     1      -1.145  11.675  21.777  0.00  0.00    +0.000 A 
ATOM     20  C   UNL     1      -2.080  12.672  21.479  0.00  0.00    +0.000 A 
ATOM     21  C   UNL     1      -2.547  12.829  20.175  0.00  0.00    +0.000 A 
ATOM     22  C   UNL     1      -2.080  11.990  19.166  0.00  0.00    +0.000 A 
ATOM     23  C   UNL     1      -1.146  10.998  19.461  0.00  0.00    +0.000 A 
ENDBRANCH  16  18
ENDBRANCH   3  13
TORSDOF 2
ENDMDL
MODEL 2
REMARK VINA RESULT:      -8.3      0.065      1.008
REMARK  Name = 
REMARK  2 active torsions:
REMARK  status: ('A' for Active; 'I' for Inactive)
REMARK    1  A    between atoms: C_3  and  C_4
REMARK    2  A    between atoms: C_7  and  C_8
REMARK                            x       y       z     vdW  Elec       q    Type
REMARK                         _______ _______ _______ _____ _____    ______ ____
ROOT
ATOM      1 CL   UNL     1       2.353   8.633  17.808  0.00  0.00    +0.000 Cl
ATOM      2  C   UNL     1       2.575   7.159  18.723  0.00  0.00    +0.000 C 
ATOM      3  C   UNL     1       2.091   6.983  19.980  0.00  0.00    +0.000 C 
ATOM      4  C   UNL     1       2.211   5.628  20.651  0.00  0.00    +0.000 C 
ATOM      5  C   UNL     1       1.316   4.575  20.005  0.00  0.00    +0.000 C 
ATOM      6  C   UNL     1       1.514   4.331  18.504  0.00  0.00    +0.000 C 
ATOM      7  C   UNL     1       2.826   4.766  17.889  0.00  0.00    +0.000 A 
ATOM      8  C   UNL     1       3.544   3.837  17.112  0.00  0.00    +0.000 A 
ATOM      9  C   UNL     1       4.714   4.200  16.448  0.00  0.00    +0.000 A 
ATOM     10  C   UNL     1       5.198   5.497  16.559  0.00  0.00    +0.000 A 
ATOM     11  C   UNL     1       4.503   6.429  17.328  0.00  0.00    +0.000 A 
ATOM     12  C   UNL     1       3.301   6.093  17.983  0.00  0.00    +0.000 A 
ENDROOT
BRANCH   3  13
ATOM     13  C   UNL     1       1.483   8.082  20.679  0.00  0.00    +0.000 A 
ATOM     14  N   UNL     1       1.784   8.507  21.900  0.00  0.00    +0.000 NA
ATOM     15  N   UNL     1       1.016   9.622  22.164  0.00  0.00    +0.000 NA
ATOM     16  C   UNL     1       0.291   9.834  21.086  0.00  0.00    +0.000 A 
ATOM     17  O   UNL     1       0.550   8.922  20.108  0.00  0.00    +0.000 OA
BRANCH  16  18
ATOM     18  C   UNL     1      -0.692  10.862  20.773  0.00  0.00    +0.000 A 
ATOM     19  C   UNL     1      -1.146  11.030  19.459  0.00  0.00    +0.000 A 
ATOM     20  C   UNL     1      -2.096  12.012  19.154  0.00  0.00    +0.000 A 
ATOM     21  C   UNL     1      -2.596  12.839  20.158  0.00  0.00    +0.000 A 
ATOM     22  C   UNL     1      -2.149  12.687  21.469  0.00  0.00    +0.000 A 
ATOM     23  C   UNL     1      -1.205  11.707  21.774  0.00  0.00    +0.000 A 
ENDBRANCH  16  18
ENDBRANCH   3  13
TORSDOF 2
ENDMDL
MODEL 3
REMARK VINA RESULT:      -8.1      5.264      8.779
REMARK  Name = 
REMARK  2 active torsions:
REMARK  status: ('A' for Active; 'I' for Inactive)
REMARK    1  A    between atoms: C_3  and  C_4
REMARK    2  A    between atoms: C_7  and  C_8
REMARK                            x       y       z     vdW  Elec       q    Type
REMARK                         _______ _______ _______ _____ _____    ______ ____
ROOT
ATOM      1 CL   UNL     1       4.377   2.005  17.814  0.00  0.00    +0.000 Cl
ATOM      2  C   UNL     1       4.129   3.484  18.715  0.00  0.00    +0.000 C 
ATOM      3  C   UNL     1       4.789   4.640  18.446  0.00  0.00    +0.000 C 
ATOM      4  C   UNL     1       4.417   5.910  19.187  0.00  0.00    +0.000 C 
ATOM      5  C   UNL     1       3.040   6.436  18.791  0.00  0.00    +0.000 C 
ATOM      6  C   UNL     1       1.859   5.473  18.967  0.00  0.00    +0.000 C 
ATOM      7  C   UNL     1       2.039   4.308  19.915  0.00  0.00    +0.000 A 
ATOM      8  C   UNL     1       1.064   4.093  20.906  0.00  0.00    +0.000 A 
ATOM      9  C   UNL     1       1.125   2.988  21.754  0.00  0.00    +0.000 A 
ATOM     10  C   UNL     1       2.172   2.083  21.637  0.00  0.00    +0.000 A 
ATOM     11  C   UNL     1       3.150   2.284  20.664  0.00  0.00    +0.000 A 
ATOM     12  C   UNL     1       3.092   3.376  19.775  0.00  0.00    +0.000 A 
ENDROOT
BRANCH   3  13
ATOM     13  C   UNL     1       5.848   4.656  17.474  0.00  0.00    +0.000 A 
ATOM     14  N   UNL     1       7.151   4.636  17.724  0.00  0.00    +0.000 NA
ATOM     15  N   UNL     1       7.815   4.595  16.515  0.00  0.00    +0.000 NA
ATOM     16  C   UNL     1       6.885   4.576  15.584  0.00  0.00    +0.000 A 
ATOM     17  O   UNL     1       5.631   4.589  16.114  0.00  0.00    +0.000 OA
BRANCH  16  18
ATOM     18  C   UNL     1       6.979   4.525  14.131  0.00  0.00    +0.000 A 
ATOM     19  C   UNL     1       6.235   3.584  13.408  0.00  0.00    +0.000 A 
ATOM     20  C   UNL     1       6.316   3.535  12.012  0.00  0.00    +0.000 A 
ATOM     21  C   UNL     1       7.144   4.422  11.326  0.00  0.00    +0.000 A 
ATOM     22  C   UNL     1       7.894   5.359  12.033  0.00  0.00    +0.000 A 
ATOM     23  C   UNL     1       7.812   5.411  13.424  0.00  0.00    +0.000 A 
ENDBRANCH  16  18
ENDBRANCH   3  13
TORSDOF 2
ENDMDL
MODEL 4
REMARK VINA RESULT:      -8.0      1.976      3.054
REMARK  Name = 
REMARK  2 active torsions:
REMARK  status: ('A' for Active; 'I' for Inactive)
REMARK    1  A    between atoms: C_3  and  C_4
REMARK    2  A    between atoms: C_7  and  C_8
REMARK                            x       y       z     vdW  Elec       q    Type
REMARK                         _______ _______ _______ _____ _____    ______ ____
ROOT
ATOM      1 CL   UNL     1       1.240   5.836  20.498  0.00  0.00    +0.000 Cl
ATOM      2  C   UNL     1       2.276   5.776  19.091  0.00  0.00    +0.000 C 
ATOM      3  C   UNL     1       2.665   6.881  18.404  0.00  0.00    +0.000 C 
ATOM      4  C   UNL     1       3.671   6.753  17.277  0.00  0.00    +0.000 C 
ATOM      5  C   UNL     1       5.068   6.398  17.777  0.00  0.00    +0.000 C 
ATOM      6  C   UNL     1       5.193   5.118  18.614  0.00  0.00    +0.000 C 
ATOM      7  C   UNL     1       4.090   4.090  18.495  0.00  0.00    +0.000 A 
ATOM      8  C   UNL     1       4.443   2.754  18.231  0.00  0.00    +0.000 A 
ATOM      9  C   UNL     1       3.482   1.745  18.195  0.00  0.00    +0.000 A 
ATOM     10  C   UNL     1       2.145   2.055  18.408  0.00  0.00    +0.000 A 
ATOM     11  C   UNL     1       1.776   3.374  18.666  0.00  0.00    +0.000 A 
ATOM     12  C   UNL     1       2.734   4.406  18.738  0.00  0.00    +0.000 A 
ENDROOT
BRANCH   3  13
ATOM     13  C   UNL     1       2.112   8.166  18.734  0.00  0.00    +0.000 A 
ATOM     14  N   UNL     1       2.080   9.238  17.952  0.00  0.00    +0.000 NA
ATOM     15  N   UNL     1       1.405  10.236  18.625  0.00  0.00    +0.000 NA
ATOM     16  C   UNL     1       1.043   9.721  19.781  0.00  0.00    +0.000 A 
ATOM     17  O   UNL     1       1.432   8.422  19.906  0.00  0.00    +0.000 OA
BRANCH  16  18
ATOM     18  C   UNL     1       0.302  10.290  20.898  0.00  0.00    +0.000 A 
ATOM     19  C   UNL     1      -0.026   9.498  22.006  0.00  0.00    +0.000 A 
ATOM     20  C   UNL     1      -0.732  10.041  23.085  0.00  0.00    +0.000 A 
ATOM     21  C   UNL     1      -1.123  11.379  23.065  0.00  0.00    +0.000 A 
ATOM     22  C   UNL     1      -0.810  12.176  21.967  0.00  0.00    +0.000 A 
ATOM     23  C   UNL     1      -0.103  11.637  20.893  0.00  0.00    +0.000 A 
ENDBRANCH  16  18
ENDBRANCH   3  13
TORSDOF 2
ENDMDL
MODEL 5
REMARK VINA RESULT:      -8.0      1.973      3.067
REMARK  Name = 
REMARK  2 active torsions:
REMARK  status: ('A' for Active; 'I' for Inactive)
REMARK    1  A    between atoms: C_3  and  C_4
REMARK    2  A    between atoms: C_7  and  C_8
REMARK                            x       y       z     vdW  Elec       q    Type
REMARK                         _______ _______ _______ _____ _____    ______ ____
ROOT
ATOM      1 CL   UNL     1       1.240   5.880  20.467  0.00  0.00    +0.000 Cl
ATOM      2  C   UNL     1       2.284   5.837  19.064  0.00  0.00    +0.000 C 
ATOM      3  C   UNL     1       2.674   6.951  18.391  0.00  0.00    +0.000 C 
ATOM      4  C   UNL     1       3.687   6.836  17.268  0.00  0.00    +0.000 C 
ATOM      5  C   UNL     1       5.082   6.479  17.773  0.00  0.00    +0.000 C 
ATOM      6  C   UNL     1       5.205   5.191  18.598  0.00  0.00    +0.000 C 
ATOM      7  C   UNL     1       4.106   4.162  18.461  0.00  0.00    +0.000 A 
ATOM      8  C   UNL     1       4.463   2.829  18.187  0.00  0.00    +0.000 A 
ATOM      9  C   UNL     1       3.505   1.818  18.135  0.00  0.00    +0.000 A 
ATOM     10  C   UNL     1       2.166   2.123  18.343  0.00  0.00    +0.000 A 
ATOM     11  C   UNL     1       1.793   3.439  18.612  0.00  0.00    +0.000 A 
ATOM     12  C   UNL     1       2.748   4.472  18.700  0.00  0.00    +0.000 A 
ENDROOT
BRANCH   3  13
ATOM     13  C   UNL     1       2.116   8.231  18.731  0.00  0.00    +0.000 A 
ATOM     14  N   UNL     1       2.081   9.309  17.958  0.00  0.00    +0.000 NA
ATOM     15  N   UNL     1       1.401  10.299  18.638  0.00  0.00    +0.000 NA
ATOM     16  C   UNL     1       1.040   9.773  19.789  0.00  0.00    +0.000 A 
ATOM     17  O   UNL     1       1.434   8.474  19.905  0.00  0.00    +0.000 OA
BRANCH  16  18
ATOM     18  C   UNL     1       0.296  10.330  20.911  0.00  0.00    +0.000 A 
ATOM     19  C   UNL     1      -0.111  11.670  20.893  0.00  0.00    +0.000 A 
ATOM     20  C   UNL     1      -0.832  12.209  21.965  0.00  0.00    +0.000 A 
ATOM     21  C   UNL     1      -1.147  11.416  23.067  0.00  0.00    +0.000 A 
ATOM     22  C   UNL     1      -0.743  10.084  23.101  0.00  0.00    +0.000 A 
ATOM     23  C   UNL     1      -0.027   9.544  22.032  0.00  0.00    +0.000 A 
ENDBRANCH  16  18
ENDBRANCH   3  13
TORSDOF 2
ENDMDL
MODEL 6
REMARK VINA RESULT:      -7.8      5.134      8.735
REMARK  Name = 
REMARK  2 active torsions:
REMARK  status: ('A' for Active; 'I' for Inactive)
REMARK    1  A    between atoms: C_3  and  C_4
REMARK    2  A    between atoms: C_7  and  C_8
REMARK                            x       y       z     vdW  Elec       q    Type
REMARK                         _______ _______ _______ _____ _____    ______ ____
ROOT
ATOM      1 CL   UNL     1       4.340   2.189  17.720  0.00  0.00    +0.000 Cl
ATOM      2  C   UNL     1       4.077   3.643  18.655  0.00  0.00    +0.000 C 
ATOM      3  C   UNL     1       4.700   4.821  18.393  0.00  0.00    +0.000 C 
ATOM      4  C   UNL     1       4.315   6.066  19.167  0.00  0.00    +0.000 C 
ATOM      5  C   UNL     1       2.917   6.564  18.816  0.00  0.00    +0.000 C 
ATOM      6  C   UNL     1       1.765   5.568  19.003  0.00  0.00    +0.000 C 
ATOM      7  C   UNL     1       1.998   4.390  19.923  0.00  0.00    +0.000 A 
ATOM      8  C   UNL     1       1.054   4.131  20.934  0.00  0.00    +0.000 A 
ATOM      9  C   UNL     1       1.165   3.013  21.759  0.00  0.00    +0.000 A 
ATOM     10  C   UNL     1       2.231   2.138  21.598  0.00  0.00    +0.000 A 
ATOM     11  C   UNL     1       3.179   2.381  20.605  0.00  0.00    +0.000 A 
ATOM     12  C   UNL     1       3.070   3.489  19.739  0.00  0.00    +0.000 A 
ENDROOT
BRANCH   3  13
ATOM     13  C   UNL     1       5.733   4.883  17.395  0.00  0.00    +0.000 A 
ATOM     14  N   UNL     1       7.025   5.104  17.606  0.00  0.00    +0.000 NA
ATOM     15  N   UNL     1       7.676   5.016  16.393  0.00  0.00    +0.000 NA
ATOM     16  C   UNL     1       6.753   4.730  15.500  0.00  0.00    +0.000 A 
ATOM     17  O   UNL     1       5.518   4.609  16.061  0.00  0.00    +0.000 OA
BRANCH  16  18
ATOM     18  C   UNL     1       6.840   4.510  14.063  0.00  0.00    +0.000 A 
ATOM     19  C   UNL     1       7.700   5.290  13.279  0.00  0.00    +0.000 A 
ATOM     20  C   UNL     1       7.792   5.079  11.899  0.00  0.00    +0.000 A 
ATOM     21  C   UNL     1       7.022   4.091  11.288  0.00  0.00    +0.000 A 
ATOM     22  C   UNL     1       6.158   3.312  12.053  0.00  0.00    +0.000 A 
ATOM     23  C   UNL     1       6.068   3.519  13.430  0.00  0.00    +0.000 A 
ENDBRANCH  16  18
ENDBRANCH   3  13
TORSDOF 2
ENDMDL
MODEL 7
REMARK VINA RESULT:      -7.8      3.584      8.421
REMARK  Name = 
REMARK  2 active torsions:
REMARK  status: ('A' for Active; 'I' for Inactive)
REMARK    1  A    between atoms: C_3  and  C_4
REMARK    2  A    between atoms: C_7  and  C_8
REMARK                            x       y       z     vdW  Elec       q    Type
REMARK                         _______ _______ _______ _____ _____    ______ ____
ROOT
ATOM      1 CL   UNL     1       4.855   7.533  17.686  0.00  0.00    +0.000 Cl
ATOM      2  C   UNL     1       3.373   6.734  18.159  0.00  0.00    +0.000 C 
ATOM      3  C   UNL     1       3.136   5.414  17.943  0.00  0.00    +0.000 C 
ATOM      4  C   UNL     1       1.882   4.772  18.504  0.00  0.00    +0.000 C 
ATOM      5  C   UNL     1       1.911   4.664  20.025  0.00  0.00    +0.000 C 
ATOM      6  C   UNL     1       2.110   5.971  20.803  0.00  0.00    +0.000 C 
ATOM      7  C   UNL     1       1.799   7.267  20.089  0.00  0.00    +0.000 A 
ATOM      8  C   UNL     1       0.949   8.195  20.720  0.00  0.00    +0.000 A 
ATOM      9  C   UNL     1       0.693   9.443  20.155  0.00  0.00    +0.000 A 
ATOM     10  C   UNL     1       1.270   9.784  18.939  0.00  0.00    +0.000 A 
ATOM     11  C   UNL     1       2.111   8.875  18.297  0.00  0.00    +0.000 A 
ATOM     12  C   UNL     1       2.409   7.620  18.864  0.00  0.00    +0.000 A 
ENDROOT
BRANCH   3  13
ATOM     13  C   UNL     1       4.063   4.633  17.171  0.00  0.00    +0.000 A 
ATOM     14  N   UNL     1       4.448   3.387  17.421  0.00  0.00    +0.000 NA
ATOM     15  N   UNL     1       5.291   2.990  16.403  0.00  0.00    +0.000 NA
ATOM     16  C   UNL     1       5.369   4.007  15.572  0.00  0.00    +0.000 A 
ATOM     17  O   UNL     1       4.607   5.060  15.978  0.00  0.00    +0.000 OA
BRANCH  16  18
ATOM     18  C   UNL     1       6.097   4.173  14.321  0.00  0.00    +0.000 A 
ATOM     19  C   UNL     1       5.736   3.431  13.189  0.00  0.00    +0.000 A 
ATOM     20  C   UNL     1       6.428   3.592  11.983  0.00  0.00    +0.000 A 
ATOM     21  C   UNL     1       7.489   4.491  11.898  0.00  0.00    +0.000 A 
ATOM     22  C   UNL     1       7.862   5.231  13.017  0.00  0.00    +0.000 A 
ATOM     23  C   UNL     1       7.172   5.074  14.219  0.00  0.00    +0.000 A 
ENDBRANCH  16  18
ENDBRANCH   3  13
TORSDOF 2
ENDMDL
MODEL 8
REMARK VINA RESULT:      -7.8      3.598      8.394
REMARK  Name = 
REMARK  2 active torsions:
REMARK  status: ('A' for Active; 'I' for Inactive)
REMARK    1  A    between atoms: C_3  and  C_4
REMARK    2  A    between atoms: C_7  and  C_8
REMARK                            x       y       z     vdW  Elec       q    Type
REMARK                         _______ _______ _______ _____ _____    ______ ____
ROOT
ATOM      1 CL   UNL     1       4.808   7.538  17.541  0.00  0.00    +0.000 Cl
ATOM      2  C   UNL     1       3.364   6.726  18.103  0.00  0.00    +0.000 C 
ATOM      3  C   UNL     1       3.148   5.395  17.941  0.00  0.00    +0.000 C 
ATOM      4  C   UNL     1       1.932   4.747  18.576  0.00  0.00    +0.000 C 
ATOM      5  C   UNL     1       2.026   4.692  20.098  0.00  0.00    +0.000 C 
ATOM      6  C   UNL     1       2.229   6.029  20.822  0.00  0.00    +0.000 C 
ATOM      7  C   UNL     1       1.860   7.293  20.078  0.00  0.00    +0.000 A 
ATOM      8  C   UNL     1       1.018   8.225  20.713  0.00  0.00    +0.000 A 
ATOM      9  C   UNL     1       0.711   9.447  20.118  0.00  0.00    +0.000 A 
ATOM     10  C   UNL     1       1.230   9.758  18.868  0.00  0.00    +0.000 A 
ATOM     11  C   UNL     1       2.063   8.845  18.221  0.00  0.00    +0.000 A 
ATOM     12  C   UNL     1       2.412   7.616  18.818  0.00  0.00    +0.000 A 
ENDROOT
BRANCH   3  13
ATOM     13  C   UNL     1       4.059   4.606  17.158  0.00  0.00    +0.000 A 
ATOM     14  N   UNL     1       4.427   3.353  17.395  0.00  0.00    +0.000 NA
ATOM     15  N   UNL     1       5.257   2.952  16.369  0.00  0.00    +0.000 NA
ATOM     16  C   UNL     1       5.346   3.974  15.545  0.00  0.00    +0.000 A 
ATOM     17  O   UNL     1       4.602   5.035  15.965  0.00  0.00    +0.000 OA
BRANCH  16  18
ATOM     18  C   UNL     1       6.069   4.141  14.292  0.00  0.00    +0.000 A 
ATOM     19  C   UNL     1       7.147   5.031  14.210  0.00  0.00    +0.000 A 
ATOM     20  C   UNL     1       7.849   5.190  13.010  0.00  0.00    +0.000 A 
ATOM     21  C   UNL     1       7.477   4.465  11.879  0.00  0.00    +0.000 A 
ATOM     22  C   UNL     1       6.403   3.582  11.944  0.00  0.00    +0.000 A 
ATOM     23  C   UNL     1       5.704   3.420  13.140  0.00  0.00    +0.000 A 
ENDBRANCH  16  18
ENDBRANCH   3  13
TORSDOF 2
ENDMDL
MODEL 9
REMARK VINA RESULT:      -7.7      5.093      9.293
REMARK  Name = 
REMARK  2 active torsions:
REMARK  status: ('A' for Active; 'I' for Inactive)
REMARK    1  A    between atoms: C_3  and  C_4
REMARK    2  A    between atoms: C_7  and  C_8
REMARK                            x       y       z     vdW  Elec       q    Type
REMARK                         _______ _______ _______ _____ _____    ______ ____
ROOT
ATOM      1 CL   UNL     1       3.977   2.885  16.822  0.00  0.00    +0.000 Cl
ATOM      2  C   UNL     1       4.155   4.444  17.596  0.00  0.00    +0.000 C 
ATOM      3  C   UNL     1       4.880   5.461  17.064  0.00  0.00    +0.000 C 
ATOM      4  C   UNL     1       4.873   6.822  17.733  0.00  0.00    +0.000 C 
ATOM      5  C   UNL     1       3.526   7.528  17.608  0.00  0.00    +0.000 C 
ATOM      6  C   UNL     1       2.303   6.775  18.149  0.00  0.00    +0.000 C 
ATOM      7  C   UNL     1       2.547   5.666  19.147  0.00  0.00    +0.000 A 
ATOM      8  C   UNL     1       1.819   5.674  20.352  0.00  0.00    +0.000 A 
ATOM      9  C   UNL     1       1.933   4.636  21.275  0.00  0.00    +0.000 A 
ATOM     10  C   UNL     1       2.789   3.573  21.017  0.00  0.00    +0.000 A 
ATOM     11  C   UNL     1       3.522   3.550  19.831  0.00  0.00    +0.000 A 
ATOM     12  C   UNL     1       3.399   4.573  18.870  0.00  0.00    +0.000 A 
ENDROOT
BRANCH   3  13
ATOM     13  C   UNL     1       5.666   5.244  15.880  0.00  0.00    +0.000 A 
ATOM     14  N   UNL     1       6.834   5.805  15.592  0.00  0.00    +0.000 NA
ATOM     15  N   UNL     1       7.277   5.276  14.397  0.00  0.00    +0.000 NA
ATOM     16  C   UNL     1       6.366   4.405  14.020  0.00  0.00    +0.000 A 
ATOM     17  O   UNL     1       5.341   4.317  14.913  0.00  0.00    +0.000 OA
BRANCH  16  18
ATOM     18  C   UNL     1       6.289   3.537  12.853  0.00  0.00    +0.000 A 
ATOM     19  C   UNL     1       7.459   3.099  12.219  0.00  0.00    +0.000 A 
ATOM     20  C   UNL     1       7.392   2.260  11.102  0.00  0.00    +0.000 A 
ATOM     21  C   UNL     1       6.155   1.854  10.603  0.00  0.00    +0.000 A 
ATOM     22  C   UNL     1       4.983   2.286  11.219  0.00  0.00    +0.000 A 
ATOM     23  C   UNL     1       5.049   3.121  12.335  0.00  0.00    +0.000 A 
ENDBRANCH  16  18
ENDBRANCH   3  13
TORSDOF 2
ENDMDL
