MODEL 1
REMARK VINA RESULT:      -8.0      0.000      0.000
REMARK  Name = 
REMARK  10 active torsions:
REMARK  status: ('A' for Active; 'I' for Inactive)
REMARK    1  A    between atoms: C_1  and  C_2
REMARK    2  A    between atoms: C_2  and  C_3
REMARK    3  A    between atoms: N_5  and  C_6
REMARK    4  A    between atoms: C_6  and  C_7
REMARK    5  A    between atoms: C_10  and  C_11
REMARK    6  A    between atoms: C_22  and  C_23
REMARK    7  A    between atoms: C_23  and  C_24
REMARK    8  A    between atoms: C_25  and  C_26
REMARK    9  A    between atoms: C_26  and  C_27
REMARK   10  A    between atoms: C_27  and  O_29
REMARK                            x       y       z     vdW  Elec       q    Type
REMARK                         _______ _______ _______ _____ _____    ______ ____
ROOT
ATOM      1  C   UNL     1       2.248   6.481  19.809  0.00  0.00    +0.000 A 
ATOM      2  C   UNL     1       1.548   6.954  20.925  0.00  0.00    +0.000 A 
ATOM      3  C   UNL     1       1.040   8.251  20.940  0.00  0.00    +0.000 A 
ATOM      4  C   UNL     1       1.219   9.121  19.853  0.00  0.00    +0.000 A 
ATOM      5  C   UNL     1       1.820   8.614  18.695  0.00  0.00    +0.000 A 
ATOM      6  C   UNL     1       2.329   7.303  18.675  0.00  0.00    +0.000 A 
ENDROOT
BRANCH   4   7
ATOM      7  C   UNL     1       0.844  10.528  20.052  0.00  0.00    +0.000 A 
ATOM      8  N   UNL     1       0.316  11.286  19.099  0.00  0.00    +0.000 NA
ATOM      9  C   UNL     1       0.034  12.489  19.678  0.00  0.00    +0.000 A 
ATOM     10  C   UNL     1      -0.537  13.657  19.186  0.00  0.00    +0.000 A 
ATOM     11  N   UNL     1      -0.683  14.721  20.014  0.00  0.00    +0.000 NA
ATOM     12  C   UNL     1      -0.264  14.584  21.293  0.00  0.00    +0.000 A 
ATOM     13  N   UNL     1       0.287  13.499  21.885  0.00  0.00    +0.000 NA
ATOM     14  C   UNL     1       0.404  12.489  21.008  0.00  0.00    +0.000 A 
ATOM     15  N   UNL     1       0.910  11.237  21.234  0.00  0.00    +0.000 N 
ATOM     16  H   UNL     1       1.250  10.907  22.122  0.00  0.00    +0.000 HD
ENDBRANCH   4   7
BRANCH   1  17
ATOM     17  C   UNL     1       3.084   5.228  19.956  0.00  0.00    +0.000 C 
BRANCH  17  20
ATOM     18  C   UNL     1       6.330   5.278  18.585  0.00  0.00    +0.000 A 
ATOM     19  N   UNL     1       5.469   5.536  19.567  0.00  0.00    +0.000 NA
ATOM     20  N   UNL     1       4.287   5.051  19.144  0.00  0.00    +0.000 N 
ATOM     21  C   UNL     1       4.381   4.418  17.912  0.00  0.00    +0.000 A 
ATOM     22  C   UNL     1       5.716   4.556  17.526  0.00  0.00    +0.000 A 
BRANCH  18  24
ATOM     23  C   UNL     1       7.932   7.162  18.189  0.00  0.00    +0.000 C 
ATOM     24  C   UNL     1       7.745   5.746  18.712  0.00  0.00    +0.000 C 
ENDBRANCH  18  24
BRANCH  21  25
ATOM     25  C   UNL     1       3.286   3.758  17.105  0.00  0.00    +0.000 C 
ATOM     26  C   UNL     1       2.685   2.449  17.572  0.00  0.00    +0.000 C 
ENDBRANCH  21  25
BRANCH  22  27
ATOM     27  C   UNL     1       6.351   4.096  16.241  0.00  0.00    +0.000 C 
BRANCH  27  28
ATOM     28  C   UNL     1       6.525   5.151  15.167  0.00  0.00    +0.000 C 
ATOM     29  O   UNL     1       5.628   5.931  14.856  0.00  0.00    +0.000 OA
BRANCH  28  30
ATOM     30  O   UNL     1       7.753   5.239  14.617  0.00  0.00    +0.000 OA
ATOM     31  H   UNL     1       7.741   5.459  13.663  0.00  0.00    +0.000 HD
ENDBRANCH  28  30
ENDBRANCH  27  28
ENDBRANCH  22  27
ENDBRANCH  17  20
ENDBRANCH   1  17
TORSDOF 8
ENDMDL
MODEL 2
REMARK VINA RESULT:      -8.0      0.712      1.225
REMARK  Name = 
REMARK  10 active torsions:
REMARK  status: ('A' for Active; 'I' for Inactive)
REMARK    1  A    between atoms: C_1  and  C_2
REMARK    2  A    between atoms: C_2  and  C_3
REMARK    3  A    between atoms: N_5  and  C_6
REMARK    4  A    between atoms: C_6  and  C_7
REMARK    5  A    between atoms: C_10  and  C_11
REMARK    6  A    between atoms: C_22  and  C_23
REMARK    7  A    between atoms: C_23  and  C_24
REMARK    8  A    between atoms: C_25  and  C_26
REMARK    9  A    between atoms: C_26  and  C_27
REMARK   10  A    between atoms: C_27  and  O_29
REMARK                            x       y       z     vdW  Elec       q    Type
REMARK                         _______ _______ _______ _____ _____    ______ ____
ROOT
ATOM      1  C   UNL     1       2.281   6.636  19.595  0.00  0.00    +0.000 A 
ATOM      2  C   UNL     1       1.605   7.207  20.680  0.00  0.00    +0.000 A 
ATOM      3  C   UNL     1       1.113   8.507  20.598  0.00  0.00    +0.000 A 
ATOM      4  C   UNL     1       1.282   9.284  19.442  0.00  0.00    +0.000 A 
ATOM      5  C   UNL     1       1.857   8.677  18.319  0.00  0.00    +0.000 A 
ATOM      6  C   UNL     1       2.351   7.363  18.397  0.00  0.00    +0.000 A 
ENDROOT
BRANCH   4   7
ATOM      7  C   UNL     1       0.926  10.707  19.532  0.00  0.00    +0.000 A 
ATOM      8  N   UNL     1       1.111  11.439  20.623  0.00  0.00    +0.000 NA
ATOM      9  C   UNL     1       0.736  12.710  20.300  0.00  0.00    +0.000 A 
ATOM     10  C   UNL     1       0.724  13.898  21.022  0.00  0.00    +0.000 A 
ATOM     11  N   UNL     1       0.274  15.031  20.424  0.00  0.00    +0.000 NA
ATOM     12  C   UNL     1      -0.139  14.941  19.140  0.00  0.00    +0.000 A 
ATOM     13  N   UNL     1      -0.158  13.852  18.336  0.00  0.00    +0.000 NA
ATOM     14  C   UNL     1       0.296  12.771  18.993  0.00  0.00    +0.000 A 
ATOM     15  N   UNL     1       0.428  11.495  18.515  0.00  0.00    +0.000 N 
ATOM     16  H   UNL     1       0.210  11.208  17.575  0.00  0.00    +0.000 HD
ENDBRANCH   4   7
BRANCH   1  17
ATOM     17  C   UNL     1       3.105   5.389  19.829  0.00  0.00    +0.000 C 
BRANCH  17  20
ATOM     18  C   UNL     1       6.339   5.372  18.429  0.00  0.00    +0.000 A 
ATOM     19  N   UNL     1       5.474   5.731  19.376  0.00  0.00    +0.000 NA
ATOM     20  N   UNL     1       4.310   5.147  19.037  0.00  0.00    +0.000 N 
ATOM     21  C   UNL     1       4.421   4.355  17.902  0.00  0.00    +0.000 A 
ATOM     22  C   UNL     1       5.747   4.489  17.486  0.00  0.00    +0.000 A 
BRANCH  18  24
ATOM     23  C   UNL     1       7.818   7.342  17.977  0.00  0.00    +0.000 C 
ATOM     24  C   UNL     1       7.735   5.907  18.475  0.00  0.00    +0.000 C 
ENDBRANCH  18  24
BRANCH  21  25
ATOM     25  C   UNL     1       3.349   3.548  17.206  0.00  0.00    +0.000 C 
ATOM     26  C   UNL     1       2.884   2.235  17.799  0.00  0.00    +0.000 C 
ENDBRANCH  21  25
BRANCH  22  27
ATOM     27  C   UNL     1       6.392   3.880  16.269  0.00  0.00    +0.000 C 
BRANCH  27  28
ATOM     28  C   UNL     1       6.434   4.751  15.030  0.00  0.00    +0.000 C 
ATOM     29  O   UNL     1       5.514   4.788  14.218  0.00  0.00    +0.000 OA
BRANCH  28  30
ATOM     30  O   UNL     1       7.514   5.549  14.903  0.00  0.00    +0.000 OA
ATOM     31  H   UNL     1       7.894   5.835  15.759  0.00  0.00    +0.000 HD
ENDBRANCH  28  30
ENDBRANCH  27  28
ENDBRANCH  22  27
ENDBRANCH  17  20
ENDBRANCH   1  17
TORSDOF 8
ENDMDL
MODEL 3
REMARK VINA RESULT:      -8.0      1.123      1.370
REMARK  Name = 
REMARK  10 active torsions:
REMARK  status: ('A' for Active; 'I' for Inactive)
REMARK    1  A    between atoms: C_1  and  C_2
REMARK    2  A    between atoms: C_2  and  C_3
REMARK    3  A    between atoms: N_5  and  C_6
REMARK    4  A    between atoms: C_6  and  C_7
REMARK    5  A    between atoms: C_10  and  C_11
REMARK    6  A    between atoms: C_22  and  C_23
REMARK    7  A    between atoms: C_23  and  C_24
REMARK    8  A    between atoms: C_25  and  C_26
REMARK    9  A    between atoms: C_26  and  C_27
REMARK   10  A    between atoms: C_27  and  O_29
REMARK                            x       y       z     vdW  Elec       q    Type
REMARK                         _______ _______ _______ _____ _____    ______ ____
ROOT
ATOM      1  C   UNL     1       2.248   6.912  19.406  0.00  0.00    +0.000 A 
ATOM      2  C   UNL     1       1.619   7.620  20.437  0.00  0.00    +0.000 A 
ATOM      3  C   UNL     1       1.198   8.932  20.236  0.00  0.00    +0.000 A 
ATOM      4  C   UNL     1       1.397   9.586  19.010  0.00  0.00    +0.000 A 
ATOM      5  C   UNL     1       1.923   8.844  17.946  0.00  0.00    +0.000 A 
ATOM      6  C   UNL     1       2.344   7.517  18.144  0.00  0.00    +0.000 A 
ENDROOT
BRANCH   4   7
ATOM      7  C   UNL     1       1.121  11.029  18.967  0.00  0.00    +0.000 A 
ATOM      8  N   UNL     1      -0.035  11.563  19.339  0.00  0.00    +0.000 NA
ATOM      9  C   UNL     1       0.115  12.915  19.233  0.00  0.00    +0.000 A 
ATOM     10  C   UNL     1      -0.739  13.979  19.497  0.00  0.00    +0.000 A 
ATOM     11  N   UNL     1      -0.305  15.246  19.279  0.00  0.00    +0.000 NA
ATOM     12  C   UNL     1       0.955  15.407  18.816  0.00  0.00    +0.000 A 
ATOM     13  N   UNL     1       1.877  14.455  18.540  0.00  0.00    +0.000 NA
ATOM     14  C   UNL     1       1.379  13.230  18.774  0.00  0.00    +0.000 A 
ATOM     15  N   UNL     1       2.009  12.025  18.617  0.00  0.00    +0.000 N 
ATOM     16  H   UNL     1       2.961  11.910  18.312  0.00  0.00    +0.000 HD
ENDBRANCH   4   7
BRANCH   1  17
ATOM     17  C   UNL     1       3.004   5.648  19.752  0.00  0.00    +0.000 C 
BRANCH  17  20
ATOM     18  C   UNL     1       6.118   5.122  18.187  0.00  0.00    +0.000 A 
ATOM     19  N   UNL     1       5.367   5.639  19.158  0.00  0.00    +0.000 NA
ATOM     20  N   UNL     1       4.117   5.206  18.912  0.00  0.00    +0.000 N 
ATOM     21  C   UNL     1       4.053   4.355  17.818  0.00  0.00    +0.000 A 
ATOM     22  C   UNL     1       5.358   4.286  17.326  0.00  0.00    +0.000 A 
BRANCH  18  24
ATOM     23  C   UNL     1       7.813   6.963  18.091  0.00  0.00    +0.000 C 
ATOM     24  C   UNL     1       7.574   5.461  18.132  0.00  0.00    +0.000 C 
ENDBRANCH  18  24
BRANCH  21  25
ATOM     25  C   UNL     1       2.842   3.673  17.223  0.00  0.00    +0.000 C 
ATOM     26  C   UNL     1       2.242   2.462  17.907  0.00  0.00    +0.000 C 
ENDBRANCH  21  25
BRANCH  22  27
ATOM     27  C   UNL     1       5.842   3.539  16.112  0.00  0.00    +0.000 C 
BRANCH  27  28
ATOM     28  C   UNL     1       6.043   4.364  14.857  0.00  0.00    +0.000 C 
ATOM     29  O   UNL     1       5.980   5.590  14.856  0.00  0.00    +0.000 OA
BRANCH  28  30
ATOM     30  O   UNL     1       6.373   3.678  13.743  0.00  0.00    +0.000 OA
ATOM     31  H   UNL     1       6.161   4.152  12.913  0.00  0.00    +0.000 HD
ENDBRANCH  28  30
ENDBRANCH  27  28
ENDBRANCH  22  27
ENDBRANCH  17  20
ENDBRANCH   1  17
TORSDOF 8
ENDMDL
MODEL 4
REMARK VINA RESULT:      -7.7      1.616      1.950
REMARK  Name = 
REMARK  10 active torsions:
REMARK  status: ('A' for Active; 'I' for Inactive)
REMARK    1  A    between atoms: C_1  and  C_2
REMARK    2  A    between atoms: C_2  and  C_3
REMARK    3  A    between atoms: N_5  and  C_6
REMARK    4  A    between atoms: C_6  and  C_7
REMARK    5  A    between atoms: C_10  and  C_11
REMARK    6  A    between atoms: C_22  and  C_23
REMARK    7  A    between atoms: C_23  and  C_24
REMARK    8  A    between atoms: C_25  and  C_26
REMARK    9  A    between atoms: C_26  and  C_27
REMARK   10  A    between atoms: C_27  and  O_29
REMARK                            x       y       z     vdW  Elec       q    Type
REMARK                         _______ _______ _______ _____ _____    ______ ____
ROOT
ATOM      1  C   UNL     1       2.187   7.375  18.919  0.00  0.00    +0.000 A 
ATOM      2  C   UNL     1       1.867   8.553  18.233  0.00  0.00    +0.000 A 
ATOM      3  C   UNL     1       1.197   9.586  18.882  0.00  0.00    +0.000 A 
ATOM      4  C   UNL     1       0.815   9.480  20.228  0.00  0.00    +0.000 A 
ATOM      5  C   UNL     1       1.231   8.352  20.945  0.00  0.00    +0.000 A 
ATOM      6  C   UNL     1       1.913   7.309  20.293  0.00  0.00    +0.000 A 
ENDROOT
BRANCH   4   7
ATOM      7  C   UNL     1      -0.076  10.523  20.756  0.00  0.00    +0.000 A 
ATOM      8  N   UNL     1      -0.821  11.307  19.987  0.00  0.00    +0.000 NA
ATOM      9  C   UNL     1      -1.560  12.083  20.831  0.00  0.00    +0.000 A 
ATOM     10  C   UNL     1      -2.517  13.066  20.608  0.00  0.00    +0.000 A 
ATOM     11  N   UNL     1      -3.086  13.689  21.671  0.00  0.00    +0.000 NA
ATOM     12  C   UNL     1      -2.689  13.311  22.906  0.00  0.00    +0.000 A 
ATOM     13  N   UNL     1      -1.785  12.362  23.246  0.00  0.00    +0.000 NA
ATOM     14  C   UNL     1      -1.262  11.792  22.148  0.00  0.00    +0.000 A 
ATOM     15  N   UNL     1      -0.325  10.796  22.086  0.00  0.00    +0.000 N 
ATOM     16  H   UNL     1       0.085  10.343  22.886  0.00  0.00    +0.000 HD
ENDBRANCH   4   7
BRANCH   1  17
ATOM     17  C   UNL     1       2.580   6.154  18.117  0.00  0.00    +0.000 C 
BRANCH  17  20
ATOM     18  C   UNL     1       5.986   6.523  17.288  0.00  0.00    +0.000 A 
ATOM     19  N   UNL     1       4.858   6.970  17.838  0.00  0.00    +0.000 NA
ATOM     20  N   UNL     1       3.965   5.975  17.686  0.00  0.00    +0.000 N 
ATOM     21  C   UNL     1       4.519   4.848  17.092  0.00  0.00    +0.000 A 
ATOM     22  C   UNL     1       5.847   5.187  16.823  0.00  0.00    +0.000 A 
BRANCH  18  24
ATOM     23  C   UNL     1       8.067   7.271  18.462  0.00  0.00    +0.000 C 
ATOM     24  C   UNL     1       7.179   7.422  17.236  0.00  0.00    +0.000 C 
ENDBRANCH  18  24
BRANCH  21  25
ATOM     25  C   UNL     1       3.849   3.538  16.747  0.00  0.00    +0.000 C 
ATOM     26  C   UNL     1       3.461   2.573  17.848  0.00  0.00    +0.000 C 
ENDBRANCH  21  25
BRANCH  22  27
ATOM     27  C   UNL     1       6.886   4.345  16.132  0.00  0.00    +0.000 C 
BRANCH  27  28
ATOM     28  C   UNL     1       6.996   4.517  14.631  0.00  0.00    +0.000 C 
ATOM     29  O   UNL     1       7.661   5.412  14.116  0.00  0.00    +0.000 OA
BRANCH  28  30
ATOM     30  O   UNL     1       6.378   3.582  13.880  0.00  0.00    +0.000 OA
ATOM     31  H   UNL     1       6.585   3.645  12.926  0.00  0.00    +0.000 HD
ENDBRANCH  28  30
ENDBRANCH  27  28
ENDBRANCH  22  27
ENDBRANCH  17  20
ENDBRANCH   1  17
TORSDOF 8
ENDMDL
MODEL 5
REMARK VINA RESULT:      -7.6      4.715      9.799
REMARK  Name = 
REMARK  10 active torsions:
REMARK  status: ('A' for Active; 'I' for Inactive)
REMARK    1  A    between atoms: C_1  and  C_2
REMARK    2  A    between atoms: C_2  and  C_3
REMARK    3  A    between atoms: N_5  and  C_6
REMARK    4  A    between atoms: C_6  and  C_7
REMARK    5  A    between atoms: C_10  and  C_11
REMARK    6  A    between atoms: C_22  and  C_23
REMARK    7  A    between atoms: C_23  and  C_24
REMARK    8  A    between atoms: C_25  and  C_26
REMARK    9  A    between atoms: C_26  and  C_27
REMARK   10  A    between atoms: C_27  and  O_29
REMARK                            x       y       z     vdW  Elec       q    Type
REMARK                         _______ _______ _______ _____ _____    ______ ____
ROOT
ATOM      1  C   UNL     1       0.876  10.712  18.836  0.00  0.00    +0.000 A 
ATOM      2  C   UNL     1       0.724  10.172  20.118  0.00  0.00    +0.000 A 
ATOM      3  C   UNL     1       1.244   8.915  20.420  0.00  0.00    +0.000 A 
ATOM      4  C   UNL     1       1.923   8.153  19.457  0.00  0.00    +0.000 A 
ATOM      5  C   UNL     1       2.173   8.737  18.209  0.00  0.00    +0.000 A 
ATOM      6  C   UNL     1       1.653  10.008  17.904  0.00  0.00    +0.000 A 
ENDROOT
BRANCH   4   7
ATOM      7  C   UNL     1       2.237   6.760  19.805  0.00  0.00    +0.000 A 
ATOM      8  N   UNL     1       1.573   6.068  20.722  0.00  0.00    +0.000 NA
ATOM      9  C   UNL     1       2.098   4.808  20.706  0.00  0.00    +0.000 A 
ATOM     10  C   UNL     1       1.799   3.658  21.426  0.00  0.00    +0.000 A 
ATOM     11  N   UNL     1       2.517   2.529  21.197  0.00  0.00    +0.000 NA
ATOM     12  C   UNL     1       3.494   2.585  20.264  0.00  0.00    +0.000 A 
ATOM     13  N   UNL     1       3.863   3.636  19.494  0.00  0.00    +0.000 NA
ATOM     14  C   UNL     1       3.115   4.715  19.777  0.00  0.00    +0.000 A 
ATOM     15  N   UNL     1       3.188   5.958  19.207  0.00  0.00    +0.000 N 
ATOM     16  H   UNL     1       3.822   6.215  18.469  0.00  0.00    +0.000 HD
ENDBRANCH   4   7
BRANCH   1  17
ATOM     17  C   UNL     1       0.010  11.886  18.437  0.00  0.00    +0.000 C 
BRANCH  17  20
ATOM     18  C   UNL     1      -3.292  12.240  19.619  0.00  0.00    +0.000 A 
ATOM     19  N   UNL     1      -1.999  12.558  19.641  0.00  0.00    +0.000 NA
ATOM     20  N   UNL     1      -1.436  11.838  18.654  0.00  0.00    +0.000 N 
ATOM     21  C   UNL     1      -2.365  11.093  17.941  0.00  0.00    +0.000 A 
ATOM     22  C   UNL     1      -3.592  11.343  18.559  0.00  0.00    +0.000 A 
BRANCH  18  24
ATOM     23  C   UNL     1      -3.660  12.689  22.055  0.00  0.00    +0.000 C 
ATOM     24  C   UNL     1      -4.207  12.832  20.643  0.00  0.00    +0.000 C 
ENDBRANCH  18  24
BRANCH  21  25
ATOM     25  C   UNL     1      -2.131  10.159  16.775  0.00  0.00    +0.000 C 
ATOM     26  C   UNL     1      -2.753  10.460  15.427  0.00  0.00    +0.000 C 
ENDBRANCH  21  25
BRANCH  22  27
ATOM     27  C   UNL     1      -4.930  10.743  18.216  0.00  0.00    +0.000 C 
BRANCH  27  28
ATOM     28  C   UNL     1      -5.983  11.707  17.708  0.00  0.00    +0.000 C 
ATOM     29  O   UNL     1      -7.170  11.606  18.006  0.00  0.00    +0.000 OA
BRANCH  28  30
ATOM     30  O   UNL     1      -5.532  12.737  16.962  0.00  0.00    +0.000 OA
ATOM     31  H   UNL     1      -4.841  13.269  17.405  0.00  0.00    +0.000 HD
ENDBRANCH  28  30
ENDBRANCH  27  28
ENDBRANCH  22  27
ENDBRANCH  17  20
ENDBRANCH   1  17
TORSDOF 8
ENDMDL
MODEL 6
REMARK VINA RESULT:      -7.5      0.909      1.250
REMARK  Name = 
REMARK  10 active torsions:
REMARK  status: ('A' for Active; 'I' for Inactive)
REMARK    1  A    between atoms: C_1  and  C_2
REMARK    2  A    between atoms: C_2  and  C_3
REMARK    3  A    between atoms: N_5  and  C_6
REMARK    4  A    between atoms: C_6  and  C_7
REMARK    5  A    between atoms: C_10  and  C_11
REMARK    6  A    between atoms: C_22  and  C_23
REMARK    7  A    between atoms: C_23  and  C_24
REMARK    8  A    between atoms: C_25  and  C_26
REMARK    9  A    between atoms: C_26  and  C_27
REMARK   10  A    between atoms: C_27  and  O_29
REMARK                            x       y       z     vdW  Elec       q    Type
REMARK                         _______ _______ _______ _____ _____    ______ ____
ROOT
ATOM      1  C   UNL     1       2.308   6.118  19.880  0.00  0.00    +0.000 A 
ATOM      2  C   UNL     1       1.489   6.344  20.992  0.00  0.00    +0.000 A 
ATOM      3  C   UNL     1       0.930   7.601  21.211  0.00  0.00    +0.000 A 
ATOM      4  C   UNL     1       1.174   8.674  20.340  0.00  0.00    +0.000 A 
ATOM      5  C   UNL     1       1.900   8.421  19.170  0.00  0.00    +0.000 A 
ATOM      6  C   UNL     1       2.461   7.152  18.943  0.00  0.00    +0.000 A 
ENDROOT
BRANCH   4   7
ATOM      7  C   UNL     1       0.724  10.004  20.773  0.00  0.00    +0.000 A 
ATOM      8  N   UNL     1      -0.195  10.196  21.711  0.00  0.00    +0.000 NA
ATOM      9  C   UNL     1      -0.286  11.545  21.889  0.00  0.00    +0.000 A 
ATOM     10  C   UNL     1      -1.056  12.331  22.738  0.00  0.00    +0.000 A 
ATOM     11  N   UNL     1      -0.937  13.682  22.679  0.00  0.00    +0.000 NA
ATOM     12  C   UNL     1      -0.058  14.196  21.790  0.00  0.00    +0.000 A 
ATOM     13  N   UNL     1       0.752  13.536  20.930  0.00  0.00    +0.000 NA
ATOM     14  C   UNL     1       0.578  12.208  21.040  0.00  0.00    +0.000 A 
ATOM     15  N   UNL     1       1.218  11.219  20.343  0.00  0.00    +0.000 N 
ATOM     16  H   UNL     1       1.934  11.373  19.652  0.00  0.00    +0.000 HD
ENDBRANCH   4   7
BRANCH   1  17
ATOM     17  C   UNL     1       3.177   4.879  19.860  0.00  0.00    +0.000 C 
BRANCH  17  20
ATOM     18  C   UNL     1       6.437   5.332  18.599  0.00  0.00    +0.000 A 
ATOM     19  N   UNL     1       5.525   5.456  19.562  0.00  0.00    +0.000 NA
ATOM     20  N   UNL     1       4.415   4.865  19.082  0.00  0.00    +0.000 N 
ATOM     21  C   UNL     1       4.612   4.298  17.830  0.00  0.00    +0.000 A 
ATOM     22  C   UNL     1       5.934   4.593  17.494  0.00  0.00    +0.000 A 
BRANCH  18  24
ATOM     23  C   UNL     1       7.904   7.305  18.123  0.00  0.00    +0.000 C 
ATOM     24  C   UNL     1       7.789   5.943  18.791  0.00  0.00    +0.000 C 
ENDBRANCH  18  24
BRANCH  21  25
ATOM     25  C   UNL     1       3.619   3.558  16.963  0.00  0.00    +0.000 C 
ATOM     26  C   UNL     1       2.566   2.676  17.601  0.00  0.00    +0.000 C 
ENDBRANCH  21  25
BRANCH  22  27
ATOM     27  C   UNL     1       6.652   4.257  16.214  0.00  0.00    +0.000 C 
BRANCH  27  28
ATOM     28  C   UNL     1       6.295   5.102  15.007  0.00  0.00    +0.000 C 
ATOM     29  O   UNL     1       5.714   6.179  15.104  0.00  0.00    +0.000 OA
BRANCH  28  30
ATOM     30  O   UNL     1       6.720   4.638  13.814  0.00  0.00    +0.000 OA
ATOM     31  H   UNL     1       7.377   3.917  13.884  0.00  0.00    +0.000 HD
ENDBRANCH  28  30
ENDBRANCH  27  28
ENDBRANCH  22  27
ENDBRANCH  17  20
ENDBRANCH   1  17
TORSDOF 8
ENDMDL
MODEL 7
REMARK VINA RESULT:      -7.5      1.477      2.025
REMARK  Name = 
REMARK  10 active torsions:
REMARK  status: ('A' for Active; 'I' for Inactive)
REMARK    1  A    between atoms: C_1  and  C_2
REMARK    2  A    between atoms: C_2  and  C_3
REMARK    3  A    between atoms: N_5  and  C_6
REMARK    4  A    between atoms: C_6  and  C_7
REMARK    5  A    between atoms: C_10  and  C_11
REMARK    6  A    between atoms: C_22  and  C_23
REMARK    7  A    between atoms: C_23  and  C_24
REMARK    8  A    between atoms: C_25  and  C_26
REMARK    9  A    between atoms: C_26  and  C_27
REMARK   10  A    between atoms: C_27  and  O_29
REMARK                            x       y       z     vdW  Elec       q    Type
REMARK                         _______ _______ _______ _____ _____    ______ ____
ROOT
ATOM      1  C   UNL     1       2.174   7.603  18.787  0.00  0.00    +0.000 A 
ATOM      2  C   UNL     1       1.898   8.700  17.962  0.00  0.00    +0.000 A 
ATOM      3  C   UNL     1       1.228   9.811  18.468  0.00  0.00    +0.000 A 
ATOM      4  C   UNL     1       0.803   9.865  19.804  0.00  0.00    +0.000 A 
ATOM      5  C   UNL     1       1.176   8.819  20.657  0.00  0.00    +0.000 A 
ATOM      6  C   UNL     1       1.857   7.698  20.151  0.00  0.00    +0.000 A 
ENDROOT
BRANCH   4   7
ATOM      7  C   UNL     1      -0.083  10.975  20.182  0.00  0.00    +0.000 A 
ATOM      8  N   UNL     1       0.336  12.059  20.822  0.00  0.00    +0.000 NA
ATOM      9  C   UNL     1      -0.744  12.886  20.924  0.00  0.00    +0.000 A 
ATOM     10  C   UNL     1      -0.910  14.152  21.474  0.00  0.00    +0.000 A 
ATOM     11  N   UNL     1      -2.136  14.734  21.437  0.00  0.00    +0.000 NA
ATOM     12  C   UNL     1      -3.141  14.043  20.854  0.00  0.00    +0.000 A 
ATOM     13  N   UNL     1      -3.097  12.820  20.275  0.00  0.00    +0.000 NA
ATOM     14  C   UNL     1      -1.859  12.305  20.352  0.00  0.00    +0.000 A 
ATOM     15  N   UNL     1      -1.423  11.096  19.879  0.00  0.00    +0.000 N 
ATOM     16  H   UNL     1      -1.996  10.433  19.383  0.00  0.00    +0.000 HD
ENDBRANCH   4   7
BRANCH   1  17
ATOM     17  C   UNL     1       2.567   6.292  18.142  0.00  0.00    +0.000 C 
BRANCH  17  20
ATOM     18  C   UNL     1       5.993   6.542  17.353  0.00  0.00    +0.000 A 
ATOM     19  N   UNL     1       4.873   7.032  17.882  0.00  0.00    +0.000 NA
ATOM     20  N   UNL     1       3.951   6.063  17.731  0.00  0.00    +0.000 N 
ATOM     21  C   UNL     1       4.477   4.912  17.159  0.00  0.00    +0.000 A 
ATOM     22  C   UNL     1       5.817   5.206  16.902  0.00  0.00    +0.000 A 
BRANCH  18  24
ATOM     23  C   UNL     1       8.136   7.160  18.491  0.00  0.00    +0.000 C 
ATOM     24  C   UNL     1       7.215   7.402  17.305  0.00  0.00    +0.000 C 
ENDBRANCH  18  24
BRANCH  21  25
ATOM     25  C   UNL     1       3.770   3.620  16.821  0.00  0.00    +0.000 C 
ATOM     26  C   UNL     1       3.455   2.621  17.915  0.00  0.00    +0.000 C 
ENDBRANCH  21  25
BRANCH  22  27
ATOM     27  C   UNL     1       6.838   4.322  16.236  0.00  0.00    +0.000 C 
BRANCH  27  28
ATOM     28  C   UNL     1       6.963   4.462  14.732  0.00  0.00    +0.000 C 
ATOM     29  O   UNL     1       7.643   5.339  14.205  0.00  0.00    +0.000 OA
BRANCH  28  30
ATOM     30  O   UNL     1       6.341   3.519  13.996  0.00  0.00    +0.000 OA
ATOM     31  H   UNL     1       5.489   3.223  14.375  0.00  0.00    +0.000 HD
ENDBRANCH  28  30
ENDBRANCH  27  28
ENDBRANCH  22  27
ENDBRANCH  17  20
ENDBRANCH   1  17
TORSDOF 8
ENDMDL
MODEL 8
REMARK VINA RESULT:      -7.5      2.739      3.449
REMARK  Name = 
REMARK  10 active torsions:
REMARK  status: ('A' for Active; 'I' for Inactive)
REMARK    1  A    between atoms: C_1  and  C_2
REMARK    2  A    between atoms: C_2  and  C_3
REMARK    3  A    between atoms: N_5  and  C_6
REMARK    4  A    between atoms: C_6  and  C_7
REMARK    5  A    between atoms: C_10  and  C_11
REMARK    6  A    between atoms: C_22  and  C_23
REMARK    7  A    between atoms: C_23  and  C_24
REMARK    8  A    between atoms: C_25  and  C_26
REMARK    9  A    between atoms: C_26  and  C_27
REMARK   10  A    between atoms: C_27  and  O_29
REMARK                            x       y       z     vdW  Elec       q    Type
REMARK                         _______ _______ _______ _____ _____    ______ ____
ROOT
ATOM      1  C   UNL     1       2.033   8.028  18.660  0.00  0.00    +0.000 A 
ATOM      2  C   UNL     1       1.690   9.255  18.079  0.00  0.00    +0.000 A 
ATOM      3  C   UNL     1       1.027  10.227  18.824  0.00  0.00    +0.000 A 
ATOM      4  C   UNL     1       0.676  10.009  20.165  0.00  0.00    +0.000 A 
ATOM      5  C   UNL     1       1.116   8.830  20.779  0.00  0.00    +0.000 A 
ATOM      6  C   UNL     1       1.791   7.849  20.031  0.00  0.00    +0.000 A 
ENDROOT
BRANCH   4   7
ATOM      7  C   UNL     1      -0.210  10.999  20.795  0.00  0.00    +0.000 A 
ATOM      8  N   UNL     1      -0.025  11.469  22.022  0.00  0.00    +0.000 NA
ATOM      9  C   UNL     1      -0.991  12.412  22.221  0.00  0.00    +0.000 A 
ATOM     10  C   UNL     1      -1.285  13.243  23.295  0.00  0.00    +0.000 A 
ATOM     11  N   UNL     1      -2.342  14.090  23.206  0.00  0.00    +0.000 NA
ATOM     12  C   UNL     1      -3.056  14.084  22.059  0.00  0.00    +0.000 A 
ATOM     13  N   UNL     1      -2.857  13.337  20.947  0.00  0.00    +0.000 NA
ATOM     14  C   UNL     1      -1.801  12.522  21.108  0.00  0.00    +0.000 A 
ATOM     15  N   UNL     1      -1.290  11.625  20.209  0.00  0.00    +0.000 N 
ATOM     16  H   UNL     1      -1.647  11.478  19.279  0.00  0.00    +0.000 HD
ENDBRANCH   4   7
BRANCH   1  17
ATOM     17  C   UNL     1       2.416   6.879  17.754  0.00  0.00    +0.000 C 
BRANCH  17  20
ATOM     18  C   UNL     1       5.152   4.914  18.790  0.00  0.00    +0.000 A 
ATOM     19  N   UNL     1       4.618   6.076  18.417  0.00  0.00    +0.000 NA
ATOM     20  N   UNL     1       3.307   5.827  18.241  0.00  0.00    +0.000 N 
ATOM     21  C   UNL     1       2.966   4.519  18.556  0.00  0.00    +0.000 A 
ATOM     22  C   UNL     1       4.164   3.901  18.919  0.00  0.00    +0.000 A 
BRANCH  18  24
ATOM     23  C   UNL     1       7.400   4.679  17.712  0.00  0.00    +0.000 C 
ATOM     24  C   UNL     1       6.628   4.828  19.014  0.00  0.00    +0.000 C 
ENDBRANCH  18  24
BRANCH  21  25
ATOM     25  C   UNL     1       1.610   3.854  18.483  0.00  0.00    +0.000 C 
ATOM     26  C   UNL     1       0.790   3.666  19.743  0.00  0.00    +0.000 C 
ENDBRANCH  21  25
BRANCH  22  27
ATOM     27  C   UNL     1       4.373   2.460  19.303  0.00  0.00    +0.000 C 
BRANCH  27  28
ATOM     28  C   UNL     1       4.344   2.153  20.787  0.00  0.00    +0.000 C 
ATOM     29  O   UNL     1       3.387   2.438  21.501  0.00  0.00    +0.000 OA
BRANCH  28  30
ATOM     30  O   UNL     1       5.405   1.477  21.272  0.00  0.00    +0.000 OA
ATOM     31  H   UNL     1       6.109   1.322  20.609  0.00  0.00    +0.000 HD
ENDBRANCH  28  30
ENDBRANCH  27  28
ENDBRANCH  22  27
ENDBRANCH  17  20
ENDBRANCH   1  17
TORSDOF 8
ENDMDL
MODEL 9
REMARK VINA RESULT:      -7.4      4.412      7.145
REMARK  Name = 
REMARK  10 active torsions:
REMARK  status: ('A' for Active; 'I' for Inactive)
REMARK    1  A    between atoms: C_1  and  C_2
REMARK    2  A    between atoms: C_2  and  C_3
REMARK    3  A    between atoms: N_5  and  C_6
REMARK    4  A    between atoms: C_6  and  C_7
REMARK    5  A    between atoms: C_10  and  C_11
REMARK    6  A    between atoms: C_22  and  C_23
REMARK    7  A    between atoms: C_23  and  C_24
REMARK    8  A    between atoms: C_25  and  C_26
REMARK    9  A    between atoms: C_26  and  C_27
REMARK   10  A    between atoms: C_27  and  O_29
REMARK                            x       y       z     vdW  Elec       q    Type
REMARK                         _______ _______ _______ _____ _____    ______ ____
ROOT
ATOM      1  C   UNL     1       6.530   5.851  17.672  0.00  0.00    +0.000 A 
ATOM      2  C   UNL     1       6.446   6.992  16.866  0.00  0.00    +0.000 A 
ATOM      3  C   UNL     1       7.221   8.114  17.150  0.00  0.00    +0.000 A 
ATOM      4  C   UNL     1       8.096   8.141  18.247  0.00  0.00    +0.000 A 
ATOM      5  C   UNL     1       8.263   6.964  18.986  0.00  0.00    +0.000 A 
ATOM      6  C   UNL     1       7.486   5.828  18.698  0.00  0.00    +0.000 A 
ENDROOT
BRANCH   4   7
ATOM      7  C   UNL     1       8.700   9.436  18.591  0.00  0.00    +0.000 A 
ATOM      8  N   UNL     1       8.628  10.506  17.810  0.00  0.00    +0.000 NA
ATOM      9  C   UNL     1       9.230  11.522  18.494  0.00  0.00    +0.000 A 
ATOM     10  C   UNL     1       9.442  12.862  18.193  0.00  0.00    +0.000 A 
ATOM     11  N   UNL     1      10.098  13.645  19.086  0.00  0.00    +0.000 NA
ATOM     12  C   UNL     1      10.511  13.072  20.239  0.00  0.00    +0.000 A 
ATOM     13  N   UNL     1      10.350  11.792  20.647  0.00  0.00    +0.000 NA
ATOM     14  C   UNL     1       9.698  11.077  19.715  0.00  0.00    +0.000 A 
ATOM     15  N   UNL     1       9.349   9.754  19.767  0.00  0.00    +0.000 N 
ATOM     16  H   UNL     1       9.529   9.142  20.546  0.00  0.00    +0.000 HD
ENDBRANCH   4   7
BRANCH   1  17
ATOM     17  C   UNL     1       5.440   4.807  17.564  0.00  0.00    +0.000 C 
BRANCH  17  20
ATOM     18  C   UNL     1       2.824   5.801  19.706  0.00  0.00    +0.000 A 
ATOM     19  N   UNL     1       3.869   6.075  18.926  0.00  0.00    +0.000 NA
ATOM     20  N   UNL     1       4.257   4.891  18.419  0.00  0.00    +0.000 N 
ATOM     21  C   UNL     1       3.432   3.846  18.813  0.00  0.00    +0.000 A 
ATOM     22  C   UNL     1       2.483   4.423  19.659  0.00  0.00    +0.000 A 
BRANCH  18  24
ATOM     23  C   UNL     1       1.880   8.119  19.608  0.00  0.00    +0.000 C 
ATOM     24  C   UNL     1       2.180   6.908  20.478  0.00  0.00    +0.000 C 
ENDBRANCH  18  24
BRANCH  21  25
ATOM     25  C   UNL     1       3.537   2.378  18.465  0.00  0.00    +0.000 C 
ATOM     26  C   UNL     1       2.490   1.732  17.582  0.00  0.00    +0.000 C 
ENDBRANCH  21  25
BRANCH  22  27
ATOM     27  C   UNL     1       1.380   3.725  20.410  0.00  0.00    +0.000 C 
BRANCH  27  28
ATOM     28  C   UNL     1       1.799   2.937  21.634  0.00  0.00    +0.000 C 
ATOM     29  O   UNL     1       0.998   2.567  22.487  0.00  0.00    +0.000 OA
BRANCH  28  30
ATOM     30  O   UNL     1       3.102   2.596  21.700  0.00  0.00    +0.000 OA
ATOM     31  H   UNL     1       3.679   3.313  22.033  0.00  0.00    +0.000 HD
ENDBRANCH  28  30
ENDBRANCH  27  28
ENDBRANCH  22  27
ENDBRANCH  17  20
ENDBRANCH   1  17
TORSDOF 8
ENDMDL
