MODEL 1
REMARK VINA RESULT:      -8.2      0.000      0.000
REMARK  Name = 
REMARK  7 active torsions:
REMARK  status: ('A' for Active; 'I' for Inactive)
REMARK    1  A    between atoms: C_1  and  C_2
REMARK    2  A    between atoms: C_6  and  C_7
REMARK    3  A    between atoms: C_11  and  C_12
REMARK    4  A    between atoms: N_18  and  C_19
REMARK    5  A    between atoms: C_19  and  C_20
REMARK    6  A    between atoms: C_20  and  C_21
REMARK    7  A    between atoms: C_21  and  N_22
REMARK                            x       y       z     vdW  Elec       q    Type
REMARK                         _______ _______ _______ _____ _____    ______ ____
ROOT
ATOM      1  C   UNL     1       2.298   6.845  19.309  0.00  0.00    +0.000 A 
ATOM      2  C   UNL     1       1.639   6.989  20.545  0.00  0.00    +0.000 A 
ATOM      3  C   UNL     1       1.587   8.193  21.227  0.00  0.00    +0.000 A 
ATOM      4  C   UNL     1       1.091   9.092  20.291  0.00  0.00    +0.000 A 
ATOM      5  N   UNL     1      -0.163   9.629  20.258  0.00  0.00    +0.000 NA
ATOM      6  C   UNL     1      -0.257  10.140  19.057  0.00  0.00    +0.000 A 
ATOM      7  N   UNL     1       1.000  10.238  18.440  0.00  0.00    +0.000 N 
ATOM      8  C   UNL     1       1.724   9.199  19.034  0.00  0.00    +0.000 A 
ATOM      9  C   UNL     1       2.464   8.055  18.559  0.00  0.00    +0.000 A 
ENDROOT
BRANCH   1  14
ATOM     10  C   UNL     1       3.660   4.743  18.111  0.00  0.00    +0.000 A 
ATOM     11  N   UNL     1       3.472   3.392  18.151  0.00  0.00    +0.000 NA
ATOM     12  N   UNL     1       2.439   3.241  18.935  0.00  0.00    +0.000 N 
ATOM     13  C   UNL     1       1.922   4.370  19.444  0.00  0.00    +0.000 A 
ATOM     14  C   UNL     1       2.649   5.443  18.925  0.00  0.00    +0.000 A 
ATOM     15  C   UNL     1       0.798   4.003  20.351  0.00  0.00    +0.000 C 
ATOM     16  C   UNL     1       1.035   2.495  20.600  0.00  0.00    +0.000 C 
ATOM     17  C   UNL     1       1.864   1.999  19.414  0.00  0.00    +0.000 C 
BRANCH  10  23
ATOM     18  C   UNL     1       6.391   4.288  14.114  0.00  0.00    +0.000 C 
ATOM     19  C   UNL     1       6.136   4.997  15.406  0.00  0.00    +0.000 A 
ATOM     20  C   UNL     1       7.010   5.985  15.849  0.00  0.00    +0.000 A 
ATOM     21  C   UNL     1       6.767   6.593  17.066  0.00  0.00    +0.000 A 
ATOM     22  C   UNL     1       5.656   6.187  17.798  0.00  0.00    +0.000 A 
ATOM     23  C   UNL     1       4.808   5.189  17.290  0.00  0.00    +0.000 A 
ATOM     24  N   UNL     1       5.048   4.591  16.107  0.00  0.00    +0.000 NA
ENDBRANCH  10  23
ENDBRANCH   1  14
BRANCH   7  25
ATOM     25  C   UNL     1       1.305  11.614  18.070  0.00  0.00    +0.000 C 
BRANCH  25  26
ATOM     26  C   UNL     1       2.182  12.609  18.816  0.00  0.00    +0.000 C 
BRANCH  26  27
ATOM     27  C   UNL     1       1.615  14.000  19.095  0.00  0.00    +0.000 C 
BRANCH  27  28
ATOM     28  N   UNL     1       2.557  15.111  19.329  0.00  0.00    +0.000 NA
ATOM     29  C   UNL     1       2.409  16.128  18.261  0.00  0.00    +0.000 C 
ATOM     30  C   UNL     1       3.483  15.820  17.236  0.00  0.00    +0.000 C 
ATOM     31  C   UNL     1       4.646  15.410  18.108  0.00  0.00    +0.000 C 
ATOM     32  C   UNL     1       4.000  14.734  19.310  0.00  0.00    +0.000 C 
ENDBRANCH  27  28
ENDBRANCH  26  27
ENDBRANCH  25  26
ENDBRANCH   7  25
TORSDOF 6
ENDMDL
MODEL 2
REMARK VINA RESULT:      -8.1      0.691      1.297
REMARK  Name = 
REMARK  7 active torsions:
REMARK  status: ('A' for Active; 'I' for Inactive)
REMARK    1  A    between atoms: C_1  and  C_2
REMARK    2  A    between atoms: C_6  and  C_7
REMARK    3  A    between atoms: C_11  and  C_12
REMARK    4  A    between atoms: N_18  and  C_19
REMARK    5  A    between atoms: C_19  and  C_20
REMARK    6  A    between atoms: C_20  and  C_21
REMARK    7  A    between atoms: C_21  and  N_22
REMARK                            x       y       z     vdW  Elec       q    Type
REMARK                         _______ _______ _______ _____ _____    ______ ____
ROOT
ATOM      1  C   UNL     1       2.300   6.796  19.385  0.00  0.00    +0.000 A 
ATOM      2  C   UNL     1       1.699   6.890  20.655  0.00  0.00    +0.000 A 
ATOM      3  C   UNL     1       1.656   8.072  21.375  0.00  0.00    +0.000 A 
ATOM      4  C   UNL     1       1.096   8.987  20.491  0.00  0.00    +0.000 A 
ATOM      5  N   UNL     1      -0.168   9.497  20.535  0.00  0.00    +0.000 NA
ATOM      6  C   UNL     1      -0.331  10.041  19.357  0.00  0.00    +0.000 A 
ATOM      7  N   UNL     1       0.892  10.184  18.682  0.00  0.00    +0.000 N 
ATOM      8  C   UNL     1       1.665   9.144  19.209  0.00  0.00    +0.000 A 
ATOM      9  C   UNL     1       2.404   8.031  18.665  0.00  0.00    +0.000 A 
ENDROOT
BRANCH   1  14
ATOM     10  C   UNL     1       3.686   4.753  18.114  0.00  0.00    +0.000 A 
ATOM     11  N   UNL     1       3.499   3.402  18.087  0.00  0.00    +0.000 NA
ATOM     12  N   UNL     1       2.453   3.213  18.845  0.00  0.00    +0.000 N 
ATOM     13  C   UNL     1       1.925   4.317  19.398  0.00  0.00    +0.000 A 
ATOM     14  C   UNL     1       2.660   5.414  18.941  0.00  0.00    +0.000 A 
ATOM     15  C   UNL     1       0.787   3.908  20.267  0.00  0.00    +0.000 C 
ATOM     16  C   UNL     1       1.021   2.390  20.449  0.00  0.00    +0.000 C 
ATOM     17  C   UNL     1       1.872   1.951  19.255  0.00  0.00    +0.000 C 
BRANCH  10  23
ATOM     18  C   UNL     1       7.612   7.600  17.764  0.00  0.00    +0.000 C 
ATOM     19  C   UNL     1       6.716   6.585  17.128  0.00  0.00    +0.000 A 
ATOM     20  C   UNL     1       6.933   6.184  15.813  0.00  0.00    +0.000 A 
ATOM     21  C   UNL     1       6.063   5.274  15.242  0.00  0.00    +0.000 A 
ATOM     22  C   UNL     1       5.005   4.799  16.010  0.00  0.00    +0.000 A 
ATOM     23  C   UNL     1       4.847   5.238  17.335  0.00  0.00    +0.000 A 
ATOM     24  N   UNL     1       5.691   6.131  17.890  0.00  0.00    +0.000 NA
ENDBRANCH  10  23
ENDBRANCH   1  14
BRANCH   7  25
ATOM     25  C   UNL     1       1.151  11.577  18.339  0.00  0.00    +0.000 C 
BRANCH  25  26
ATOM     26  C   UNL     1       0.748  12.820  19.119  0.00  0.00    +0.000 C 
BRANCH  26  27
ATOM     27  C   UNL     1       1.127  14.184  18.545  0.00  0.00    +0.000 C 
BRANCH  27  28
ATOM     28  N   UNL     1       2.321  14.866  19.078  0.00  0.00    +0.000 NA
ATOM     29  C   UNL     1       2.342  16.274  18.619  0.00  0.00    +0.000 C 
ATOM     30  C   UNL     1       3.232  16.303  17.391  0.00  0.00    +0.000 C 
ATOM     31  C   UNL     1       4.325  15.331  17.769  0.00  0.00    +0.000 C 
ATOM     32  C   UNL     1       3.627  14.294  18.638  0.00  0.00    +0.000 C 
ENDBRANCH  27  28
ENDBRANCH  26  27
ENDBRANCH  25  26
ENDBRANCH   7  25
TORSDOF 6
ENDMDL
MODEL 3
REMARK VINA RESULT:      -8.1      0.834      1.626
REMARK  Name = 
REMARK  7 active torsions:
REMARK  status: ('A' for Active; 'I' for Inactive)
REMARK    1  A    between atoms: C_1  and  C_2
REMARK    2  A    between atoms: C_6  and  C_7
REMARK    3  A    between atoms: C_11  and  C_12
REMARK    4  A    between atoms: N_18  and  C_19
REMARK    5  A    between atoms: C_19  and  C_20
REMARK    6  A    between atoms: C_20  and  C_21
REMARK    7  A    between atoms: C_21  and  N_22
REMARK                            x       y       z     vdW  Elec       q    Type
REMARK                         _______ _______ _______ _____ _____    ______ ____
ROOT
ATOM      1  C   UNL     1       2.352   6.834  19.311  0.00  0.00    +0.000 A 
ATOM      2  C   UNL     1       1.640   6.996  20.515  0.00  0.00    +0.000 A 
ATOM      3  C   UNL     1       1.566   8.208  21.181  0.00  0.00    +0.000 A 
ATOM      4  C   UNL     1       1.120   9.101  20.215  0.00  0.00    +0.000 A 
ATOM      5  N   UNL     1      -0.126   9.646  20.120  0.00  0.00    +0.000 NA
ATOM      6  C   UNL     1      -0.163  10.145  18.911  0.00  0.00    +0.000 A 
ATOM      7  N   UNL     1       1.121  10.227  18.349  0.00  0.00    +0.000 N 
ATOM      8  C   UNL     1       1.809   9.189  18.986  0.00  0.00    +0.000 A 
ATOM      9  C   UNL     1       2.561   8.035  18.557  0.00  0.00    +0.000 A 
ENDROOT
BRANCH   1  14
ATOM     10  C   UNL     1       3.732   4.711  18.171  0.00  0.00    +0.000 A 
ATOM     11  N   UNL     1       3.543   3.361  18.232  0.00  0.00    +0.000 NA
ATOM     12  N   UNL     1       2.498   3.223  19.003  0.00  0.00    +0.000 N 
ATOM     13  C   UNL     1       1.974   4.361  19.484  0.00  0.00    +0.000 A 
ATOM     14  C   UNL     1       2.709   5.426  18.957  0.00  0.00    +0.000 A 
ATOM     15  C   UNL     1       0.836   4.011  20.380  0.00  0.00    +0.000 C 
ATOM     16  C   UNL     1       1.069   2.508  20.660  0.00  0.00    +0.000 C 
ATOM     17  C   UNL     1       1.916   1.991  19.495  0.00  0.00    +0.000 C 
BRANCH  10  23
ATOM     18  C   UNL     1       7.624   7.568  17.600  0.00  0.00    +0.000 C 
ATOM     19  C   UNL     1       6.745   6.491  17.049  0.00  0.00    +0.000 A 
ATOM     20  C   UNL     1       6.976   5.981  15.774  0.00  0.00    +0.000 A 
ATOM     21  C   UNL     1       6.122   5.014  15.279  0.00  0.00    +0.000 A 
ATOM     22  C   UNL     1       5.065   4.593  16.079  0.00  0.00    +0.000 A 
ATOM     23  C   UNL     1       4.892   5.142  17.360  0.00  0.00    +0.000 A 
ATOM     24  N   UNL     1       5.721   6.090  17.841  0.00  0.00    +0.000 NA
ENDBRANCH  10  23
ENDBRANCH   1  14
BRANCH   7  25
ATOM     25  C   UNL     1       1.454  11.597  17.979  0.00  0.00    +0.000 C 
BRANCH  25  26
ATOM     26  C   UNL     1       2.055  12.683  18.861  0.00  0.00    +0.000 C 
BRANCH  26  27
ATOM     27  C   UNL     1       2.592  13.942  18.185  0.00  0.00    +0.000 C 
BRANCH  27  28
ATOM     28  N   UNL     1       2.555  15.214  18.932  0.00  0.00    +0.000 NA
ATOM     29  C   UNL     1       1.235  15.374  19.586  0.00  0.00    +0.000 C 
ATOM     30  C   UNL     1       0.406  16.235  18.652  0.00  0.00    +0.000 C 
ATOM     31  C   UNL     1       1.425  17.226  18.144  0.00  0.00    +0.000 C 
ATOM     32  C   UNL     1       2.730  16.441  18.102  0.00  0.00    +0.000 C 
ENDBRANCH  27  28
ENDBRANCH  26  27
ENDBRANCH  25  26
ENDBRANCH   7  25
TORSDOF 6
ENDMDL
MODEL 4
REMARK VINA RESULT:      -8.1      2.204      3.469
REMARK  Name = 
REMARK  7 active torsions:
REMARK  status: ('A' for Active; 'I' for Inactive)
REMARK    1  A    between atoms: C_1  and  C_2
REMARK    2  A    between atoms: C_6  and  C_7
REMARK    3  A    between atoms: C_11  and  C_12
REMARK    4  A    between atoms: N_18  and  C_19
REMARK    5  A    between atoms: C_19  and  C_20
REMARK    6  A    between atoms: C_20  and  C_21
REMARK    7  A    between atoms: C_21  and  N_22
REMARK                            x       y       z     vdW  Elec       q    Type
REMARK                         _______ _______ _______ _____ _____    ______ ____
ROOT
ATOM      1  C   UNL     1       2.290   6.655  19.397  0.00  0.00    +0.000 A 
ATOM      2  C   UNL     1       1.943   6.664  20.762  0.00  0.00    +0.000 A 
ATOM      3  C   UNL     1       1.970   7.814  21.532  0.00  0.00    +0.000 A 
ATOM      4  C   UNL     1       1.196   8.720  20.816  0.00  0.00    +0.000 A 
ATOM      5  N   UNL     1      -0.063   9.142  21.125  0.00  0.00    +0.000 NA
ATOM      6  C   UNL     1      -0.484   9.714  20.026  0.00  0.00    +0.000 A 
ATOM      7  N   UNL     1       0.574   9.963  19.138  0.00  0.00    +0.000 N 
ATOM      8  C   UNL     1       1.495   8.959  19.457  0.00  0.00    +0.000 A 
ATOM      9  C   UNL     1       2.179   7.919  18.729  0.00  0.00    +0.000 A 
ENDROOT
BRANCH   1  14
ATOM     10  C   UNL     1       3.674   4.721  17.963  0.00  0.00    +0.000 A 
ATOM     11  N   UNL     1       3.466   3.383  17.799  0.00  0.00    +0.000 NA
ATOM     12  N   UNL     1       2.398   3.140  18.510  0.00  0.00    +0.000 N 
ATOM     13  C   UNL     1       1.875   4.194  19.156  0.00  0.00    +0.000 A 
ATOM     14  C   UNL     1       2.639   5.317  18.828  0.00  0.00    +0.000 A 
ATOM     15  C   UNL     1       0.708   3.723  19.953  0.00  0.00    +0.000 C 
ATOM     16  C   UNL     1       0.913   2.190  19.990  0.00  0.00    +0.000 C 
ATOM     17  C   UNL     1       1.787   1.855  18.780  0.00  0.00    +0.000 C 
BRANCH  10  23
ATOM     18  C   UNL     1       6.730   4.604  14.184  0.00  0.00    +0.000 C 
ATOM     19  C   UNL     1       6.343   5.227  15.487  0.00  0.00    +0.000 A 
ATOM     20  C   UNL     1       7.135   6.222  16.052  0.00  0.00    +0.000 A 
ATOM     21  C   UNL     1       6.770   6.750  17.276  0.00  0.00    +0.000 A 
ATOM     22  C   UNL     1       5.623   6.259  17.892  0.00  0.00    +0.000 A 
ATOM     23  C   UNL     1       4.863   5.259  17.264  0.00  0.00    +0.000 A 
ATOM     24  N   UNL     1       5.222   4.739  16.074  0.00  0.00    +0.000 NA
ENDBRANCH  10  23
ENDBRANCH   1  14
BRANCH   7  25
ATOM     25  C   UNL     1       0.679  11.381  18.818  0.00  0.00    +0.000 C 
BRANCH  25  26
ATOM     26  C   UNL     1      -0.445  12.405  18.736  0.00  0.00    +0.000 C 
BRANCH  26  27
ATOM     27  C   UNL     1      -1.462  12.267  17.605  0.00  0.00    +0.000 C 
BRANCH  27  28
ATOM     28  N   UNL     1      -2.462  11.184  17.684  0.00  0.00    +0.000 NA
ATOM     29  C   UNL     1      -2.110  10.106  16.731  0.00  0.00    +0.000 C 
ATOM     30  C   UNL     1      -2.923  10.369  15.479  0.00  0.00    +0.000 C 
ATOM     31  C   UNL     1      -4.238  10.846  16.049  0.00  0.00    +0.000 C 
ATOM     32  C   UNL     1      -3.855  11.581  17.326  0.00  0.00    +0.000 C 
ENDBRANCH  27  28
ENDBRANCH  26  27
ENDBRANCH  25  26
ENDBRANCH   7  25
TORSDOF 6
ENDMDL
MODEL 5
REMARK VINA RESULT:      -8.0      0.903      1.600
REMARK  Name = 
REMARK  7 active torsions:
REMARK  status: ('A' for Active; 'I' for Inactive)
REMARK    1  A    between atoms: C_1  and  C_2
REMARK    2  A    between atoms: C_6  and  C_7
REMARK    3  A    between atoms: C_11  and  C_12
REMARK    4  A    between atoms: N_18  and  C_19
REMARK    5  A    between atoms: C_19  and  C_20
REMARK    6  A    between atoms: C_20  and  C_21
REMARK    7  A    between atoms: C_21  and  N_22
REMARK                            x       y       z     vdW  Elec       q    Type
REMARK                         _______ _______ _______ _____ _____    ______ ____
ROOT
ATOM      1  C   UNL     1       2.291   6.870  19.357  0.00  0.00    +0.000 A 
ATOM      2  C   UNL     1       1.644   7.006  20.600  0.00  0.00    +0.000 A 
ATOM      3  C   UNL     1       1.576   8.210  21.279  0.00  0.00    +0.000 A 
ATOM      4  C   UNL     1       1.052   9.097  20.346  0.00  0.00    +0.000 A 
ATOM      5  N   UNL     1      -0.212   9.609  20.326  0.00  0.00    +0.000 NA
ATOM      6  C   UNL     1      -0.331  10.114  19.125  0.00  0.00    +0.000 A 
ATOM      7  N   UNL     1       0.917  10.234  18.493  0.00  0.00    +0.000 N 
ATOM      8  C   UNL     1       1.668   9.212  19.081  0.00  0.00    +0.000 A 
ATOM      9  C   UNL     1       2.425   8.081  18.601  0.00  0.00    +0.000 A 
ENDROOT
BRANCH   1  14
ATOM     10  C   UNL     1       3.697   4.790  18.172  0.00  0.00    +0.000 A 
ATOM     11  N   UNL     1       3.524   3.436  18.203  0.00  0.00    +0.000 NA
ATOM     12  N   UNL     1       2.481   3.270  18.969  0.00  0.00    +0.000 N 
ATOM     13  C   UNL     1       1.942   4.390  19.475  0.00  0.00    +0.000 A 
ATOM     14  C   UNL     1       2.665   5.475  18.972  0.00  0.00    +0.000 A 
ATOM     15  C   UNL     1       0.809   4.007  20.362  0.00  0.00    +0.000 C 
ATOM     16  C   UNL     1       1.059   2.501  20.609  0.00  0.00    +0.000 C 
ATOM     17  C   UNL     1       1.913   2.020  19.434  0.00  0.00    +0.000 C 
BRANCH  10  23
ATOM     18  C   UNL     1       7.654   7.582  17.739  0.00  0.00    +0.000 C 
ATOM     19  C   UNL     1       6.736   6.573  17.125  0.00  0.00    +0.000 A 
ATOM     20  C   UNL     1       6.928   6.158  15.811  0.00  0.00    +0.000 A 
ATOM     21  C   UNL     1       6.038   5.255  15.261  0.00  0.00    +0.000 A 
ATOM     22  C   UNL     1       4.986   4.800  16.049  0.00  0.00    +0.000 A 
ATOM     23  C   UNL     1       4.853   5.253  17.372  0.00  0.00    +0.000 A 
ATOM     24  N   UNL     1       5.716   6.139  17.906  0.00  0.00    +0.000 NA
ENDBRANCH  10  23
ENDBRANCH   1  14
BRANCH   7  25
ATOM     25  C   UNL     1       1.191  11.615  18.115  0.00  0.00    +0.000 C 
BRANCH  25  26
ATOM     26  C   UNL     1       2.511  12.366  18.214  0.00  0.00    +0.000 C 
BRANCH  26  27
ATOM     27  C   UNL     1       2.473  13.893  18.213  0.00  0.00    +0.000 C 
BRANCH  27  28
ATOM     28  N   UNL     1       2.387  14.597  19.507  0.00  0.00    +0.000 NA
ATOM     29  C   UNL     1       3.397  15.679  19.558  0.00  0.00    +0.000 C 
ATOM     30  C   UNL     1       4.596  15.101  20.284  0.00  0.00    +0.000 C 
ATOM     31  C   UNL     1       3.943  14.256  21.352  0.00  0.00    +0.000 C 
ATOM     32  C   UNL     1       2.659  13.753  20.707  0.00  0.00    +0.000 C 
ENDBRANCH  27  28
ENDBRANCH  26  27
ENDBRANCH  25  26
ENDBRANCH   7  25
TORSDOF 6
ENDMDL
MODEL 6
REMARK VINA RESULT:      -8.0      1.476      2.594
REMARK  Name = 
REMARK  7 active torsions:
REMARK  status: ('A' for Active; 'I' for Inactive)
REMARK    1  A    between atoms: C_1  and  C_2
REMARK    2  A    between atoms: C_6  and  C_7
REMARK    3  A    between atoms: C_11  and  C_12
REMARK    4  A    between atoms: N_18  and  C_19
REMARK    5  A    between atoms: C_19  and  C_20
REMARK    6  A    between atoms: C_20  and  C_21
REMARK    7  A    between atoms: C_21  and  N_22
REMARK                            x       y       z     vdW  Elec       q    Type
REMARK                         _______ _______ _______ _____ _____    ______ ____
ROOT
ATOM      1  C   UNL     1       2.373   6.800  19.276  0.00  0.00    +0.000 A 
ATOM      2  C   UNL     1       1.643   6.939  20.472  0.00  0.00    +0.000 A 
ATOM      3  C   UNL     1       1.572   8.133  21.170  0.00  0.00    +0.000 A 
ATOM      4  C   UNL     1       1.152   9.057  20.220  0.00  0.00    +0.000 A 
ATOM      5  N   UNL     1      -0.086   9.620  20.120  0.00  0.00    +0.000 NA
ATOM      6  C   UNL     1      -0.097  10.151  18.924  0.00  0.00    +0.000 A 
ATOM      7  N   UNL     1       1.198  10.232  18.386  0.00  0.00    +0.000 N 
ATOM      8  C   UNL     1       1.863   9.169  19.006  0.00  0.00    +0.000 A 
ATOM      9  C   UNL     1       2.609   8.018  18.558  0.00  0.00    +0.000 A 
ENDROOT
BRANCH   1  14
ATOM     10  C   UNL     1       3.742   4.693  18.095  0.00  0.00    +0.000 A 
ATOM     11  N   UNL     1       3.540   3.344  18.121  0.00  0.00    +0.000 NA
ATOM     12  N   UNL     1       2.488   3.197  18.880  0.00  0.00    +0.000 N 
ATOM     13  C   UNL     1       1.970   4.328  19.386  0.00  0.00    +0.000 A 
ATOM     14  C   UNL     1       2.720   5.398  18.890  0.00  0.00    +0.000 A 
ATOM     15  C   UNL     1       0.823   3.967  20.264  0.00  0.00    +0.000 C 
ATOM     16  C   UNL     1       1.039   2.455  20.508  0.00  0.00    +0.000 C 
ATOM     17  C   UNL     1       1.891   1.959  19.338  0.00  0.00    +0.000 C 
BRANCH  10  23
ATOM     18  C   UNL     1       7.621   7.581  17.590  0.00  0.00    +0.000 C 
ATOM     19  C   UNL     1       6.761   6.496  17.024  0.00  0.00    +0.000 A 
ATOM     20  C   UNL     1       7.017   5.987  15.754  0.00  0.00    +0.000 A 
ATOM     21  C   UNL     1       6.180   5.014  15.245  0.00  0.00    +0.000 A 
ATOM     22  C   UNL     1       5.112   4.584  16.026  0.00  0.00    +0.000 A 
ATOM     23  C   UNL     1       4.913   5.133  17.304  0.00  0.00    +0.000 A 
ATOM     24  N   UNL     1       5.726   6.088  17.798  0.00  0.00    +0.000 NA
ENDBRANCH  10  23
ENDBRANCH   1  14
BRANCH   7  25
ATOM     25  C   UNL     1       1.552  11.608  18.058  0.00  0.00    +0.000 C 
BRANCH  25  26
ATOM     26  C   UNL     1       2.106  12.676  18.990  0.00  0.00    +0.000 C 
BRANCH  26  27
ATOM     27  C   UNL     1       1.536  12.764  20.404  0.00  0.00    +0.000 C 
BRANCH  27  28
ATOM     28  N   UNL     1       0.480  13.758  20.678  0.00  0.00    +0.000 NA
ATOM     29  C   UNL     1      -0.153  13.472  21.986  0.00  0.00    +0.000 C 
ATOM     30  C   UNL     1      -1.400  12.664  21.681  0.00  0.00    +0.000 C 
ATOM     31  C   UNL     1      -1.905  13.324  20.420  0.00  0.00    +0.000 C 
ATOM     32  C   UNL     1      -0.643  13.777  19.697  0.00  0.00    +0.000 C 
ENDBRANCH  27  28
ENDBRANCH  26  27
ENDBRANCH  25  26
ENDBRANCH   7  25
TORSDOF 6
ENDMDL
MODEL 7
REMARK VINA RESULT:      -8.0      0.823      1.547
REMARK  Name = 
REMARK  7 active torsions:
REMARK  status: ('A' for Active; 'I' for Inactive)
REMARK    1  A    between atoms: C_1  and  C_2
REMARK    2  A    between atoms: C_6  and  C_7
REMARK    3  A    between atoms: C_11  and  C_12
REMARK    4  A    between atoms: N_18  and  C_19
REMARK    5  A    between atoms: C_19  and  C_20
REMARK    6  A    between atoms: C_20  and  C_21
REMARK    7  A    between atoms: C_21  and  N_22
REMARK                            x       y       z     vdW  Elec       q    Type
REMARK                         _______ _______ _______ _____ _____    ______ ____
ROOT
ATOM      1  C   UNL     1       2.267   6.964  19.429  0.00  0.00    +0.000 A 
ATOM      2  C   UNL     1       1.586   7.104  20.654  0.00  0.00    +0.000 A 
ATOM      3  C   UNL     1       1.488   8.315  21.320  0.00  0.00    +0.000 A 
ATOM      4  C   UNL     1       0.980   9.187  20.365  0.00  0.00    +0.000 A 
ATOM      5  N   UNL     1      -0.288   9.686  20.307  0.00  0.00    +0.000 NA
ATOM      6  C   UNL     1      -0.380  10.179  19.098  0.00  0.00    +0.000 A 
ATOM      7  N   UNL     1       0.882  10.306  18.497  0.00  0.00    +0.000 N 
ATOM      8  C   UNL     1       1.628   9.296  19.115  0.00  0.00    +0.000 A 
ATOM      9  C   UNL     1       2.408   8.169  18.666  0.00  0.00    +0.000 A 
ENDROOT
BRANCH   1  14
ATOM     10  C   UNL     1       3.701   4.889  18.269  0.00  0.00    +0.000 A 
ATOM     11  N   UNL     1       3.556   3.533  18.329  0.00  0.00    +0.000 NA
ATOM     12  N   UNL     1       2.526   3.361  19.112  0.00  0.00    +0.000 N 
ATOM     13  C   UNL     1       1.971   4.481  19.602  0.00  0.00    +0.000 A 
ATOM     14  C   UNL     1       2.665   5.569  19.068  0.00  0.00    +0.000 A 
ATOM     15  C   UNL     1       0.857   4.092  20.511  0.00  0.00    +0.000 C 
ATOM     16  C   UNL     1       1.141   2.597  20.785  0.00  0.00    +0.000 C 
ATOM     17  C   UNL     1       1.990   2.110  19.609  0.00  0.00    +0.000 C 
BRANCH  10  23
ATOM     18  C   UNL     1       7.723   7.582  17.810  0.00  0.00    +0.000 C 
ATOM     19  C   UNL     1       6.749   6.634  17.186  0.00  0.00    +0.000 A 
ATOM     20  C   UNL     1       6.873   6.284  15.845  0.00  0.00    +0.000 A 
ATOM     21  C   UNL     1       5.933   5.437  15.288  0.00  0.00    +0.000 A 
ATOM     22  C   UNL     1       4.900   4.973  16.096  0.00  0.00    +0.000 A 
ATOM     23  C   UNL     1       4.837   5.359  17.445  0.00  0.00    +0.000 A 
ATOM     24  N   UNL     1       5.749   6.190  17.986  0.00  0.00    +0.000 NA
ENDBRANCH  10  23
ENDBRANCH   1  14
BRANCH   7  25
ATOM     25  C   UNL     1       1.152  11.686  18.114  0.00  0.00    +0.000 C 
BRANCH  25  26
ATOM     26  C   UNL     1       2.479  12.429  18.173  0.00  0.00    +0.000 C 
BRANCH  26  27
ATOM     27  C   UNL     1       2.459  13.910  18.544  0.00  0.00    +0.000 C 
BRANCH  27  28
ATOM     28  N   UNL     1       3.373  14.827  17.837  0.00  0.00    +0.000 NA
ATOM     29  C   UNL     1       4.778  14.448  18.115  0.00  0.00    +0.000 C 
ATOM     30  C   UNL     1       5.235  15.339  19.254  0.00  0.00    +0.000 C 
ATOM     31  C   UNL     1       4.576  16.654  18.914  0.00  0.00    +0.000 C 
ATOM     32  C   UNL     1       3.269  16.260  18.238  0.00  0.00    +0.000 C 
ENDBRANCH  27  28
ENDBRANCH  26  27
ENDBRANCH  25  26
ENDBRANCH   7  25
TORSDOF 6
ENDMDL
MODEL 8
REMARK VINA RESULT:      -8.0      1.301      1.860
REMARK  Name = 
REMARK  7 active torsions:
REMARK  status: ('A' for Active; 'I' for Inactive)
REMARK    1  A    between atoms: C_1  and  C_2
REMARK    2  A    between atoms: C_6  and  C_7
REMARK    3  A    between atoms: C_11  and  C_12
REMARK    4  A    between atoms: N_18  and  C_19
REMARK    5  A    between atoms: C_19  and  C_20
REMARK    6  A    between atoms: C_20  and  C_21
REMARK    7  A    between atoms: C_21  and  N_22
REMARK                            x       y       z     vdW  Elec       q    Type
REMARK                         _______ _______ _______ _____ _____    ______ ____
ROOT
ATOM      1  C   UNL     1       2.233   6.987  19.711  0.00  0.00    +0.000 A 
ATOM      2  C   UNL     1       1.546   7.018  20.939  0.00  0.00    +0.000 A 
ATOM      3  C   UNL     1       1.344   8.187  21.653  0.00  0.00    +0.000 A 
ATOM      4  C   UNL     1       0.759   9.049  20.734  0.00  0.00    +0.000 A 
ATOM      5  N   UNL     1      -0.548   9.437  20.695  0.00  0.00    +0.000 NA
ATOM      6  C   UNL     1      -0.686   9.968  19.507  0.00  0.00    +0.000 A 
ATOM      7  N   UNL     1       0.560  10.229  18.913  0.00  0.00    +0.000 N 
ATOM      8  C   UNL     1       1.392   9.265  19.490  0.00  0.00    +0.000 A 
ATOM      9  C   UNL     1       2.267   8.229  18.997  0.00  0.00    +0.000 A 
ENDROOT
BRANCH   1  14
ATOM     10  C   UNL     1       4.021   5.044  18.849  0.00  0.00    +0.000 A 
ATOM     11  N   UNL     1       3.874   3.708  18.613  0.00  0.00    +0.000 NA
ATOM     12  N   UNL     1       2.621   3.474  18.898  0.00  0.00    +0.000 N 
ATOM     13  C   UNL     1       1.911   4.531  19.323  0.00  0.00    +0.000 A 
ATOM     14  C   UNL     1       2.750   5.647  19.294  0.00  0.00    +0.000 A 
ATOM     15  C   UNL     1       0.534   4.068  19.653  0.00  0.00    +0.000 C 
ATOM     16  C   UNL     1       0.701   2.534  19.751  0.00  0.00    +0.000 C 
ATOM     17  C   UNL     1       1.944   2.193  18.926  0.00  0.00    +0.000 C 
BRANCH  10  23
ATOM     18  C   UNL     1       8.670   5.403  20.225  0.00  0.00    +0.000 C 
ATOM     19  C   UNL     1       7.601   5.774  19.247  0.00  0.00    +0.000 A 
ATOM     20  C   UNL     1       7.876   6.658  18.208  0.00  0.00    +0.000 A 
ATOM     21  C   UNL     1       6.856   7.011  17.345  0.00  0.00    +0.000 A 
ATOM     22  C   UNL     1       5.593   6.466  17.555  0.00  0.00    +0.000 A 
ATOM     23  C   UNL     1       5.384   5.572  18.619  0.00  0.00    +0.000 A 
ATOM     24  N   UNL     1       6.377   5.234  19.465  0.00  0.00    +0.000 NA
ENDBRANCH  10  23
ENDBRANCH   1  14
BRANCH   7  25
ATOM     25  C   UNL     1       0.707  11.642  18.585  0.00  0.00    +0.000 C 
BRANCH  25  26
ATOM     26  C   UNL     1       1.742  12.622  19.121  0.00  0.00    +0.000 C 
BRANCH  26  27
ATOM     27  C   UNL     1       2.610  13.373  18.115  0.00  0.00    +0.000 C 
BRANCH  27  28
ATOM     28  N   UNL     1       3.270  14.621  18.545  0.00  0.00    +0.000 NA
ATOM     29  C   UNL     1       2.329  15.435  19.349  0.00  0.00    +0.000 C 
ATOM     30  C   UNL     1       1.714  16.436  18.390  0.00  0.00    +0.000 C 
ATOM     31  C   UNL     1       2.888  16.795  17.510  0.00  0.00    +0.000 C 
ATOM     32  C   UNL     1       3.714  15.517  17.439  0.00  0.00    +0.000 C 
ENDBRANCH  27  28
ENDBRANCH  26  27
ENDBRANCH  25  26
ENDBRANCH   7  25
TORSDOF 6
ENDMDL
MODEL 9
REMARK VINA RESULT:      -8.0      1.106      1.279
REMARK  Name = 
REMARK  7 active torsions:
REMARK  status: ('A' for Active; 'I' for Inactive)
REMARK    1  A    between atoms: C_1  and  C_2
REMARK    2  A    between atoms: C_6  and  C_7
REMARK    3  A    between atoms: C_11  and  C_12
REMARK    4  A    between atoms: N_18  and  C_19
REMARK    5  A    between atoms: C_19  and  C_20
REMARK    6  A    between atoms: C_20  and  C_21
REMARK    7  A    between atoms: C_21  and  N_22
REMARK                            x       y       z     vdW  Elec       q    Type
REMARK                         _______ _______ _______ _____ _____    ______ ____
ROOT
ATOM      1  C   UNL     1       2.241   6.879  19.412  0.00  0.00    +0.000 A 
ATOM      2  C   UNL     1       1.650   6.982  20.686  0.00  0.00    +0.000 A 
ATOM      3  C   UNL     1       1.588   8.176  21.385  0.00  0.00    +0.000 A 
ATOM      4  C   UNL     1       1.000   9.063  20.491  0.00  0.00    +0.000 A 
ATOM      5  N   UNL     1      -0.274   9.546  20.539  0.00  0.00    +0.000 NA
ATOM      6  C   UNL     1      -0.461  10.065  19.352  0.00  0.00    +0.000 A 
ATOM      7  N   UNL     1       0.752  10.222  18.663  0.00  0.00    +0.000 N 
ATOM      8  C   UNL     1       1.553   9.209  19.201  0.00  0.00    +0.000 A 
ATOM      9  C   UNL     1       2.311   8.103  18.668  0.00  0.00    +0.000 A 
ENDROOT
BRANCH   1  14
ATOM     10  C   UNL     1       3.667   4.843  18.175  0.00  0.00    +0.000 A 
ATOM     11  N   UNL     1       3.504   3.488  18.167  0.00  0.00    +0.000 NA
ATOM     12  N   UNL     1       2.458   3.292  18.923  0.00  0.00    +0.000 N 
ATOM     13  C   UNL     1       1.909   4.394  19.458  0.00  0.00    +0.000 A 
ATOM     14  C   UNL     1       2.626   5.497  18.989  0.00  0.00    +0.000 A 
ATOM     15  C   UNL     1       0.774   3.977  20.328  0.00  0.00    +0.000 C 
ATOM     16  C   UNL     1       1.034   2.467  20.532  0.00  0.00    +0.000 C 
ATOM     17  C   UNL     1       1.897   2.025  19.349  0.00  0.00    +0.000 C 
BRANCH  10  23
ATOM     18  C   UNL     1       6.519   4.539  14.249  0.00  0.00    +0.000 C 
ATOM     19  C   UNL     1       6.207   5.217  15.545  0.00  0.00    +0.000 A 
ATOM     20  C   UNL     1       7.039   6.223  16.029  0.00  0.00    +0.000 A 
ATOM     21  C   UNL     1       6.745   6.802  17.249  0.00  0.00    +0.000 A 
ATOM     22  C   UNL     1       5.627   6.351  17.942  0.00  0.00    +0.000 A 
ATOM     23  C   UNL     1       4.823   5.337  17.395  0.00  0.00    +0.000 A 
ATOM     24  N   UNL     1       5.114   4.767  16.208  0.00  0.00    +0.000 NA
ENDBRANCH  10  23
ENDBRANCH   1  14
BRANCH   7  25
ATOM     25  C   UNL     1       0.977  11.614  18.293  0.00  0.00    +0.000 C 
BRANCH  25  26
ATOM     26  C   UNL     1       1.732  12.678  19.077  0.00  0.00    +0.000 C 
BRANCH  26  27
ATOM     27  C   UNL     1       1.317  12.934  20.525  0.00  0.00    +0.000 C 
BRANCH  27  28
ATOM     28  N   UNL     1       2.227  13.705  21.394  0.00  0.00    +0.000 NA
ATOM     29  C   UNL     1       1.557  14.947  21.845  0.00  0.00    +0.000 C 
ATOM     30  C   UNL     1       2.012  16.038  20.895  0.00  0.00    +0.000 C 
ATOM     31  C   UNL     1       3.461  15.678  20.667  0.00  0.00    +0.000 C 
ATOM     32  C   UNL     1       3.491  14.157  20.744  0.00  0.00    +0.000 C 
ENDBRANCH  27  28
ENDBRANCH  26  27
ENDBRANCH  25  26
ENDBRANCH   7  25
TORSDOF 6
ENDMDL
