MODEL 1
REMARK VINA RESULT:      -9.1      0.000      0.000
REMARK  Name = 
REMARK  6 active torsions:
REMARK  status: ('A' for Active; 'I' for Inactive)
REMARK    1  A    between atoms: C_2  and  C_3
REMARK    2  A    between atoms: C_2  and  C_26
REMARK    3  A    between atoms: C_3  and  O_4
REMARK    4  A    between atoms: O_4  and  C_5
REMARK    5  A    between atoms: C_8  and  C_9
REMARK    6  A    between atoms: C_15  and  C_16
REMARK                            x       y       z     vdW  Elec       q    Type
REMARK                         _______ _______ _______ _____ _____    ______ ____
ROOT
ATOM      1  C   UNL     1       1.325   9.617  19.936  0.00  0.00    +0.000 A 
ATOM      2  C   UNL     1       1.150   8.820  21.067  0.00  0.00    +0.000 A 
ATOM      3  C   UNL     1       1.402   7.450  21.012  0.00  0.00    +0.000 A 
ATOM      4  C   UNL     1       1.807   6.861  19.811  0.00  0.00    +0.000 A 
ATOM      5  C   UNL     1       1.981   7.662  18.674  0.00  0.00    +0.000 A 
ATOM      6  C   UNL     1       1.734   9.037  18.735  0.00  0.00    +0.000 A 
ENDROOT
BRANCH   4   7
ATOM      7  C   UNL     1       2.021   5.406  19.746  0.00  0.00    +0.000 A 
ATOM      8  C   UNL     1       1.343   4.629  20.623  0.00  0.00    +0.000 A 
ATOM      9  C   UNL     1       1.518   3.184  20.674  0.00  0.00    +0.000 A 
ATOM     10  C   UNL     1       2.385   2.605  19.827  0.00  0.00    +0.000 A 
ATOM     11  N   UNL     1       3.075   3.402  18.918  0.00  0.00    +0.000 N 
ATOM     12  C   UNL     1       3.991   3.035  17.966  0.00  0.00    +0.000 A 
ATOM     13  C   UNL     1       4.359   4.206  17.336  0.00  0.00    +0.000 A 
ATOM     14  N   UNL     1       3.695   5.279  17.884  0.00  0.00    +0.000 NA
ATOM     15  C   UNL     1       2.931   4.780  18.833  0.00  0.00    +0.000 A 
BRANCH  13  16
ATOM     16  C   UNL     1       5.331   4.349  16.264  0.00  0.00    +0.000 A 
ATOM     17  C   UNL     1       6.595   4.915  16.479  0.00  0.00    +0.000 A 
ATOM     18  C   UNL     1       7.486   5.085  15.418  0.00  0.00    +0.000 A 
ATOM     19  C   UNL     1       7.130   4.682  14.132  0.00  0.00    +0.000 A 
ATOM     20  C   UNL     1       5.887   4.095  13.909  0.00  0.00    +0.000 A 
ATOM     21  C   UNL     1       4.995   3.928  14.969  0.00  0.00    +0.000 A 
ENDBRANCH  13  16
ENDBRANCH   4   7
BRANCH   1  22
ATOM     22  O   UNL     1       1.036  10.937  20.127  0.00  0.00    +0.000 OA
BRANCH  22  23
ATOM     23  C   UNL     1       0.278  11.573  19.107  0.00  0.00    +0.000 C 
BRANCH  23  25
ATOM     24  O   UNL     1      -1.707  11.670  20.522  0.00  0.00    +0.000 OA
ATOM     25  C   UNL     1      -1.212  11.446  19.420  0.00  0.00    +0.000 C 
BRANCH  25  26
ATOM     26  C   UNL     1      -2.114  11.083  18.294  0.00  0.00    +0.000 A 
ATOM     27  C   UNL     1      -1.667  10.166  17.337  0.00  0.00    +0.000 A 
ATOM     28  C   UNL     1      -2.497   9.803  16.277  0.00  0.00    +0.000 A 
ATOM     29  C   UNL     1      -3.767  10.365  16.164  0.00  0.00    +0.000 A 
ATOM     30  C   UNL     1      -4.216  11.284  17.110  0.00  0.00    +0.000 A 
ATOM     31  C   UNL     1      -3.392  11.646  18.176  0.00  0.00    +0.000 A 
ENDBRANCH  25  26
ENDBRANCH  23  25
ENDBRANCH  22  23
ENDBRANCH   1  22
TORSDOF 6
ENDMDL
MODEL 2
REMARK VINA RESULT:      -9.0      0.509      1.006
REMARK  Name = 
REMARK  6 active torsions:
REMARK  status: ('A' for Active; 'I' for Inactive)
REMARK    1  A    between atoms: C_2  and  C_3
REMARK    2  A    between atoms: C_2  and  C_26
REMARK    3  A    between atoms: C_3  and  O_4
REMARK    4  A    between atoms: O_4  and  C_5
REMARK    5  A    between atoms: C_8  and  C_9
REMARK    6  A    between atoms: C_15  and  C_16
REMARK                            x       y       z     vdW  Elec       q    Type
REMARK                         _______ _______ _______ _____ _____    ______ ____
ROOT
ATOM      1  C   UNL     1       1.268  10.083  19.593  0.00  0.00    +0.000 A 
ATOM      2  C   UNL     1       1.150   9.409  20.808  0.00  0.00    +0.000 A 
ATOM      3  C   UNL     1       1.469   8.054  20.898  0.00  0.00    +0.000 A 
ATOM      4  C   UNL     1       1.884   7.357  19.760  0.00  0.00    +0.000 A 
ATOM      5  C   UNL     1       2.001   8.035  18.539  0.00  0.00    +0.000 A 
ATOM      6  C   UNL     1       1.686   9.395  18.454  0.00  0.00    +0.000 A 
ENDROOT
BRANCH   4   7
ATOM      7  C   UNL     1       2.169   5.915  19.849  0.00  0.00    +0.000 A 
ATOM      8  C   UNL     1       1.569   5.215  20.840  0.00  0.00    +0.000 A 
ATOM      9  C   UNL     1       1.820   3.795  21.046  0.00  0.00    +0.000 A 
ATOM     10  C   UNL     1       2.678   3.162  20.230  0.00  0.00    +0.000 A 
ATOM     11  N   UNL     1       3.288   3.879  19.204  0.00  0.00    +0.000 N 
ATOM     12  C   UNL     1       4.180   3.448  18.257  0.00  0.00    +0.000 A 
ATOM     13  C   UNL     1       4.461   4.554  17.482  0.00  0.00    +0.000 A 
ATOM     14  N   UNL     1       3.767   5.651  17.936  0.00  0.00    +0.000 NA
ATOM     15  C   UNL     1       3.070   5.230  18.971  0.00  0.00    +0.000 A 
BRANCH  13  16
ATOM     16  C   UNL     1       5.378   4.617  16.355  0.00  0.00    +0.000 A 
ATOM     17  C   UNL     1       6.612   5.277  16.439  0.00  0.00    +0.000 A 
ATOM     18  C   UNL     1       7.447   5.362  15.323  0.00  0.00    +0.000 A 
ATOM     19  C   UNL     1       7.065   4.782  14.116  0.00  0.00    +0.000 A 
ATOM     20  C   UNL     1       5.854   4.102  14.025  0.00  0.00    +0.000 A 
ATOM     21  C   UNL     1       5.017   4.018  15.140  0.00  0.00    +0.000 A 
ENDBRANCH  13  16
ENDBRANCH   4   7
BRANCH   1  22
ATOM     22  O   UNL     1       0.917  11.401  19.645  0.00  0.00    +0.000 OA
BRANCH  22  23
ATOM     23  C   UNL     1       0.045  11.865  18.623  0.00  0.00    +0.000 C 
BRANCH  23  25
ATOM     24  O   UNL     1      -1.876  11.507  20.084  0.00  0.00    +0.000 OA
ATOM     25  C   UNL     1      -1.392  11.467  18.955  0.00  0.00    +0.000 C 
BRANCH  25  26
ATOM     26  C   UNL     1      -2.265  11.064  17.819  0.00  0.00    +0.000 A 
ATOM     27  C   UNL     1      -3.503  11.695  17.661  0.00  0.00    +0.000 A 
ATOM     28  C   UNL     1      -4.336  11.340  16.599  0.00  0.00    +0.000 A 
ATOM     29  C   UNL     1      -3.939  10.349  15.705  0.00  0.00    +0.000 A 
ATOM     30  C   UNL     1      -2.710   9.712  15.861  0.00  0.00    +0.000 A 
ATOM     31  C   UNL     1      -1.870  10.067  16.917  0.00  0.00    +0.000 A 
ENDBRANCH  25  26
ENDBRANCH  23  25
ENDBRANCH  22  23
ENDBRANCH   1  22
TORSDOF 6
ENDMDL
MODEL 3
REMARK VINA RESULT:      -8.8      3.125      8.933
REMARK  Name = 
REMARK  6 active torsions:
REMARK  status: ('A' for Active; 'I' for Inactive)
REMARK    1  A    between atoms: C_2  and  C_3
REMARK    2  A    between atoms: C_2  and  C_26
REMARK    3  A    between atoms: C_3  and  O_4
REMARK    4  A    between atoms: O_4  and  C_5
REMARK    5  A    between atoms: C_8  and  C_9
REMARK    6  A    between atoms: C_15  and  C_16
REMARK                            x       y       z     vdW  Elec       q    Type
REMARK                         _______ _______ _______ _____ _____    ______ ____
ROOT
ATOM      1  C   UNL     1       3.194   5.486  18.778  0.00  0.00    +0.000 A 
ATOM      2  C   UNL     1       2.566   5.265  20.003  0.00  0.00    +0.000 A 
ATOM      3  C   UNL     1       1.854   6.290  20.626  0.00  0.00    +0.000 A 
ATOM      4  C   UNL     1       1.790   7.556  20.037  0.00  0.00    +0.000 A 
ATOM      5  C   UNL     1       2.423   7.777  18.806  0.00  0.00    +0.000 A 
ATOM      6  C   UNL     1       3.130   6.745  18.180  0.00  0.00    +0.000 A 
ENDROOT
BRANCH   4   7
ATOM      7  C   UNL     1       1.082   8.647  20.725  0.00  0.00    +0.000 A 
ATOM      8  C   UNL     1       1.427   8.913  22.007  0.00  0.00    +0.000 A 
ATOM      9  C   UNL     1       0.756   9.940  22.792  0.00  0.00    +0.000 A 
ATOM     10  C   UNL     1      -0.241  10.641  22.228  0.00  0.00    +0.000 A 
ATOM     11  N   UNL     1      -0.590  10.375  20.907  0.00  0.00    +0.000 N 
ATOM     12  C   UNL     1      -1.556  10.962  20.131  0.00  0.00    +0.000 A 
ATOM     13  C   UNL     1      -1.478  10.335  18.905  0.00  0.00    +0.000 A 
ATOM     14  N   UNL     1      -0.492   9.376  18.914  0.00  0.00    +0.000 NA
ATOM     15  C   UNL     1       0.030   9.411  20.124  0.00  0.00    +0.000 A 
BRANCH  13  16
ATOM     16  C   UNL     1      -2.316  10.587  17.744  0.00  0.00    +0.000 A 
ATOM     17  C   UNL     1      -3.442  11.419  17.808  0.00  0.00    +0.000 A 
ATOM     18  C   UNL     1      -4.255  11.599  16.687  0.00  0.00    +0.000 A 
ATOM     19  C   UNL     1      -3.947  10.960  15.488  0.00  0.00    +0.000 A 
ATOM     20  C   UNL     1      -2.818  10.150  15.403  0.00  0.00    +0.000 A 
ATOM     21  C   UNL     1      -2.006   9.968  16.524  0.00  0.00    +0.000 A 
ENDBRANCH  13  16
ENDBRANCH   4   7
BRANCH   1  22
ATOM     22  O   UNL     1       3.860   4.402  18.284  0.00  0.00    +0.000 OA
BRANCH  22  23
ATOM     23  C   UNL     1       4.040   4.356  16.875  0.00  0.00    +0.000 C 
BRANCH  23  25
ATOM     24  O   UNL     1       6.023   3.541  15.712  0.00  0.00    +0.000 OA
ATOM     25  C   UNL     1       5.531   4.294  16.549  0.00  0.00    +0.000 C 
BRANCH  25  26
ATOM     26  C   UNL     1       6.421   5.252  17.257  0.00  0.00    +0.000 A 
ATOM     27  C   UNL     1       6.533   6.558  16.770  0.00  0.00    +0.000 A 
ATOM     28  C   UNL     1       7.355   7.478  17.421  0.00  0.00    +0.000 A 
ATOM     29  C   UNL     1       8.074   7.091  18.548  0.00  0.00    +0.000 A 
ATOM     30  C   UNL     1       7.974   5.789  19.035  0.00  0.00    +0.000 A 
ATOM     31  C   UNL     1       7.148   4.867  18.391  0.00  0.00    +0.000 A 
ENDBRANCH  25  26
ENDBRANCH  23  25
ENDBRANCH  22  23
ENDBRANCH   1  22
TORSDOF 6
ENDMDL
MODEL 4
REMARK VINA RESULT:      -8.8      3.945      8.945
REMARK  Name = 
REMARK  6 active torsions:
REMARK  status: ('A' for Active; 'I' for Inactive)
REMARK    1  A    between atoms: C_2  and  C_3
REMARK    2  A    between atoms: C_2  and  C_26
REMARK    3  A    between atoms: C_3  and  O_4
REMARK    4  A    between atoms: O_4  and  C_5
REMARK    5  A    between atoms: C_8  and  C_9
REMARK    6  A    between atoms: C_15  and  C_16
REMARK                            x       y       z     vdW  Elec       q    Type
REMARK                         _______ _______ _______ _____ _____    ______ ____
ROOT
ATOM      1  C   UNL     1       2.520   7.151  18.369  0.00  0.00    +0.000 A 
ATOM      2  C   UNL     1       2.070   8.356  17.830  0.00  0.00    +0.000 A 
ATOM      3  C   UNL     1       1.481   9.320  18.647  0.00  0.00    +0.000 A 
ATOM      4  C   UNL     1       1.312   9.070  20.013  0.00  0.00    +0.000 A 
ATOM      5  C   UNL     1       1.764   7.859  20.553  0.00  0.00    +0.000 A 
ATOM      6  C   UNL     1       2.360   6.897  19.731  0.00  0.00    +0.000 A 
ENDROOT
BRANCH   4   7
ATOM      7  C   UNL     1       0.643  10.070  20.861  0.00  0.00    +0.000 A 
ATOM      8  C   UNL     1      -0.158   9.618  21.855  0.00  0.00    +0.000 A 
ATOM      9  C   UNL     1      -0.903  10.522  22.720  0.00  0.00    +0.000 A 
ATOM     10  C   UNL     1      -0.796  11.846  22.523  0.00  0.00    +0.000 A 
ATOM     11  N   UNL     1       0.036  12.312  21.508  0.00  0.00    +0.000 N 
ATOM     12  C   UNL     1       0.304  13.602  21.132  0.00  0.00    +0.000 A 
ATOM     13  C   UNL     1       1.195  13.505  20.083  0.00  0.00    +0.000 A 
ATOM     14  N   UNL     1       1.472  12.187  19.804  0.00  0.00    +0.000 NA
ATOM     15  C   UNL     1       0.767  11.484  20.667  0.00  0.00    +0.000 A 
BRANCH  13  16
ATOM     16  C   UNL     1       1.764  14.604  19.320  0.00  0.00    +0.000 A 
ATOM     17  C   UNL     1       1.297  15.919  19.452  0.00  0.00    +0.000 A 
ATOM     18  C   UNL     1       1.831  16.943  18.667  0.00  0.00    +0.000 A 
ATOM     19  C   UNL     1       2.843  16.668  17.750  0.00  0.00    +0.000 A 
ATOM     20  C   UNL     1       3.334  15.371  17.626  0.00  0.00    +0.000 A 
ATOM     21  C   UNL     1       2.799  14.346  18.409  0.00  0.00    +0.000 A 
ENDBRANCH  13  16
ENDBRANCH   4   7
BRANCH   1  22
ATOM     22  O   UNL     1       3.068   6.297  17.457  0.00  0.00    +0.000 OA
BRANCH  22  23
ATOM     23  C   UNL     1       4.178   5.527  17.898  0.00  0.00    +0.000 C 
BRANCH  23  25
ATOM     24  O   UNL     1       4.218   3.212  17.128  0.00  0.00    +0.000 OA
ATOM     25  C   UNL     1       3.798   4.048  17.926  0.00  0.00    +0.000 C 
BRANCH  25  26
ATOM     26  C   UNL     1       2.908   3.596  19.029  0.00  0.00    +0.000 A 
ATOM     27  C   UNL     1       1.540   3.452  18.779  0.00  0.00    +0.000 A 
ATOM     28  C   UNL     1       0.686   3.021  19.794  0.00  0.00    +0.000 A 
ATOM     29  C   UNL     1       1.195   2.747  21.061  0.00  0.00    +0.000 A 
ATOM     30  C   UNL     1       2.556   2.894  21.319  0.00  0.00    +0.000 A 
ATOM     31  C   UNL     1       3.416   3.318  20.305  0.00  0.00    +0.000 A 
ENDBRANCH  25  26
ENDBRANCH  23  25
ENDBRANCH  22  23
ENDBRANCH   1  22
TORSDOF 6
ENDMDL
MODEL 5
REMARK VINA RESULT:      -8.7      3.985      8.978
REMARK  Name = 
REMARK  6 active torsions:
REMARK  status: ('A' for Active; 'I' for Inactive)
REMARK    1  A    between atoms: C_2  and  C_3
REMARK    2  A    between atoms: C_2  and  C_26
REMARK    3  A    between atoms: C_3  and  O_4
REMARK    4  A    between atoms: O_4  and  C_5
REMARK    5  A    between atoms: C_8  and  C_9
REMARK    6  A    between atoms: C_15  and  C_16
REMARK                            x       y       z     vdW  Elec       q    Type
REMARK                         _______ _______ _______ _____ _____    ______ ____
ROOT
ATOM      1  C   UNL     1       2.305   7.486  18.465  0.00  0.00    +0.000 A 
ATOM      2  C   UNL     1       2.150   7.329  19.842  0.00  0.00    +0.000 A 
ATOM      3  C   UNL     1       1.538   8.326  20.602  0.00  0.00    +0.000 A 
ATOM      4  C   UNL     1       1.100   9.503  19.988  0.00  0.00    +0.000 A 
ATOM      5  C   UNL     1       1.258   9.660  18.605  0.00  0.00    +0.000 A 
ATOM      6  C   UNL     1       1.866   8.656  17.845  0.00  0.00    +0.000 A 
ENDROOT
BRANCH   4   7
ATOM      7  C   UNL     1       0.502  10.573  20.803  0.00  0.00    +0.000 A 
ATOM      8  C   UNL     1      -0.288  10.209  21.841  0.00  0.00    +0.000 A 
ATOM      9  C   UNL     1      -0.965  11.187  22.680  0.00  0.00    +0.000 A 
ATOM     10  C   UNL     1      -0.805  12.494  22.412  0.00  0.00    +0.000 A 
ATOM     11  N   UNL     1       0.015  12.870  21.352  0.00  0.00    +0.000 N 
ATOM     12  C   UNL     1       0.328  14.127  20.903  0.00  0.00    +0.000 A 
ATOM     13  C   UNL     1       1.181  13.937  19.835  0.00  0.00    +0.000 A 
ATOM     14  N   UNL     1       1.391  12.595  19.617  0.00  0.00    +0.000 NA
ATOM     15  C   UNL     1       0.682  11.969  20.534  0.00  0.00    +0.000 A 
BRANCH  13  16
ATOM     16  C   UNL     1       1.775  14.969  19.001  0.00  0.00    +0.000 A 
ATOM     17  C   UNL     1       1.211  16.248  18.889  0.00  0.00    +0.000 A 
ATOM     18  C   UNL     1       1.778  17.201  18.040  0.00  0.00    +0.000 A 
ATOM     19  C   UNL     1       2.918  16.891  17.302  0.00  0.00    +0.000 A 
ATOM     20  C   UNL     1       3.504  15.633  17.423  0.00  0.00    +0.000 A 
ATOM     21  C   UNL     1       2.936  14.680  18.270  0.00  0.00    +0.000 A 
ENDBRANCH  13  16
ENDBRANCH   4   7
BRANCH   1  22
ATOM     22  O   UNL     1       2.926   6.440  17.846  0.00  0.00    +0.000 OA
BRANCH  22  23
ATOM     23  C   UNL     1       4.194   6.059  18.364  0.00  0.00    +0.000 C 
BRANCH  23  25
ATOM     24  O   UNL     1       5.237   3.854  18.348  0.00  0.00    +0.000 OA
ATOM     25  C   UNL     1       4.239   4.543  18.546  0.00  0.00    +0.000 C 
BRANCH  25  26
ATOM     26  C   UNL     1       3.006   3.882  19.051  0.00  0.00    +0.000 A 
ATOM     27  C   UNL     1       2.719   3.940  20.419  0.00  0.00    +0.000 A 
ATOM     28  C   UNL     1       1.564   3.335  20.916  0.00  0.00    +0.000 A 
ATOM     29  C   UNL     1       0.704   2.664  20.051  0.00  0.00    +0.000 A 
ATOM     30  C   UNL     1       0.987   2.596  18.689  0.00  0.00    +0.000 A 
ATOM     31  C   UNL     1       2.137   3.204  18.185  0.00  0.00    +0.000 A 
ENDBRANCH  25  26
ENDBRANCH  23  25
ENDBRANCH  22  23
ENDBRANCH   1  22
TORSDOF 6
ENDMDL
MODEL 6
REMARK VINA RESULT:      -8.7      3.916      9.045
REMARK  Name = 
REMARK  6 active torsions:
REMARK  status: ('A' for Active; 'I' for Inactive)
REMARK    1  A    between atoms: C_2  and  C_3
REMARK    2  A    between atoms: C_2  and  C_26
REMARK    3  A    between atoms: C_3  and  O_4
REMARK    4  A    between atoms: O_4  and  C_5
REMARK    5  A    between atoms: C_8  and  C_9
REMARK    6  A    between atoms: C_15  and  C_16
REMARK                            x       y       z     vdW  Elec       q    Type
REMARK                         _______ _______ _______ _____ _____    ______ ____
ROOT
ATOM      1  C   UNL     1       2.623   7.451  18.188  0.00  0.00    +0.000 A 
ATOM      2  C   UNL     1       2.491   7.030  19.511  0.00  0.00    +0.000 A 
ATOM      3  C   UNL     1       1.779   7.800  20.430  0.00  0.00    +0.000 A 
ATOM      4  C   UNL     1       1.214   9.016  20.034  0.00  0.00    +0.000 A 
ATOM      5  C   UNL     1       1.348   9.439  18.705  0.00  0.00    +0.000 A 
ATOM      6  C   UNL     1       2.058   8.661  17.784  0.00  0.00    +0.000 A 
ENDROOT
BRANCH   4   7
ATOM      7  C   UNL     1       0.508   9.849  21.021  0.00  0.00    +0.000 A 
ATOM      8  C   UNL     1      -0.061   9.227  22.080  0.00  0.00    +0.000 A 
ATOM      9  C   UNL     1      -0.822   9.951  23.087  0.00  0.00    +0.000 A 
ATOM     10  C   UNL     1      -0.970  11.280  22.958  0.00  0.00    +0.000 A 
ATOM     11  N   UNL     1      -0.378  11.923  21.875  0.00  0.00    +0.000 N 
ATOM     12  C   UNL     1      -0.388  13.254  21.546  0.00  0.00    +0.000 A 
ATOM     13  C   UNL     1       0.354  13.355  20.387  0.00  0.00    +0.000 A 
ATOM     14  N   UNL     1       0.810  12.118  19.996  0.00  0.00    +0.000 NA
ATOM     15  C   UNL     1       0.361  11.269  20.898  0.00  0.00    +0.000 A 
BRANCH  13  16
ATOM     16  C   UNL     1       0.617  14.564  19.625  0.00  0.00    +0.000 A 
ATOM     17  C   UNL     1       1.914  14.936  19.247  0.00  0.00    +0.000 A 
ATOM     18  C   UNL     1       2.138  16.131  18.559  0.00  0.00    +0.000 A 
ATOM     19  C   UNL     1       1.069  16.962  18.232  0.00  0.00    +0.000 A 
ATOM     20  C   UNL     1      -0.228  16.593  18.579  0.00  0.00    +0.000 A 
ATOM     21  C   UNL     1      -0.452  15.400  19.269  0.00  0.00    +0.000 A 
ENDBRANCH  13  16
ENDBRANCH   4   7
BRANCH   1  22
ATOM     22  O   UNL     1       3.351   6.608  17.399  0.00  0.00    +0.000 OA
BRANCH  22  23
ATOM     23  C   UNL     1       4.326   5.809  18.056  0.00  0.00    +0.000 C 
BRANCH  23  25
ATOM     24  O   UNL     1       4.586   3.619  17.013  0.00  0.00    +0.000 OA
ATOM     25  C   UNL     1       4.012   4.331  17.834  0.00  0.00    +0.000 C 
BRANCH  25  26
ATOM     26  C   UNL     1       2.983   3.715  18.714  0.00  0.00    +0.000 A 
ATOM     27  C   UNL     1       3.256   3.575  20.079  0.00  0.00    +0.000 A 
ATOM     28  C   UNL     1       2.304   3.009  20.927  0.00  0.00    +0.000 A 
ATOM     29  C   UNL     1       1.087   2.572  20.412  0.00  0.00    +0.000 A 
ATOM     30  C   UNL     1       0.810   2.702  19.052  0.00  0.00    +0.000 A 
ATOM     31  C   UNL     1       1.756   3.273  18.200  0.00  0.00    +0.000 A 
ENDBRANCH  25  26
ENDBRANCH  23  25
ENDBRANCH  22  23
ENDBRANCH   1  22
TORSDOF 6
ENDMDL
MODEL 7
REMARK VINA RESULT:      -8.7      0.653      1.098
REMARK  Name = 
REMARK  6 active torsions:
REMARK  status: ('A' for Active; 'I' for Inactive)
REMARK    1  A    between atoms: C_2  and  C_3
REMARK    2  A    between atoms: C_2  and  C_26
REMARK    3  A    between atoms: C_3  and  O_4
REMARK    4  A    between atoms: O_4  and  C_5
REMARK    5  A    between atoms: C_8  and  C_9
REMARK    6  A    between atoms: C_15  and  C_16
REMARK                            x       y       z     vdW  Elec       q    Type
REMARK                         _______ _______ _______ _____ _____    ______ ____
ROOT
ATOM      1  C   UNL     1       1.359   9.414  20.140  0.00  0.00    +0.000 A 
ATOM      2  C   UNL     1       1.779   8.865  18.929  0.00  0.00    +0.000 A 
ATOM      3  C   UNL     1       1.940   7.486  18.796  0.00  0.00    +0.000 A 
ATOM      4  C   UNL     1       1.707   6.647  19.889  0.00  0.00    +0.000 A 
ATOM      5  C   UNL     1       1.285   7.199  21.105  0.00  0.00    +0.000 A 
ATOM      6  C   UNL     1       1.118   8.582  21.233  0.00  0.00    +0.000 A 
ENDROOT
BRANCH   4   7
ATOM      7  C   UNL     1       1.929   5.198  19.758  0.00  0.00    +0.000 A 
ATOM      8  C   UNL     1       1.231   4.376  20.577  0.00  0.00    +0.000 A 
ATOM      9  C   UNL     1       1.411   2.931  20.561  0.00  0.00    +0.000 A 
ATOM     10  C   UNL     1       2.302   2.397  19.710  0.00  0.00    +0.000 A 
ATOM     11  N   UNL     1       3.012   3.240  18.860  0.00  0.00    +0.000 N 
ATOM     12  C   UNL     1       3.954   2.924  17.915  0.00  0.00    +0.000 A 
ATOM     13  C   UNL     1       4.334   4.125  17.353  0.00  0.00    +0.000 A 
ATOM     14  N   UNL     1       3.652   5.168  17.936  0.00  0.00    +0.000 NA
ATOM     15  C   UNL     1       2.865   4.620  18.839  0.00  0.00    +0.000 A 
BRANCH  13  16
ATOM     16  C   UNL     1       5.333   4.324  16.316  0.00  0.00    +0.000 A 
ATOM     17  C   UNL     1       6.539   4.993  16.566  0.00  0.00    +0.000 A 
ATOM     18  C   UNL     1       7.455   5.212  15.535  0.00  0.00    +0.000 A 
ATOM     19  C   UNL     1       7.182   4.757  14.247  0.00  0.00    +0.000 A 
ATOM     20  C   UNL     1       5.999   4.069  13.990  0.00  0.00    +0.000 A 
ATOM     21  C   UNL     1       5.082   3.852  15.019  0.00  0.00    +0.000 A 
ENDBRANCH  13  16
ENDBRANCH   4   7
BRANCH   1  22
ATOM     22  O   UNL     1       1.250  10.774  20.133  0.00  0.00    +0.000 OA
BRANCH  22  23
ATOM     23  C   UNL     1       0.907  11.377  18.893  0.00  0.00    +0.000 C 
BRANCH  23  25
ATOM     24  O   UNL     1      -0.477  13.290  19.508  0.00  0.00    +0.000 OA
ATOM     25  C   UNL     1      -0.399  12.155  19.044  0.00  0.00    +0.000 C 
BRANCH  25  26
ATOM     26  C   UNL     1      -1.639  11.506  18.539  0.00  0.00    +0.000 A 
ATOM     27  C   UNL     1      -1.527  10.362  17.742  0.00  0.00    +0.000 A 
ATOM     28  C   UNL     1      -2.676   9.730  17.263  0.00  0.00    +0.000 A 
ATOM     29  C   UNL     1      -3.932  10.247  17.569  0.00  0.00    +0.000 A 
ATOM     30  C   UNL     1      -4.050  11.391  18.356  0.00  0.00    +0.000 A 
ATOM     31  C   UNL     1      -2.906  12.023  18.843  0.00  0.00    +0.000 A 
ENDBRANCH  25  26
ENDBRANCH  23  25
ENDBRANCH  22  23
ENDBRANCH   1  22
TORSDOF 6
ENDMDL
MODEL 8
REMARK VINA RESULT:      -8.6      3.854      8.996
REMARK  Name = 
REMARK  6 active torsions:
REMARK  status: ('A' for Active; 'I' for Inactive)
REMARK    1  A    between atoms: C_2  and  C_3
REMARK    2  A    between atoms: C_2  and  C_26
REMARK    3  A    between atoms: C_3  and  O_4
REMARK    4  A    between atoms: O_4  and  C_5
REMARK    5  A    between atoms: C_8  and  C_9
REMARK    6  A    between atoms: C_15  and  C_16
REMARK                            x       y       z     vdW  Elec       q    Type
REMARK                         _______ _______ _______ _____ _____    ______ ____
ROOT
ATOM      1  C   UNL     1       2.966   7.114  18.880  0.00  0.00    +0.000 A 
ATOM      2  C   UNL     1       2.865   7.922  17.749  0.00  0.00    +0.000 A 
ATOM      3  C   UNL     1       1.997   9.014  17.735  0.00  0.00    +0.000 A 
ATOM      4  C   UNL     1       1.201   9.288  18.850  0.00  0.00    +0.000 A 
ATOM      5  C   UNL     1       1.302   8.475  19.987  0.00  0.00    +0.000 A 
ATOM      6  C   UNL     1       2.178   7.385  20.000  0.00  0.00    +0.000 A 
ENDROOT
BRANCH   4   7
ATOM      7  C   UNL     1       0.249  10.410  18.811  0.00  0.00    +0.000 A 
ATOM      8  C   UNL     1      -1.066  10.118  18.674  0.00  0.00    +0.000 A 
ATOM      9  C   UNL     1      -2.084  11.154  18.576  0.00  0.00    +0.000 A 
ATOM     10  C   UNL     1      -1.705  12.442  18.618  0.00  0.00    +0.000 A 
ATOM     11  N   UNL     1      -0.355  12.744  18.769  0.00  0.00    +0.000 N 
ATOM     12  C   UNL     1       0.256  13.969  18.845  0.00  0.00    +0.000 A 
ATOM     13  C   UNL     1       1.601  13.704  19.000  0.00  0.00    +0.000 A 
ATOM     14  N   UNL     1       1.827  12.348  19.014  0.00  0.00    +0.000 NA
ATOM     15  C   UNL     1       0.644  11.786  18.873  0.00  0.00    +0.000 A 
BRANCH  13  16
ATOM     16  C   UNL     1       2.674  14.680  19.102  0.00  0.00    +0.000 A 
ATOM     17  C   UNL     1       3.264  15.008  20.330  0.00  0.00    +0.000 A 
ATOM     18  C   UNL     1       4.258  15.987  20.400  0.00  0.00    +0.000 A 
ATOM     19  C   UNL     1       4.680  16.641  19.245  0.00  0.00    +0.000 A 
ATOM     20  C   UNL     1       4.120  16.307  18.014  0.00  0.00    +0.000 A 
ATOM     21  C   UNL     1       3.125  15.331  17.944  0.00  0.00    +0.000 A 
ENDBRANCH  13  16
ENDBRANCH   4   7
BRANCH   1  22
ATOM     22  O   UNL     1       3.845   6.078  18.756  0.00  0.00    +0.000 OA
BRANCH  22  23
ATOM     23  C   UNL     1       3.765   5.319  17.557  0.00  0.00    +0.000 C 
BRANCH  23  25
ATOM     24  O   UNL     1       4.142   2.926  17.271  0.00  0.00    +0.000 OA
ATOM     25  C   UNL     1       3.607   3.838  17.897  0.00  0.00    +0.000 C 
BRANCH  25  26
ATOM     26  C   UNL     1       2.799   3.499  19.099  0.00  0.00    +0.000 A 
ATOM     27  C   UNL     1       3.443   2.953  20.214  0.00  0.00    +0.000 A 
ATOM     28  C   UNL     1       2.708   2.635  21.357  0.00  0.00    +0.000 A 
ATOM     29  C   UNL     1       1.333   2.850  21.382  0.00  0.00    +0.000 A 
ATOM     30  C   UNL     1       0.684   3.387  20.272  0.00  0.00    +0.000 A 
ATOM     31  C   UNL     1       1.414   3.713  19.128  0.00  0.00    +0.000 A 
ENDBRANCH  25  26
ENDBRANCH  23  25
ENDBRANCH  22  23
ENDBRANCH   1  22
TORSDOF 6
ENDMDL
MODEL 9
REMARK VINA RESULT:      -8.6      3.774      9.267
REMARK  Name = 
REMARK  6 active torsions:
REMARK  status: ('A' for Active; 'I' for Inactive)
REMARK    1  A    between atoms: C_2  and  C_3
REMARK    2  A    between atoms: C_2  and  C_26
REMARK    3  A    between atoms: C_3  and  O_4
REMARK    4  A    between atoms: O_4  and  C_5
REMARK    5  A    between atoms: C_8  and  C_9
REMARK    6  A    between atoms: C_15  and  C_16
REMARK                            x       y       z     vdW  Elec       q    Type
REMARK                         _______ _______ _______ _____ _____    ______ ____
ROOT
ATOM      1  C   UNL     1       2.383   7.277  18.495  0.00  0.00    +0.000 A 
ATOM      2  C   UNL     1       2.192   7.098  19.865  0.00  0.00    +0.000 A 
ATOM      3  C   UNL     1       1.568   8.086  20.627  0.00  0.00    +0.000 A 
ATOM      4  C   UNL     1       1.154   9.277  20.023  0.00  0.00    +0.000 A 
ATOM      5  C   UNL     1       1.347   9.456  18.647  0.00  0.00    +0.000 A 
ATOM      6  C   UNL     1       1.967   8.460  17.885  0.00  0.00    +0.000 A 
ENDROOT
BRANCH   4   7
ATOM      7  C   UNL     1       0.543  10.337  20.841  0.00  0.00    +0.000 A 
ATOM      8  C   UNL     1      -0.265   9.960  21.860  0.00  0.00    +0.000 A 
ATOM      9  C   UNL     1      -0.956  10.929  22.699  0.00  0.00    +0.000 A 
ATOM     10  C   UNL     1      -0.789  12.239  22.451  0.00  0.00    +0.000 A 
ATOM     11  N   UNL     1       0.050  12.627  21.411  0.00  0.00    +0.000 N 
ATOM     12  C   UNL     1       0.374  13.889  20.984  0.00  0.00    +0.000 A 
ATOM     13  C   UNL     1       1.245  13.712  19.929  0.00  0.00    +0.000 A 
ATOM     14  N   UNL     1       1.457  12.373  19.697  0.00  0.00    +0.000 NA
ATOM     15  C   UNL     1       0.731  11.736  20.593  0.00  0.00    +0.000 A 
BRANCH  13  16
ATOM     16  C   UNL     1       1.855  14.754  19.120  0.00  0.00    +0.000 A 
ATOM     17  C   UNL     1       1.377  16.072  19.123  0.00  0.00    +0.000 A 
ATOM     18  C   UNL     1       1.954  17.037  18.295  0.00  0.00    +0.000 A 
ATOM     19  C   UNL     1       3.020  16.701  17.464  0.00  0.00    +0.000 A 
ATOM     20  C   UNL     1       3.521  15.402  17.469  0.00  0.00    +0.000 A 
ATOM     21  C   UNL     1       2.944  14.436  18.294  0.00  0.00    +0.000 A 
ENDBRANCH  13  16
ENDBRANCH   4   7
BRANCH   1  22
ATOM     22  O   UNL     1       3.011   6.237  17.874  0.00  0.00    +0.000 OA
BRANCH  22  23
ATOM     23  C   UNL     1       2.560   4.932  18.210  0.00  0.00    +0.000 C 
BRANCH  23  25
ATOM     24  O   UNL     1       3.781   3.158  19.357  0.00  0.00    +0.000 OA
ATOM     25  C   UNL     1       3.760   4.030  18.490  0.00  0.00    +0.000 C 
BRANCH  25  26
ATOM     26  C   UNL     1       4.951   4.190  17.612  0.00  0.00    +0.000 A 
ATOM     27  C   UNL     1       4.822   3.932  16.244  0.00  0.00    +0.000 A 
ATOM     28  C   UNL     1       5.921   4.084  15.398  0.00  0.00    +0.000 A 
ATOM     29  C   UNL     1       7.150   4.480  15.920  0.00  0.00    +0.000 A 
ATOM     30  C   UNL     1       7.287   4.732  17.283  0.00  0.00    +0.000 A 
ATOM     31  C   UNL     1       6.190   4.588  18.133  0.00  0.00    +0.000 A 
ENDBRANCH  25  26
ENDBRANCH  23  25
ENDBRANCH  22  23
ENDBRANCH   1  22
TORSDOF 6
ENDMDL
