MODEL 1
REMARK VINA RESULT:      -8.3      0.000      0.000
REMARK  Name = 
REMARK  6 active torsions:
REMARK  status: ('A' for Active; 'I' for Inactive)
REMARK    1  A    between atoms: N_1  and  S_2
REMARK    2  A    between atoms: S_2  and  C_5
REMARK    3  A    between atoms: C_9  and  N_10
REMARK    4  A    between atoms: C_11  and  C_13
REMARK    5  A    between atoms: C_16  and  S_17
REMARK    6  A    between atoms: S_17  and  N_20
REMARK                            x       y       z     vdW  Elec       q    Type
REMARK                         _______ _______ _______ _____ _____    ______ ____
ROOT
ATOM      1  N   UNL     1       2.856   7.158  18.483  0.00  0.00    +0.000 N 
ATOM      2  C   UNL     1       2.192   7.175  19.698  0.00  0.00    +0.000 C 
ATOM      3  O   UNL     1       2.148   6.253  20.508  0.00  0.00    +0.000 OA
ATOM      4  H   UNL     1       2.899   8.008  17.940  0.00  0.00    +0.000 HD
ENDROOT
BRANCH   1   9
ATOM      5  C   UNL     1       5.478   5.079  16.907  0.00  0.00    +0.000 A 
ATOM      6  C   UNL     1       4.833   3.856  16.722  0.00  0.00    +0.000 A 
ATOM      7  C   UNL     1       3.507   3.723  17.124  0.00  0.00    +0.000 A 
ATOM      8  C   UNL     1       2.844   4.802  17.712  0.00  0.00    +0.000 A 
ATOM      9  C   UNL     1       3.489   6.031  17.903  0.00  0.00    +0.000 A 
ATOM     10  C   UNL     1       4.815   6.172  17.481  0.00  0.00    +0.000 A 
BRANCH   5  11
ATOM     11  S   UNL     1       7.170   5.238  16.429  0.00  0.00    +0.000 S 
ATOM     12  O   UNL     1       7.615   6.572  16.756  0.00  0.00    +0.000 OA
ATOM     13  O   UNL     1       7.363   4.647  15.127  0.00  0.00    +0.000 OA
BRANCH  11  14
ATOM     14  N   UNL     1       7.936   4.201  17.506  0.00  0.00    +0.000 NA
ATOM     15  H   UNL     1       8.907   4.495  17.621  0.00  0.00    +0.000 HD
ATOM     16  H   UNL     1       7.840   3.236  17.187  0.00  0.00    +0.000 HD
ENDBRANCH  11  14
ENDBRANCH   5  11
ENDBRANCH   1   9
BRANCH   2  17
ATOM     17  C   UNL     1       1.460   8.428  20.052  0.00  0.00    +0.000 A 
ATOM     18  C   UNL     1       1.123   8.598  21.408  0.00  0.00    +0.000 A 
ATOM     19  C   UNL     1       0.455   9.743  21.837  0.00  0.00    +0.000 A 
ATOM     20  C   UNL     1       0.134  10.738  20.913  0.00  0.00    +0.000 A 
ATOM     21  C   UNL     1       0.439  10.571  19.556  0.00  0.00    +0.000 A 
ATOM     22  C   UNL     1       1.118   9.422  19.128  0.00  0.00    +0.000 A 
BRANCH  20  23
ATOM     23  S   UNL     1      -0.717  12.205  21.478  0.00  0.00    +0.000 S 
ATOM     24  O   UNL     1      -2.062  12.150  20.951  0.00  0.00    +0.000 OA
ATOM     25  O   UNL     1      -0.475  12.318  22.903  0.00  0.00    +0.000 OA
BRANCH  23  26
ATOM     26  N   UNL     1       0.131  13.458  20.677  0.00  0.00    +0.000 NA
ATOM     27  C   UNL     1      -0.671  14.623  20.240  0.00  0.00    +0.000 C 
ATOM     28  C   UNL     1      -0.218  15.131  18.873  0.00  0.00    +0.000 C 
ATOM     29  C   UNL     1       0.974  16.078  18.927  0.00  0.00    +0.000 C 
ATOM     30  C   UNL     1       2.245  15.443  19.472  0.00  0.00    +0.000 C 
ATOM     31  C   UNL     1       2.118  15.046  20.937  0.00  0.00    +0.000 C 
ATOM     32  C   UNL     1       1.520  13.665  21.152  0.00  0.00    +0.000 C 
ENDBRANCH  23  26
ENDBRANCH  20  23
ENDBRANCH   2  17
TORSDOF 6
ENDMDL
MODEL 2
REMARK VINA RESULT:      -8.3      2.594      3.608
REMARK  Name = 
REMARK  6 active torsions:
REMARK  status: ('A' for Active; 'I' for Inactive)
REMARK    1  A    between atoms: N_1  and  S_2
REMARK    2  A    between atoms: S_2  and  C_5
REMARK    3  A    between atoms: C_9  and  N_10
REMARK    4  A    between atoms: C_11  and  C_13
REMARK    5  A    between atoms: C_16  and  S_17
REMARK    6  A    between atoms: S_17  and  N_20
REMARK                            x       y       z     vdW  Elec       q    Type
REMARK                         _______ _______ _______ _____ _____    ______ ____
ROOT
ATOM      1  N   UNL     1       2.685   7.482  18.285  0.00  0.00    +0.000 N 
ATOM      2  C   UNL     1       2.062   7.641  19.512  0.00  0.00    +0.000 C 
ATOM      3  O   UNL     1       2.118   6.857  20.454  0.00  0.00    +0.000 OA
ATOM      4  H   UNL     1       2.643   8.237  17.616  0.00  0.00    +0.000 HD
ENDROOT
BRANCH   1   9
ATOM      5  C   UNL     1       5.458   5.357  17.070  0.00  0.00    +0.000 A 
ATOM      6  C   UNL     1       4.864   4.098  16.978  0.00  0.00    +0.000 A 
ATOM      7  C   UNL     1       3.523   3.956  17.321  0.00  0.00    +0.000 A 
ATOM      8  C   UNL     1       2.793   5.063  17.760  0.00  0.00    +0.000 A 
ATOM      9  C   UNL     1       3.386   6.328  17.858  0.00  0.00    +0.000 A 
ATOM     10  C   UNL     1       4.728   6.476  17.494  0.00  0.00    +0.000 A 
BRANCH   5  11
ATOM     11  S   UNL     1       7.168   5.532  16.668  0.00  0.00    +0.000 S 
ATOM     12  O   UNL     1       7.896   4.446  17.282  0.00  0.00    +0.000 OA
ATOM     13  O   UNL     1       7.560   6.913  16.808  0.00  0.00    +0.000 OA
BRANCH  11  14
ATOM     14  N   UNL     1       7.170   5.234  15.015  0.00  0.00    +0.000 NA
ATOM     15  H   UNL     1       6.227   4.979  14.718  0.00  0.00    +0.000 HD
ATOM     16  H   UNL     1       7.871   4.525  14.790  0.00  0.00    +0.000 HD
ENDBRANCH  11  14
ENDBRANCH   5  11
ENDBRANCH   1   9
BRANCH   2  17
ATOM     17  C   UNL     1       1.245   8.877  19.700  0.00  0.00    +0.000 A 
ATOM     18  C   UNL     1       1.293   9.826  18.662  0.00  0.00    +0.000 A 
ATOM     19  C   UNL     1       0.552  11.004  18.740  0.00  0.00    +0.000 A 
ATOM     20  C   UNL     1      -0.259  11.233  19.853  0.00  0.00    +0.000 A 
ATOM     21  C   UNL     1      -0.296  10.310  20.906  0.00  0.00    +0.000 A 
ATOM     22  C   UNL     1       0.445   9.123  20.822  0.00  0.00    +0.000 A 
BRANCH  20  23
ATOM     23  S   UNL     1      -1.211  12.744  19.936  0.00  0.00    +0.000 S 
ATOM     24  O   UNL     1      -1.205  13.178  21.316  0.00  0.00    +0.000 OA
ATOM     25  O   UNL     1      -0.732  13.610  18.877  0.00  0.00    +0.000 OA
BRANCH  23  26
ATOM     26  N   UNL     1      -2.788  12.212  19.539  0.00  0.00    +0.000 NA
ATOM     27  C   UNL     1      -3.910  13.044  20.034  0.00  0.00    +0.000 C 
ATOM     28  C   UNL     1      -5.078  12.181  20.504  0.00  0.00    +0.000 C 
ATOM     29  C   UNL     1      -6.012  11.737  19.386  0.00  0.00    +0.000 C 
ATOM     30  C   UNL     1      -5.351  10.843  18.347  0.00  0.00    +0.000 C 
ATOM     31  C   UNL     1      -4.269  11.568  17.556  0.00  0.00    +0.000 C 
ATOM     32  C   UNL     1      -2.902  11.545  18.220  0.00  0.00    +0.000 C 
ENDBRANCH  23  26
ENDBRANCH  20  23
ENDBRANCH   2  17
TORSDOF 6
ENDMDL
MODEL 3
REMARK VINA RESULT:      -8.3      2.365      3.378
REMARK  Name = 
REMARK  6 active torsions:
REMARK  status: ('A' for Active; 'I' for Inactive)
REMARK    1  A    between atoms: N_1  and  S_2
REMARK    2  A    between atoms: S_2  and  C_5
REMARK    3  A    between atoms: C_9  and  N_10
REMARK    4  A    between atoms: C_11  and  C_13
REMARK    5  A    between atoms: C_16  and  S_17
REMARK    6  A    between atoms: S_17  and  N_20
REMARK                            x       y       z     vdW  Elec       q    Type
REMARK                         _______ _______ _______ _____ _____    ______ ____
ROOT
ATOM      1  N   UNL     1       2.679   7.115  18.206  0.00  0.00    +0.000 N 
ATOM      2  C   UNL     1       2.257   7.328  19.508  0.00  0.00    +0.000 C 
ATOM      3  O   UNL     1       2.527   6.624  20.477  0.00  0.00    +0.000 OA
ATOM      4  H   UNL     1       2.470   7.812  17.507  0.00  0.00    +0.000 HD
ENDROOT
BRANCH   1   9
ATOM      5  C   UNL     1       5.453   5.047  16.898  0.00  0.00    +0.000 A 
ATOM      6  C   UNL     1       4.871   3.783  16.789  0.00  0.00    +0.000 A 
ATOM      7  C   UNL     1       3.538   3.619  17.153  0.00  0.00    +0.000 A 
ATOM      8  C   UNL     1       2.804   4.708  17.628  0.00  0.00    +0.000 A 
ATOM      9  C   UNL     1       3.385   5.978  17.742  0.00  0.00    +0.000 A 
ATOM     10  C   UNL     1       4.719   6.149  17.358  0.00  0.00    +0.000 A 
BRANCH   5  11
ATOM     11  S   UNL     1       7.153   5.249  16.470  0.00  0.00    +0.000 S 
ATOM     12  O   UNL     1       7.548   6.602  16.787  0.00  0.00    +0.000 OA
ATOM     13  O   UNL     1       7.405   4.642  15.186  0.00  0.00    +0.000 OA
BRANCH  11  14
ATOM     14  N   UNL     1       7.916   4.255  17.589  0.00  0.00    +0.000 NA
ATOM     15  H   UNL     1       8.647   3.719  17.119  0.00  0.00    +0.000 HD
ATOM     16  H   UNL     1       7.226   3.670  18.062  0.00  0.00    +0.000 HD
ENDBRANCH  11  14
ENDBRANCH   5  11
ENDBRANCH   1   9
BRANCH   2  17
ATOM     17  C   UNL     1       1.392   8.521  19.752  0.00  0.00    +0.000 A 
ATOM     18  C   UNL     1       1.407   9.521  18.762  0.00  0.00    +0.000 A 
ATOM     19  C   UNL     1       0.620  10.663  18.892  0.00  0.00    +0.000 A 
ATOM     20  C   UNL     1      -0.204  10.807  20.010  0.00  0.00    +0.000 A 
ATOM     21  C   UNL     1      -0.208   9.833  21.017  0.00  0.00    +0.000 A 
ATOM     22  C   UNL     1       0.578   8.680  20.879  0.00  0.00    +0.000 A 
BRANCH  20  23
ATOM     23  S   UNL     1      -1.213  12.274  20.162  0.00  0.00    +0.000 S 
ATOM     24  O   UNL     1      -1.789  12.262  21.488  0.00  0.00    +0.000 OA
ATOM     25  O   UNL     1      -0.414  13.393  19.702  0.00  0.00    +0.000 OA
BRANCH  23  26
ATOM     26  N   UNL     1      -2.459  11.986  19.024  0.00  0.00    +0.000 NA
ATOM     27  C   UNL     1      -2.334  10.759  18.204  0.00  0.00    +0.000 C 
ATOM     28  C   UNL     1      -2.772  11.005  16.762  0.00  0.00    +0.000 C 
ATOM     29  C   UNL     1      -4.276  10.898  16.542  0.00  0.00    +0.000 C 
ATOM     30  C   UNL     1      -5.088  11.933  17.306  0.00  0.00    +0.000 C 
ATOM     31  C   UNL     1      -4.997  11.750  18.816  0.00  0.00    +0.000 C 
ATOM     32  C   UNL     1      -3.803  12.445  19.450  0.00  0.00    +0.000 C 
ENDBRANCH  23  26
ENDBRANCH  20  23
ENDBRANCH   2  17
TORSDOF 6
ENDMDL
MODEL 4
REMARK VINA RESULT:      -8.3      2.970      9.657
REMARK  Name = 
REMARK  6 active torsions:
REMARK  status: ('A' for Active; 'I' for Inactive)
REMARK    1  A    between atoms: N_1  and  S_2
REMARK    2  A    between atoms: S_2  and  C_5
REMARK    3  A    between atoms: C_9  and  N_10
REMARK    4  A    between atoms: C_11  and  C_13
REMARK    5  A    between atoms: C_16  and  S_17
REMARK    6  A    between atoms: S_17  and  N_20
REMARK                            x       y       z     vdW  Elec       q    Type
REMARK                         _______ _______ _______ _____ _____    ______ ____
ROOT
ATOM      1  N   UNL     1       0.178   9.455  20.708  0.00  0.00    +0.000 N 
ATOM      2  C   UNL     1       1.217   8.702  21.229  0.00  0.00    +0.000 C 
ATOM      3  O   UNL     1       1.803   8.917  22.286  0.00  0.00    +0.000 OA
ATOM      4  H   UNL     1      -0.289   9.130  19.875  0.00  0.00    +0.000 HD
ENDROOT
BRANCH   1   9
ATOM      5  C   UNL     1      -0.587  13.066  20.957  0.00  0.00    +0.000 A 
ATOM      6  C   UNL     1      -1.200  13.166  22.206  0.00  0.00    +0.000 A 
ATOM      7  C   UNL     1      -1.358  12.017  22.976  0.00  0.00    +0.000 A 
ATOM      8  C   UNL     1      -0.913  10.786  22.492  0.00  0.00    +0.000 A 
ATOM      9  C   UNL     1      -0.300  10.679  21.237  0.00  0.00    +0.000 A 
ATOM     10  C   UNL     1      -0.123  11.836  20.471  0.00  0.00    +0.000 A 
BRANCH   5  11
ATOM     11  S   UNL     1      -0.417  14.516  19.965  0.00  0.00    +0.000 S 
ATOM     12  O   UNL     1       0.958  14.953  20.024  0.00  0.00    +0.000 OA
ATOM     13  O   UNL     1      -1.530  15.401  20.207  0.00  0.00    +0.000 OA
BRANCH  11  14
ATOM     14  N   UNL     1      -0.659  13.910  18.417  0.00  0.00    +0.000 NA
ATOM     15  H   UNL     1      -0.643  12.890  18.449  0.00  0.00    +0.000 HD
ATOM     16  H   UNL     1       0.031  14.307  17.776  0.00  0.00    +0.000 HD
ENDBRANCH  11  14
ENDBRANCH   5  11
ENDBRANCH   1   9
BRANCH   2  17
ATOM     17  C   UNL     1       1.665   7.523  20.429  0.00  0.00    +0.000 A 
ATOM     18  C   UNL     1       1.515   6.260  21.033  0.00  0.00    +0.000 A 
ATOM     19  C   UNL     1       1.888   5.100  20.357  0.00  0.00    +0.000 A 
ATOM     20  C   UNL     1       2.400   5.193  19.062  0.00  0.00    +0.000 A 
ATOM     21  C   UNL     1       2.580   6.444  18.459  0.00  0.00    +0.000 A 
ATOM     22  C   UNL     1       2.196   7.610  19.137  0.00  0.00    +0.000 A 
BRANCH  20  23
ATOM     23  S   UNL     1       2.868   3.696  18.205  0.00  0.00    +0.000 S 
ATOM     24  O   UNL     1       2.862   2.626  19.177  0.00  0.00    +0.000 OA
ATOM     25  O   UNL     1       2.062   3.621  17.003  0.00  0.00    +0.000 OA
BRANCH  23  26
ATOM     26  N   UNL     1       4.489   4.016  17.758  0.00  0.00    +0.000 NA
ATOM     27  C   UNL     1       4.706   4.538  16.388  0.00  0.00    +0.000 C 
ATOM     28  C   UNL     1       5.955   3.933  15.753  0.00  0.00    +0.000 C 
ATOM     29  C   UNL     1       7.251   4.637  16.135  0.00  0.00    +0.000 C 
ATOM     30  C   UNL     1       7.578   4.565  17.619  0.00  0.00    +0.000 C 
ATOM     31  C   UNL     1       6.570   5.318  18.478  0.00  0.00    +0.000 C 
ATOM     32  C   UNL     1       5.353   4.492  18.865  0.00  0.00    +0.000 C 
ENDBRANCH  23  26
ENDBRANCH  20  23
ENDBRANCH   2  17
TORSDOF 6
ENDMDL
MODEL 5
REMARK VINA RESULT:      -8.3      0.735      1.277
REMARK  Name = 
REMARK  6 active torsions:
REMARK  status: ('A' for Active; 'I' for Inactive)
REMARK    1  A    between atoms: N_1  and  S_2
REMARK    2  A    between atoms: S_2  and  C_5
REMARK    3  A    between atoms: C_9  and  N_10
REMARK    4  A    between atoms: C_11  and  C_13
REMARK    5  A    between atoms: C_16  and  S_17
REMARK    6  A    between atoms: S_17  and  N_20
REMARK                            x       y       z     vdW  Elec       q    Type
REMARK                         _______ _______ _______ _____ _____    ______ ____
ROOT
ATOM      1  N   UNL     1       2.849   7.063  18.810  0.00  0.00    +0.000 N 
ATOM      2  C   UNL     1       2.112   7.003  19.981  0.00  0.00    +0.000 C 
ATOM      3  O   UNL     1       1.950   6.008  20.680  0.00  0.00    +0.000 OA
ATOM      4  H   UNL     1       2.988   7.959  18.367  0.00  0.00    +0.000 HD
ENDROOT
BRANCH   1   9
ATOM      5  C   UNL     1       5.420   4.939  17.209  0.00  0.00    +0.000 A 
ATOM      6  C   UNL     1       4.690   3.817  16.812  0.00  0.00    +0.000 A 
ATOM      7  C   UNL     1       3.325   3.770  17.078  0.00  0.00    +0.000 A 
ATOM      8  C   UNL     1       2.706   4.831  17.742  0.00  0.00    +0.000 A 
ATOM      9  C   UNL     1       3.435   5.957  18.146  0.00  0.00    +0.000 A 
ATOM     10  C   UNL     1       4.802   6.015  17.861  0.00  0.00    +0.000 A 
BRANCH   5  11
ATOM     11  S   UNL     1       7.158   4.985  16.904  0.00  0.00    +0.000 S 
ATOM     12  O   UNL     1       7.399   4.517  15.558  0.00  0.00    +0.000 OA
ATOM     13  O   UNL     1       7.865   4.468  18.049  0.00  0.00    +0.000 OA
BRANCH  11  14
ATOM     14  N   UNL     1       7.468   6.636  16.897  0.00  0.00    +0.000 NA
ATOM     15  H   UNL     1       8.096   6.862  17.669  0.00  0.00    +0.000 HD
ATOM     16  H   UNL     1       6.589   7.155  16.924  0.00  0.00    +0.000 HD
ENDBRANCH  11  14
ENDBRANCH   5  11
ENDBRANCH   1   9
BRANCH   2  17
ATOM     17  C   UNL     1       1.453   8.266  20.430  0.00  0.00    +0.000 A 
ATOM     18  C   UNL     1       1.093   9.180  19.421  0.00  0.00    +0.000 A 
ATOM     19  C   UNL     1       0.457  10.378  19.740  0.00  0.00    +0.000 A 
ATOM     20  C   UNL     1       0.160  10.665  21.074  0.00  0.00    +0.000 A 
ATOM     21  C   UNL     1       0.536   9.778  22.090  0.00  0.00    +0.000 A 
ATOM     22  C   UNL     1       1.169   8.569  21.766  0.00  0.00    +0.000 A 
BRANCH  20  23
ATOM     23  S   UNL     1      -0.661  12.202  21.468  0.00  0.00    +0.000 S 
ATOM     24  O   UNL     1      -1.992  12.133  20.906  0.00  0.00    +0.000 OA
ATOM     25  O   UNL     1      -0.457  12.446  22.882  0.00  0.00    +0.000 OA
BRANCH  23  26
ATOM     26  N   UNL     1       0.247  13.348  20.578  0.00  0.00    +0.000 NA
ATOM     27  C   UNL     1      -0.446  14.608  20.223  0.00  0.00    +0.000 C 
ATOM     28  C   UNL     1      -0.079  15.068  18.815  0.00  0.00    +0.000 C 
ATOM     29  C   UNL     1       1.221  15.860  18.739  0.00  0.00    +0.000 C 
ATOM     30  C   UNL     1       2.453  15.067  19.149  0.00  0.00    +0.000 C 
ATOM     31  C   UNL     1       2.432  14.675  20.621  0.00  0.00    +0.000 C 
ATOM     32  C   UNL     1       1.693  13.377  20.902  0.00  0.00    +0.000 C 
ENDBRANCH  23  26
ENDBRANCH  20  23
ENDBRANCH   2  17
TORSDOF 6
ENDMDL
MODEL 6
REMARK VINA RESULT:      -8.2      1.103      1.427
REMARK  Name = 
REMARK  6 active torsions:
REMARK  status: ('A' for Active; 'I' for Inactive)
REMARK    1  A    between atoms: N_1  and  S_2
REMARK    2  A    between atoms: S_2  and  C_5
REMARK    3  A    between atoms: C_9  and  N_10
REMARK    4  A    between atoms: C_11  and  C_13
REMARK    5  A    between atoms: C_16  and  S_17
REMARK    6  A    between atoms: S_17  and  N_20
REMARK                            x       y       z     vdW  Elec       q    Type
REMARK                         _______ _______ _______ _____ _____    ______ ____
ROOT
ATOM      1  N   UNL     1       2.515   6.915  18.766  0.00  0.00    +0.000 N 
ATOM      2  C   UNL     1       2.232   8.163  18.236  0.00  0.00    +0.000 C 
ATOM      3  O   UNL     1       2.537   8.554  17.114  0.00  0.00    +0.000 OA
ATOM      4  H   UNL     1       2.133   6.671  19.668  0.00  0.00    +0.000 HD
ENDROOT
BRANCH   1   9
ATOM      5  C   UNL     1       5.496   5.261  17.332  0.00  0.00    +0.000 A 
ATOM      6  C   UNL     1       4.998   4.020  16.931  0.00  0.00    +0.000 A 
ATOM      7  C   UNL     1       3.652   3.732  17.139  0.00  0.00    +0.000 A 
ATOM      8  C   UNL     1       2.823   4.676  17.748  0.00  0.00    +0.000 A 
ATOM      9  C   UNL     1       3.319   5.921  18.156  0.00  0.00    +0.000 A 
ATOM     10  C   UNL     1       4.666   6.219  17.929  0.00  0.00    +0.000 A 
BRANCH   5  11
ATOM     11  S   UNL     1       7.210   5.613  17.101  0.00  0.00    +0.000 S 
ATOM     12  O   UNL     1       7.615   6.588  18.087  0.00  0.00    +0.000 OA
ATOM     13  O   UNL     1       7.488   5.764  15.693  0.00  0.00    +0.000 OA
BRANCH  11  14
ATOM     14  N   UNL     1       7.929   4.161  17.543  0.00  0.00    +0.000 NA
ATOM     15  H   UNL     1       8.472   4.301  18.395  0.00  0.00    +0.000 HD
ATOM     16  H   UNL     1       8.481   3.795  16.765  0.00  0.00    +0.000 HD
ENDBRANCH  11  14
ENDBRANCH   5  11
ENDBRANCH   1   9
BRANCH   2  17
ATOM     17  C   UNL     1       1.491   9.118  19.113  0.00  0.00    +0.000 A 
ATOM     18  C   UNL     1       1.197  10.379  18.562  0.00  0.00    +0.000 A 
ATOM     19  C   UNL     1       0.494  11.331  19.298  0.00  0.00    +0.000 A 
ATOM     20  C   UNL     1       0.064  11.021  20.589  0.00  0.00    +0.000 A 
ATOM     21  C   UNL     1       0.373   9.781  21.161  0.00  0.00    +0.000 A 
ATOM     22  C   UNL     1       1.073   8.821  20.416  0.00  0.00    +0.000 A 
BRANCH  20  23
ATOM     23  S   UNL     1      -0.843  12.249  21.519  0.00  0.00    +0.000 S 
ATOM     24  O   UNL     1      -2.222  12.180  21.089  0.00  0.00    +0.000 OA
ATOM     25  O   UNL     1      -0.484  12.081  22.914  0.00  0.00    +0.000 OA
BRANCH  23  26
ATOM     26  N   UNL     1      -0.168  13.717  20.953  0.00  0.00    +0.000 NA
ATOM     27  C   UNL     1      -1.060  14.589  20.155  0.00  0.00    +0.000 C 
ATOM     28  C   UNL     1      -0.312  15.238  18.993  0.00  0.00    +0.000 C 
ATOM     29  C   UNL     1       0.447  16.503  19.372  0.00  0.00    +0.000 C 
ATOM     30  C   UNL     1       1.559  16.277  20.385  0.00  0.00    +0.000 C 
ATOM     31  C   UNL     1       1.033  15.832  21.743  0.00  0.00    +0.000 C 
ATOM     32  C   UNL     1       0.829  14.330  21.863  0.00  0.00    +0.000 C 
ENDBRANCH  23  26
ENDBRANCH  20  23
ENDBRANCH   2  17
TORSDOF 6
ENDMDL
MODEL 7
REMARK VINA RESULT:      -8.2      2.459      3.456
REMARK  Name = 
REMARK  6 active torsions:
REMARK  status: ('A' for Active; 'I' for Inactive)
REMARK    1  A    between atoms: N_1  and  S_2
REMARK    2  A    between atoms: S_2  and  C_5
REMARK    3  A    between atoms: C_9  and  N_10
REMARK    4  A    between atoms: C_11  and  C_13
REMARK    5  A    between atoms: C_16  and  S_17
REMARK    6  A    between atoms: S_17  and  N_20
REMARK                            x       y       z     vdW  Elec       q    Type
REMARK                         _______ _______ _______ _____ _____    ______ ____
ROOT
ATOM      1  N   UNL     1       2.732   7.326  18.278  0.00  0.00    +0.000 N 
ATOM      2  C   UNL     1       2.084   7.542  19.483  0.00  0.00    +0.000 C 
ATOM      3  O   UNL     1       2.055   6.766  20.434  0.00  0.00    +0.000 OA
ATOM      4  H   UNL     1       2.764   8.075  17.602  0.00  0.00    +0.000 HD
ENDROOT
BRANCH   1   9
ATOM      5  C   UNL     1       5.393   4.984  17.222  0.00  0.00    +0.000 A 
ATOM      6  C   UNL     1       4.704   3.780  17.073  0.00  0.00    +0.000 A 
ATOM      7  C   UNL     1       3.335   3.749  17.325  0.00  0.00    +0.000 A 
ATOM      8  C   UNL     1       2.673   4.910  17.728  0.00  0.00    +0.000 A 
ATOM      9  C   UNL     1       3.361   6.120  17.883  0.00  0.00    +0.000 A 
ATOM     10  C   UNL     1       4.732   6.157  17.611  0.00  0.00    +0.000 A 
BRANCH   5  11
ATOM     11  S   UNL     1       7.135   5.017  16.937  0.00  0.00    +0.000 S 
ATOM     12  O   UNL     1       7.389   4.538  15.598  0.00  0.00    +0.000 OA
ATOM     13  O   UNL     1       7.825   4.504  18.095  0.00  0.00    +0.000 OA
BRANCH  11  14
ATOM     14  N   UNL     1       7.455   6.666  16.922  0.00  0.00    +0.000 NA
ATOM     15  H   UNL     1       8.029   6.889  16.107  0.00  0.00    +0.000 HD
ATOM     16  H   UNL     1       7.882   6.946  17.807  0.00  0.00    +0.000 HD
ENDBRANCH  11  14
ENDBRANCH   5  11
ENDBRANCH   1   9
BRANCH   2  17
ATOM     17  C   UNL     1       1.353   8.835  19.636  0.00  0.00    +0.000 A 
ATOM     18  C   UNL     1       1.511   9.773  18.598  0.00  0.00    +0.000 A 
ATOM     19  C   UNL     1       0.855  11.001  18.643  0.00  0.00    +0.000 A 
ATOM     20  C   UNL     1       0.019  11.295  19.722  0.00  0.00    +0.000 A 
ATOM     21  C   UNL     1      -0.126  10.383  20.775  0.00  0.00    +0.000 A 
ATOM     22  C   UNL     1       0.529   9.144  20.724  0.00  0.00    +0.000 A 
BRANCH  20  23
ATOM     23  S   UNL     1      -0.822  12.872  19.764  0.00  0.00    +0.000 S 
ATOM     24  O   UNL     1      -0.915  13.271  21.151  0.00  0.00    +0.000 OA
ATOM     25  O   UNL     1      -0.183  13.724  18.780  0.00  0.00    +0.000 OA
BRANCH  23  26
ATOM     26  N   UNL     1      -2.390  12.471  19.206  0.00  0.00    +0.000 NA
ATOM     27  C   UNL     1      -2.512  11.219  18.424  0.00  0.00    +0.000 C 
ATOM     28  C   UNL     1      -3.489  11.380  17.262  0.00  0.00    +0.000 C 
ATOM     29  C   UNL     1      -4.950  11.184  17.647  0.00  0.00    +0.000 C 
ATOM     30  C   UNL     1      -5.469  12.206  18.648  0.00  0.00    +0.000 C 
ATOM     31  C   UNL     1      -4.789  12.092  20.006  0.00  0.00    +0.000 C 
ATOM     32  C   UNL     1      -3.490  12.875  20.113  0.00  0.00    +0.000 C 
ENDBRANCH  23  26
ENDBRANCH  20  23
ENDBRANCH   2  17
TORSDOF 6
ENDMDL
MODEL 8
REMARK VINA RESULT:      -8.2      2.817     10.002
REMARK  Name = 
REMARK  6 active torsions:
REMARK  status: ('A' for Active; 'I' for Inactive)
REMARK    1  A    between atoms: N_1  and  S_2
REMARK    2  A    between atoms: S_2  and  C_5
REMARK    3  A    between atoms: C_9  and  N_10
REMARK    4  A    between atoms: C_11  and  C_13
REMARK    5  A    between atoms: C_16  and  S_17
REMARK    6  A    between atoms: S_17  and  N_20
REMARK                            x       y       z     vdW  Elec       q    Type
REMARK                         _______ _______ _______ _____ _____    ______ ____
ROOT
ATOM      1  N   UNL     1       0.616   9.990  20.409  0.00  0.00    +0.000 N 
ATOM      2  C   UNL     1       1.265   8.999  21.127  0.00  0.00    +0.000 C 
ATOM      3  O   UNL     1       1.530   9.034  22.325  0.00  0.00    +0.000 OA
ATOM      4  H   UNL     1       0.370   9.812  19.446  0.00  0.00    +0.000 HD
ENDROOT
BRANCH   1   9
ATOM      5  C   UNL     1      -1.380  12.671  21.992  0.00  0.00    +0.000 A 
ATOM      6  C   UNL     1      -0.539  13.780  21.896  0.00  0.00    +0.000 A 
ATOM      7  C   UNL     1       0.707  13.634  21.293  0.00  0.00    +0.000 A 
ATOM      8  C   UNL     1       1.103  12.388  20.803  0.00  0.00    +0.000 A 
ATOM      9  C   UNL     1       0.264  11.271  20.901  0.00  0.00    +0.000 A 
ATOM     10  C   UNL     1      -0.996  11.421  21.488  0.00  0.00    +0.000 A 
BRANCH   5  11
ATOM     11  S   UNL     1      -2.946  12.848  22.787  0.00  0.00    +0.000 S 
ATOM     12  O   UNL     1      -3.087  14.218  23.223  0.00  0.00    +0.000 OA
ATOM     13  O   UNL     1      -3.176  11.722  23.660  0.00  0.00    +0.000 OA
BRANCH  11  14
ATOM     14  N   UNL     1      -4.014  12.643  21.506  0.00  0.00    +0.000 NA
ATOM     15  H   UNL     1      -4.540  13.507  21.366  0.00  0.00    +0.000 HD
ATOM     16  H   UNL     1      -4.608  11.830  21.675  0.00  0.00    +0.000 HD
ENDBRANCH  11  14
ENDBRANCH   5  11
ENDBRANCH   1   9
BRANCH   2  17
ATOM     17  C   UNL     1       1.681   7.779  20.372  0.00  0.00    +0.000 A 
ATOM     18  C   UNL     1       1.561   6.551  21.048  0.00  0.00    +0.000 A 
ATOM     19  C   UNL     1       1.909   5.356  20.420  0.00  0.00    +0.000 A 
ATOM     20  C   UNL     1       2.363   5.380  19.101  0.00  0.00    +0.000 A 
ATOM     21  C   UNL     1       2.513   6.598  18.424  0.00  0.00    +0.000 A 
ATOM     22  C   UNL     1       2.155   7.798  19.056  0.00  0.00    +0.000 A 
BRANCH  20  23
ATOM     23  S   UNL     1       2.799   3.840  18.305  0.00  0.00    +0.000 S 
ATOM     24  O   UNL     1       2.778   2.812  19.322  0.00  0.00    +0.000 OA
ATOM     25  O   UNL     1       1.984   3.730  17.111  0.00  0.00    +0.000 OA
BRANCH  23  26
ATOM     26  N   UNL     1       4.423   4.110  17.837  0.00  0.00    +0.000 NA
ATOM     27  C   UNL     1       4.640   4.588  16.452  0.00  0.00    +0.000 C 
ATOM     28  C   UNL     1       5.870   3.937  15.824  0.00  0.00    +0.000 C 
ATOM     29  C   UNL     1       7.184   4.622  16.176  0.00  0.00    +0.000 C 
ATOM     30  C   UNL     1       7.522   4.585  17.659  0.00  0.00    +0.000 C 
ATOM     31  C   UNL     1       6.538   5.384  18.504  0.00  0.00    +0.000 C 
ATOM     32  C   UNL     1       5.307   4.597  18.923  0.00  0.00    +0.000 C 
ENDBRANCH  23  26
ENDBRANCH  20  23
ENDBRANCH   2  17
TORSDOF 6
ENDMDL
MODEL 9
REMARK VINA RESULT:      -8.1      0.752      1.435
REMARK  Name = 
REMARK  6 active torsions:
REMARK  status: ('A' for Active; 'I' for Inactive)
REMARK    1  A    between atoms: N_1  and  S_2
REMARK    2  A    between atoms: S_2  and  C_5
REMARK    3  A    between atoms: C_9  and  N_10
REMARK    4  A    between atoms: C_11  and  C_13
REMARK    5  A    between atoms: C_16  and  S_17
REMARK    6  A    between atoms: S_17  and  N_20
REMARK                            x       y       z     vdW  Elec       q    Type
REMARK                         _______ _______ _______ _____ _____    ______ ____
ROOT
ATOM      1  N   UNL     1       2.843   7.052  18.526  0.00  0.00    +0.000 N 
ATOM      2  C   UNL     1       2.212   7.073  19.759  0.00  0.00    +0.000 C 
ATOM      3  O   UNL     1       2.196   6.157  20.575  0.00  0.00    +0.000 OA
ATOM      4  H   UNL     1       2.866   7.898  17.977  0.00  0.00    +0.000 HD
ENDROOT
BRANCH   1   9
ATOM      5  C   UNL     1       5.459   4.947  16.974  0.00  0.00    +0.000 A 
ATOM      6  C   UNL     1       4.790   3.745  16.740  0.00  0.00    +0.000 A 
ATOM      7  C   UNL     1       3.450   3.636  17.100  0.00  0.00    +0.000 A 
ATOM      8  C   UNL     1       2.797   4.717  17.695  0.00  0.00    +0.000 A 
ATOM      9  C   UNL     1       3.465   5.924  17.936  0.00  0.00    +0.000 A 
ATOM     10  C   UNL     1       4.806   6.042  17.556  0.00  0.00    +0.000 A 
BRANCH   5  11
ATOM     11  S   UNL     1       7.167   5.076  16.549  0.00  0.00    +0.000 S 
ATOM     12  O   UNL     1       7.314   4.782  15.143  0.00  0.00    +0.000 OA
ATOM     13  O   UNL     1       7.969   4.442  17.567  0.00  0.00    +0.000 OA
BRANCH  11  14
ATOM     14  N   UNL     1       7.448   6.723  16.724  0.00  0.00    +0.000 NA
ATOM     15  H   UNL     1       8.049   7.044  15.963  0.00  0.00    +0.000 HD
ATOM     16  H   UNL     1       7.832   6.914  17.651  0.00  0.00    +0.000 HD
ENDBRANCH  11  14
ENDBRANCH   5  11
ENDBRANCH   1   9
BRANCH   2  17
ATOM     17  C   UNL     1       1.485   8.325  20.125  0.00  0.00    +0.000 A 
ATOM     18  C   UNL     1       1.157   8.487  21.484  0.00  0.00    +0.000 A 
ATOM     19  C   UNL     1       0.493   9.631  21.924  0.00  0.00    +0.000 A 
ATOM     20  C   UNL     1       0.167  10.632  21.008  0.00  0.00    +0.000 A 
ATOM     21  C   UNL     1       0.462  10.472  19.648  0.00  0.00    +0.000 A 
ATOM     22  C   UNL     1       1.137   9.324  19.209  0.00  0.00    +0.000 A 
BRANCH  20  23
ATOM     23  S   UNL     1      -0.678  12.096  21.587  0.00  0.00    +0.000 S 
ATOM     24  O   UNL     1      -1.984  12.111  20.966  0.00  0.00    +0.000 OA
ATOM     25  O   UNL     1      -0.535  12.131  23.029  0.00  0.00    +0.000 OA
BRANCH  23  26
ATOM     26  N   UNL     1       0.261  13.358  20.912  0.00  0.00    +0.000 NA
ATOM     27  C   UNL     1       1.731  13.206  20.999  0.00  0.00    +0.000 C 
ATOM     28  C   UNL     1       2.413  14.538  21.303  0.00  0.00    +0.000 C 
ATOM     29  C   UNL     1       2.659  15.405  20.075  0.00  0.00    +0.000 C 
ATOM     30  C   UNL     1       1.388  15.848  19.366  0.00  0.00    +0.000 C 
ATOM     31  C   UNL     1       0.622  14.682  18.754  0.00  0.00    +0.000 C 
ATOM     32  C   UNL     1      -0.337  14.002  19.718  0.00  0.00    +0.000 C 
ENDBRANCH  23  26
ENDBRANCH  20  23
ENDBRANCH   2  17
TORSDOF 6
ENDMDL
