MODEL 1
REMARK VINA RESULT:      -8.8      0.000      0.000
REMARK  Name = 
REMARK  7 active torsions:
REMARK  status: ('A' for Active; 'I' for Inactive)
REMARK    1  A    between atoms: C_2  and  C_3
REMARK    2  A    between atoms: C_3  and  C_4
REMARK    3  A    between atoms: N_6  and  C_7
REMARK    4  A    between atoms: C_11  and  N_12
REMARK    5  A    between atoms: N_12  and  C_13
REMARK    6  A    between atoms: C_17  and  C_18
REMARK    7  A    between atoms: C_19  and  C_20
REMARK                            x       y       z     vdW  Elec       q    Type
REMARK                         _______ _______ _______ _____ _____    ______ ____
ROOT
ATOM      1  C   UNL     1       2.445   6.933  19.050  0.00  0.00    +0.000 A 
ATOM      2  C   UNL     1       1.838   7.182  20.287  0.00  0.00    +0.000 A 
ATOM      3  C   UNL     1       1.271   8.427  20.590  0.00  0.00    +0.000 A 
ATOM      4  C   UNL     1       1.339   9.455  19.632  0.00  0.00    +0.000 A 
ATOM      5  C   UNL     1       0.989  10.837  19.575  0.00  0.00    +0.000 A 
ATOM      6  N   UNL     1       1.280  11.360  18.374  0.00  0.00    +0.000 NA
ATOM      7  N   UNL     1       1.856  10.353  17.705  0.00  0.00    +0.000 N 
ATOM      8  C   UNL     1       1.936   9.184  18.406  0.00  0.00    +0.000 A 
ATOM      9  C   UNL     1       2.504   7.946  18.082  0.00  0.00    +0.000 A 
ATOM     10  H   UNL     1       2.201  10.537  16.768  0.00  0.00    +0.000 HD
ENDROOT
BRANCH   1  11
ATOM     11  N   UNL     1       3.096   5.692  18.875  0.00  0.00    +0.000 N 
ATOM     12  H   UNL     1       2.900   5.090  19.672  0.00  0.00    +0.000 HD
BRANCH  11  17
ATOM     13  C   UNL     1       5.755   4.580  16.491  0.00  0.00    +0.000 A 
ATOM     14  C   UNL     1       6.871   4.658  17.326  0.00  0.00    +0.000 A 
ATOM     15  C   UNL     1       6.742   5.106  18.640  0.00  0.00    +0.000 A 
ATOM     16  C   UNL     1       5.493   5.469  19.132  0.00  0.00    +0.000 A 
ATOM     17  C   UNL     1       4.362   5.431  18.309  0.00  0.00    +0.000 A 
ATOM     18  C   UNL     1       4.509   4.998  16.980  0.00  0.00    +0.000 A 
BRANCH  13  21
ATOM     19  C   UNL     1       6.687   4.526  14.181  0.00  0.00    +0.000 C 
ATOM     20  O   UNL     1       7.582   5.358  14.322  0.00  0.00    +0.000 OA
ATOM     21  N   UNL     1       5.822   4.082  15.171  0.00  0.00    +0.000 N 
ATOM     22  H   UNL     1       5.330   3.215  14.985  0.00  0.00    +0.000 HD
BRANCH  19  23
ATOM     23  C   UNL     1       6.482   3.836  12.840  0.00  0.00    +0.000 C 
BRANCH  23  25
ATOM     24  C   UNL     1       4.512   3.113  11.457  0.00  0.00    +0.000 C 
ATOM     25  C   UNL     1       5.019   3.619  12.589  0.00  0.00    +0.000 C 
ENDBRANCH  23  25
ENDBRANCH  19  23
ENDBRANCH  13  21
ENDBRANCH  11  17
ENDBRANCH   1  11
BRANCH   5  26
ATOM     26  C   UNL     1       0.501  11.607  20.687  0.00  0.00    +0.000 C 
ATOM     27  C   UNL     1      -0.711  11.426  21.237  0.00  0.00    +0.000 C 
BRANCH  27  28
ATOM     28  C   UNL     1      -1.371  12.301  22.216  0.00  0.00    +0.000 A 
ATOM     29  C   UNL     1      -0.689  13.470  22.590  0.00  0.00    +0.000 A 
ATOM     30  C   UNL     1      -1.214  14.335  23.551  0.00  0.00    +0.000 A 
ATOM     31  C   UNL     1      -2.440  14.049  24.144  0.00  0.00    +0.000 A 
ATOM     32  C   UNL     1      -3.140  12.905  23.766  0.00  0.00    +0.000 A 
ATOM     33  C   UNL     1      -2.614  12.037  22.803  0.00  0.00    +0.000 A 
ENDBRANCH  27  28
ENDBRANCH   5  26
TORSDOF 7
ENDMDL
MODEL 2
REMARK VINA RESULT:      -8.7      1.402      2.241
REMARK  Name = 
REMARK  7 active torsions:
REMARK  status: ('A' for Active; 'I' for Inactive)
REMARK    1  A    between atoms: C_2  and  C_3
REMARK    2  A    between atoms: C_3  and  C_4
REMARK    3  A    between atoms: N_6  and  C_7
REMARK    4  A    between atoms: C_11  and  N_12
REMARK    5  A    between atoms: N_12  and  C_13
REMARK    6  A    between atoms: C_17  and  C_18
REMARK    7  A    between atoms: C_19  and  C_20
REMARK                            x       y       z     vdW  Elec       q    Type
REMARK                         _______ _______ _______ _____ _____    ______ ____
ROOT
ATOM      1  C   UNL     1       1.784   7.676  19.940  0.00  0.00    +0.000 A 
ATOM      2  C   UNL     1       0.923   7.905  21.021  0.00  0.00    +0.000 A 
ATOM      3  C   UNL     1       0.094   9.034  21.073  0.00  0.00    +0.000 A 
ATOM      4  C   UNL     1       0.152   9.967  20.022  0.00  0.00    +0.000 A 
ATOM      5  C   UNL     1      -0.425  11.242  19.742  0.00  0.00    +0.000 A 
ATOM      6  N   UNL     1      -0.015  11.707  18.551  0.00  0.00    +0.000 NA
ATOM      7  N   UNL     1       0.847  10.780  18.113  0.00  0.00    +0.000 N 
ATOM      8  C   UNL     1       1.006   9.716  18.954  0.00  0.00    +0.000 A 
ATOM      9  C   UNL     1       1.838   8.592  18.881  0.00  0.00    +0.000 A 
ATOM     10  H   UNL     1       1.320  10.948  17.231  0.00  0.00    +0.000 HD
ENDROOT
BRANCH   1  11
ATOM     11  N   UNL     1       2.669   6.579  20.026  0.00  0.00    +0.000 N 
ATOM     12  H   UNL     1       3.566   6.894  20.391  0.00  0.00    +0.000 HD
BRANCH  11  17
ATOM     13  C   UNL     1       3.885   4.389  17.248  0.00  0.00    +0.000 A 
ATOM     14  C   UNL     1       2.869   3.432  17.238  0.00  0.00    +0.000 A 
ATOM     15  C   UNL     1       1.826   3.497  18.159  0.00  0.00    +0.000 A 
ATOM     16  C   UNL     1       1.784   4.527  19.093  0.00  0.00    +0.000 A 
ATOM     17  C   UNL     1       2.806   5.483  19.147  0.00  0.00    +0.000 A 
ATOM     18  C   UNL     1       3.863   5.394  18.226  0.00  0.00    +0.000 A 
BRANCH  13  21
ATOM     19  C   UNL     1       5.400   5.516  15.623  0.00  0.00    +0.000 C 
ATOM     20  O   UNL     1       5.031   6.676  15.798  0.00  0.00    +0.000 OA
ATOM     21  N   UNL     1       4.935   4.400  16.303  0.00  0.00    +0.000 N 
ATOM     22  H   UNL     1       5.512   3.568  16.253  0.00  0.00    +0.000 HD
BRANCH  19  23
ATOM     23  C   UNL     1       6.505   5.202  14.624  0.00  0.00    +0.000 C 
BRANCH  23  25
ATOM     24  C   UNL     1       5.862   3.542  12.849  0.00  0.00    +0.000 C 
ATOM     25  C   UNL     1       6.327   3.817  14.076  0.00  0.00    +0.000 C 
ENDBRANCH  23  25
ENDBRANCH  19  23
ENDBRANCH  13  21
ENDBRANCH  11  17
ENDBRANCH   1  11
BRANCH   5  26
ATOM     26  C   UNL     1      -1.242  11.993  20.656  0.00  0.00    +0.000 C 
ATOM     27  C   UNL     1      -0.792  12.470  21.829  0.00  0.00    +0.000 C 
BRANCH  27  28
ATOM     28  C   UNL     1      -1.603  13.048  22.910  0.00  0.00    +0.000 A 
ATOM     29  C   UNL     1      -2.817  12.411  23.210  0.00  0.00    +0.000 A 
ATOM     30  C   UNL     1      -3.676  12.918  24.186  0.00  0.00    +0.000 A 
ATOM     31  C   UNL     1      -3.325  14.067  24.888  0.00  0.00    +0.000 A 
ATOM     32  C   UNL     1      -2.112  14.697  24.619  0.00  0.00    +0.000 A 
ATOM     33  C   UNL     1      -1.250  14.190  23.639  0.00  0.00    +0.000 A 
ENDBRANCH  27  28
ENDBRANCH   5  26
TORSDOF 7
ENDMDL
MODEL 3
REMARK VINA RESULT:      -8.5      2.725      3.616
REMARK  Name = 
REMARK  7 active torsions:
REMARK  status: ('A' for Active; 'I' for Inactive)
REMARK    1  A    between atoms: C_2  and  C_3
REMARK    2  A    between atoms: C_3  and  C_4
REMARK    3  A    between atoms: N_6  and  C_7
REMARK    4  A    between atoms: C_11  and  N_12
REMARK    5  A    between atoms: N_12  and  C_13
REMARK    6  A    between atoms: C_17  and  C_18
REMARK    7  A    between atoms: C_19  and  C_20
REMARK                            x       y       z     vdW  Elec       q    Type
REMARK                         _______ _______ _______ _____ _____    ______ ____
ROOT
ATOM      1  C   UNL     1       3.075   6.315  19.025  0.00  0.00    +0.000 A 
ATOM      2  C   UNL     1       2.472   6.919  17.914  0.00  0.00    +0.000 A 
ATOM      3  C   UNL     1       1.609   8.014  18.051  0.00  0.00    +0.000 A 
ATOM      4  C   UNL     1       1.326   8.498  19.341  0.00  0.00    +0.000 A 
ATOM      5  C   UNL     1       0.465   9.485  19.907  0.00  0.00    +0.000 A 
ATOM      6  N   UNL     1       0.598   9.536  21.242  0.00  0.00    +0.000 NA
ATOM      7  N   UNL     1       1.476   8.564  21.523  0.00  0.00    +0.000 N 
ATOM      8  C   UNL     1       1.942   7.892  20.430  0.00  0.00    +0.000 A 
ATOM      9  C   UNL     1       2.811   6.800  20.314  0.00  0.00    +0.000 A 
ATOM     10  H   UNL     1       1.700   8.391  22.498  0.00  0.00    +0.000 HD
ENDROOT
BRANCH   1  11
ATOM     11  N   UNL     1       3.833   5.145  18.806  0.00  0.00    +0.000 N 
ATOM     12  H   UNL     1       3.838   4.580  19.652  0.00  0.00    +0.000 HD
BRANCH  11  17
ATOM     13  C   UNL     1       6.190   4.209  16.056  0.00  0.00    +0.000 A 
ATOM     14  C   UNL     1       7.408   4.427  16.702  0.00  0.00    +0.000 A 
ATOM     15  C   UNL     1       7.440   4.908  18.010  0.00  0.00    +0.000 A 
ATOM     16  C   UNL     1       6.252   5.166  18.686  0.00  0.00    +0.000 A 
ATOM     17  C   UNL     1       5.016   4.988  18.052  0.00  0.00    +0.000 A 
ATOM     18  C   UNL     1       4.999   4.522  16.726  0.00  0.00    +0.000 A 
BRANCH  13  21
ATOM     19  C   UNL     1       6.677   4.216  13.613  0.00  0.00    +0.000 C 
ATOM     20  O   UNL     1       7.419   5.195  13.573  0.00  0.00    +0.000 OA
ATOM     21  N   UNL     1       6.102   3.672  14.752  0.00  0.00    +0.000 N 
ATOM     22  H   UNL     1       5.748   2.726  14.673  0.00  0.00    +0.000 HD
BRANCH  19  23
ATOM     23  C   UNL     1       6.357   3.441  12.342  0.00  0.00    +0.000 C 
BRANCH  23  25
ATOM     24  C   UNL     1       4.222   2.848  11.154  0.00  0.00    +0.000 C 
ATOM     25  C   UNL     1       4.928   3.669  11.945  0.00  0.00    +0.000 C 
ENDBRANCH  23  25
ENDBRANCH  19  23
ENDBRANCH  13  21
ENDBRANCH  11  17
ENDBRANCH   1  11
BRANCH   5  26
ATOM     26  C   UNL     1      -0.507  10.247  19.171  0.00  0.00    +0.000 C 
ATOM     27  C   UNL     1      -1.594   9.703  18.597  0.00  0.00    +0.000 C 
BRANCH  27  28
ATOM     28  C   UNL     1      -2.510  10.358  17.653  0.00  0.00    +0.000 A 
ATOM     29  C   UNL     1      -3.536  11.143  18.200  0.00  0.00    +0.000 A 
ATOM     30  C   UNL     1      -4.483  11.763  17.383  0.00  0.00    +0.000 A 
ATOM     31  C   UNL     1      -4.410  11.614  16.002  0.00  0.00    +0.000 A 
ATOM     32  C   UNL     1      -3.382  10.857  15.442  0.00  0.00    +0.000 A 
ATOM     33  C   UNL     1      -2.432  10.235  16.261  0.00  0.00    +0.000 A 
ENDBRANCH  27  28
ENDBRANCH   5  26
TORSDOF 7
ENDMDL
MODEL 4
REMARK VINA RESULT:      -8.5      0.812      1.188
REMARK  Name = 
REMARK  7 active torsions:
REMARK  status: ('A' for Active; 'I' for Inactive)
REMARK    1  A    between atoms: C_2  and  C_3
REMARK    2  A    between atoms: C_3  and  C_4
REMARK    3  A    between atoms: N_6  and  C_7
REMARK    4  A    between atoms: C_11  and  N_12
REMARK    5  A    between atoms: N_12  and  C_13
REMARK    6  A    between atoms: C_17  and  C_18
REMARK    7  A    between atoms: C_19  and  C_20
REMARK                            x       y       z     vdW  Elec       q    Type
REMARK                         _______ _______ _______ _____ _____    ______ ____
ROOT
ATOM      1  C   UNL     1       2.596   6.820  19.123  0.00  0.00    +0.000 A 
ATOM      2  C   UNL     1       2.097   6.946  20.426  0.00  0.00    +0.000 A 
ATOM      3  C   UNL     1       1.356   8.066  20.824  0.00  0.00    +0.000 A 
ATOM      4  C   UNL     1       1.131   9.097  19.894  0.00  0.00    +0.000 A 
ATOM      5  C   UNL     1       0.538  10.395  19.915  0.00  0.00    +0.000 A 
ATOM      6  N   UNL     1       0.594  10.972  18.705  0.00  0.00    +0.000 NA
ATOM      7  N   UNL     1       1.261  10.090  17.948  0.00  0.00    +0.000 N 
ATOM      8  C   UNL     1       1.626   8.949  18.603  0.00  0.00    +0.000 A 
ATOM      9  C   UNL     1       2.365   7.836  18.184  0.00  0.00    +0.000 A 
ATOM     10  H   UNL     1       1.460  10.342  16.986  0.00  0.00    +0.000 HD
ENDROOT
BRANCH   1  11
ATOM     11  N   UNL     1       3.433   5.719  18.843  0.00  0.00    +0.000 N 
ATOM     12  H   UNL     1       3.319   5.012  19.567  0.00  0.00    +0.000 HD
BRANCH  11  17
ATOM     13  C   UNL     1       6.254   5.429  16.404  0.00  0.00    +0.000 A 
ATOM     14  C   UNL     1       7.334   5.427  17.288  0.00  0.00    +0.000 A 
ATOM     15  C   UNL     1       7.126   5.556  18.661  0.00  0.00    +0.000 A 
ATOM     16  C   UNL     1       5.833   5.678  19.160  0.00  0.00    +0.000 A 
ATOM     17  C   UNL     1       4.734   5.715  18.295  0.00  0.00    +0.000 A 
ATOM     18  C   UNL     1       4.959   5.605  16.912  0.00  0.00    +0.000 A 
BRANCH  13  21
ATOM     19  C   UNL     1       6.292   4.040  14.336  0.00  0.00    +0.000 C 
ATOM     20  O   UNL     1       5.958   2.964  14.828  0.00  0.00    +0.000 OA
ATOM     21  N   UNL     1       6.406   5.247  15.011  0.00  0.00    +0.000 N 
ATOM     22  H   UNL     1       6.419   6.085  14.441  0.00  0.00    +0.000 HD
BRANCH  19  23
ATOM     23  C   UNL     1       6.567   4.152  12.843  0.00  0.00    +0.000 C 
BRANCH  23  25
ATOM     24  C   UNL     1       4.493   3.396  11.641  0.00  0.00    +0.000 C 
ATOM     25  C   UNL     1       5.734   3.158  12.088  0.00  0.00    +0.000 C 
ENDBRANCH  23  25
ENDBRANCH  19  23
ENDBRANCH  13  21
ENDBRANCH  11  17
ENDBRANCH   1  11
BRANCH   5  26
ATOM     26  C   UNL     1       0.048  11.056  21.095  0.00  0.00    +0.000 C 
ATOM     27  C   UNL     1      -1.174  11.605  21.181  0.00  0.00    +0.000 C 
BRANCH  27  28
ATOM     28  C   UNL     1      -1.670  12.481  22.253  0.00  0.00    +0.000 A 
ATOM     29  C   UNL     1      -3.009  12.319  22.642  0.00  0.00    +0.000 A 
ATOM     30  C   UNL     1      -3.581  13.138  23.617  0.00  0.00    +0.000 A 
ATOM     31  C   UNL     1      -2.815  14.129  24.225  0.00  0.00    +0.000 A 
ATOM     32  C   UNL     1      -1.478  14.286  23.865  0.00  0.00    +0.000 A 
ATOM     33  C   UNL     1      -0.904  13.465  22.888  0.00  0.00    +0.000 A 
ENDBRANCH  27  28
ENDBRANCH   5  26
TORSDOF 7
ENDMDL
MODEL 5
REMARK VINA RESULT:      -8.5      3.331     10.716
REMARK  Name = 
REMARK  7 active torsions:
REMARK  status: ('A' for Active; 'I' for Inactive)
REMARK    1  A    between atoms: C_2  and  C_3
REMARK    2  A    between atoms: C_3  and  C_4
REMARK    3  A    between atoms: N_6  and  C_7
REMARK    4  A    between atoms: C_11  and  N_12
REMARK    5  A    between atoms: N_12  and  C_13
REMARK    6  A    between atoms: C_17  and  C_18
REMARK    7  A    between atoms: C_19  and  C_20
REMARK                            x       y       z     vdW  Elec       q    Type
REMARK                         _______ _______ _______ _____ _____    ______ ____
ROOT
ATOM      1  C   UNL     1       1.697   8.244  19.584  0.00  0.00    +0.000 A 
ATOM      2  C   UNL     1       2.063   8.544  18.266  0.00  0.00    +0.000 A 
ATOM      3  C   UNL     1       2.880   7.687  17.517  0.00  0.00    +0.000 A 
ATOM      4  C   UNL     1       3.362   6.510  18.119  0.00  0.00    +0.000 A 
ATOM      5  C   UNL     1       4.258   5.459  17.760  0.00  0.00    +0.000 A 
ATOM      6  N   UNL     1       4.360   4.553  18.745  0.00  0.00    +0.000 NA
ATOM      7  N   UNL     1       3.596   5.046  19.729  0.00  0.00    +0.000 N 
ATOM      8  C   UNL     1       2.979   6.226  19.425  0.00  0.00    +0.000 A 
ATOM      9  C   UNL     1       2.159   7.067  20.188  0.00  0.00    +0.000 A 
ATOM     10  H   UNL     1       3.557   4.535  20.604  0.00  0.00    +0.000 HD
ENDROOT
BRANCH   1  11
ATOM     11  N   UNL     1       0.973   9.220  20.303  0.00  0.00    +0.000 N 
ATOM     12  H   UNL     1       0.412   8.767  21.021  0.00  0.00    +0.000 HD
BRANCH  11  17
ATOM     13  C   UNL     1      -1.478  11.566  18.726  0.00  0.00    +0.000 A 
ATOM     14  C   UNL     1      -0.681  12.708  18.622  0.00  0.00    +0.000 A 
ATOM     15  C   UNL     1       0.629  12.702  19.099  0.00  0.00    +0.000 A 
ATOM     16  C   UNL     1       1.156  11.552  19.676  0.00  0.00    +0.000 A 
ATOM     17  C   UNL     1       0.370  10.403  19.823  0.00  0.00    +0.000 A 
ATOM     18  C   UNL     1      -0.956  10.427  19.357  0.00  0.00    +0.000 A 
BRANCH  13  21
ATOM     19  C   UNL     1      -3.134  11.167  16.908  0.00  0.00    +0.000 C 
ATOM     20  O   UNL     1      -2.359  10.795  16.029  0.00  0.00    +0.000 OA
ATOM     21  N   UNL     1      -2.791  11.501  18.211  0.00  0.00    +0.000 N 
ATOM     22  H   UNL     1      -3.547  11.521  18.886  0.00  0.00    +0.000 HD
BRANCH  19  23
ATOM     23  C   UNL     1      -4.629  11.240  16.636  0.00  0.00    +0.000 C 
BRANCH  23  25
ATOM     24  C   UNL     1      -6.595  11.165  18.200  0.00  0.00    +0.000 C 
ATOM     25  C   UNL     1      -5.366  11.602  17.892  0.00  0.00    +0.000 C 
ENDBRANCH  23  25
ENDBRANCH  19  23
ENDBRANCH  13  21
ENDBRANCH  11  17
ENDBRANCH   1  11
BRANCH   5  26
ATOM     26  C   UNL     1       5.045   5.426  16.557  0.00  0.00    +0.000 C 
ATOM     27  C   UNL     1       4.762   4.632  15.510  0.00  0.00    +0.000 C 
BRANCH  27  28
ATOM     28  C   UNL     1       5.622   4.373  14.347  0.00  0.00    +0.000 A 
ATOM     29  C   UNL     1       6.875   5.006  14.325  0.00  0.00    +0.000 A 
ATOM     30  C   UNL     1       7.738   4.859  13.239  0.00  0.00    +0.000 A 
ATOM     31  C   UNL     1       7.364   4.064  12.160  0.00  0.00    +0.000 A 
ATOM     32  C   UNL     1       6.134   3.410  12.178  0.00  0.00    +0.000 A 
ATOM     33  C   UNL     1       5.267   3.557  13.267  0.00  0.00    +0.000 A 
ENDBRANCH  27  28
ENDBRANCH   5  26
TORSDOF 7
ENDMDL
MODEL 6
REMARK VINA RESULT:      -8.4      1.964      2.609
REMARK  Name = 
REMARK  7 active torsions:
REMARK  status: ('A' for Active; 'I' for Inactive)
REMARK    1  A    between atoms: C_2  and  C_3
REMARK    2  A    between atoms: C_3  and  C_4
REMARK    3  A    between atoms: N_6  and  C_7
REMARK    4  A    between atoms: C_11  and  N_12
REMARK    5  A    between atoms: N_12  and  C_13
REMARK    6  A    between atoms: C_17  and  C_18
REMARK    7  A    between atoms: C_19  and  C_20
REMARK                            x       y       z     vdW  Elec       q    Type
REMARK                         _______ _______ _______ _____ _____    ______ ____
ROOT
ATOM      1  C   UNL     1       2.614   6.867  18.586  0.00  0.00    +0.000 A 
ATOM      2  C   UNL     1       2.332   7.995  17.806  0.00  0.00    +0.000 A 
ATOM      3  C   UNL     1       1.748   9.143  18.357  0.00  0.00    +0.000 A 
ATOM      4  C   UNL     1       1.415   9.145  19.724  0.00  0.00    +0.000 A 
ATOM      5  C   UNL     1       0.748  10.031  20.622  0.00  0.00    +0.000 A 
ATOM      6  N   UNL     1       0.706   9.520  21.862  0.00  0.00    +0.000 NA
ATOM      7  N   UNL     1       1.277   8.314  21.743  0.00  0.00    +0.000 N 
ATOM      8  C   UNL     1       1.712   8.019  20.484  0.00  0.00    +0.000 A 
ATOM      9  C   UNL     1       2.301   6.865  19.952  0.00  0.00    +0.000 A 
ATOM     10  H   UNL     1       1.316   7.722  22.566  0.00  0.00    +0.000 HD
ENDROOT
BRANCH   1  11
ATOM     11  N   UNL     1       3.091   5.714  17.926  0.00  0.00    +0.000 N 
ATOM     12  H   UNL     1       2.571   4.899  18.245  0.00  0.00    +0.000 HD
BRANCH  11  17
ATOM     13  C   UNL     1       6.029   4.471  15.971  0.00  0.00    +0.000 A 
ATOM     14  C   UNL     1       7.005   4.495  16.968  0.00  0.00    +0.000 A 
ATOM     15  C   UNL     1       6.697   4.948  18.250  0.00  0.00    +0.000 A 
ATOM     16  C   UNL     1       5.407   5.373  18.547  0.00  0.00    +0.000 A 
ATOM     17  C   UNL     1       4.415   5.391  17.559  0.00  0.00    +0.000 A 
ATOM     18  C   UNL     1       4.744   4.951  16.265  0.00  0.00    +0.000 A 
BRANCH  13  21
ATOM     19  C   UNL     1       7.056   4.583  13.704  0.00  0.00    +0.000 C 
ATOM     20  O   UNL     1       7.723   5.605  13.852  0.00  0.00    +0.000 OA
ATOM     21  N   UNL     1       6.274   3.971  14.673  0.00  0.00    +0.000 N 
ATOM     22  H   UNL     1       6.009   3.008  14.498  0.00  0.00    +0.000 HD
BRANCH  19  23
ATOM     23  C   UNL     1       7.084   3.831  12.381  0.00  0.00    +0.000 C 
BRANCH  23  25
ATOM     24  C   UNL     1       5.528   2.092  11.448  0.00  0.00    +0.000 C 
ATOM     25  C   UNL     1       5.732   3.251  12.089  0.00  0.00    +0.000 C 
ENDBRANCH  23  25
ENDBRANCH  19  23
ENDBRANCH  13  21
ENDBRANCH  11  17
ENDBRANCH   1  11
BRANCH   5  26
ATOM     26  C   UNL     1       0.098  11.255  20.238  0.00  0.00    +0.000 C 
ATOM     27  C   UNL     1       0.760  12.397  19.990  0.00  0.00    +0.000 C 
BRANCH  27  28
ATOM     28  C   UNL     1       0.172  13.732  19.811  0.00  0.00    +0.000 A 
ATOM     29  C   UNL     1      -0.934  14.056  20.613  0.00  0.00    +0.000 A 
ATOM     30  C   UNL     1      -1.589  15.281  20.478  0.00  0.00    +0.000 A 
ATOM     31  C   UNL     1      -1.139  16.207  19.542  0.00  0.00    +0.000 A 
ATOM     32  C   UNL     1      -0.028  15.910  18.755  0.00  0.00    +0.000 A 
ATOM     33  C   UNL     1       0.629  14.681  18.890  0.00  0.00    +0.000 A 
ENDBRANCH  27  28
ENDBRANCH   5  26
TORSDOF 7
ENDMDL
MODEL 7
REMARK VINA RESULT:      -8.4      1.594      2.378
REMARK  Name = 
REMARK  7 active torsions:
REMARK  status: ('A' for Active; 'I' for Inactive)
REMARK    1  A    between atoms: C_2  and  C_3
REMARK    2  A    between atoms: C_3  and  C_4
REMARK    3  A    between atoms: N_6  and  C_7
REMARK    4  A    between atoms: C_11  and  N_12
REMARK    5  A    between atoms: N_12  and  C_13
REMARK    6  A    between atoms: C_17  and  C_18
REMARK    7  A    between atoms: C_19  and  C_20
REMARK                            x       y       z     vdW  Elec       q    Type
REMARK                         _______ _______ _______ _____ _____    ______ ____
ROOT
ATOM      1  C   UNL     1       1.741   7.779  20.224  0.00  0.00    +0.000 A 
ATOM      2  C   UNL     1       1.017   8.160  21.360  0.00  0.00    +0.000 A 
ATOM      3  C   UNL     1       0.251   9.334  21.385  0.00  0.00    +0.000 A 
ATOM      4  C   UNL     1       0.235  10.157  20.244  0.00  0.00    +0.000 A 
ATOM      5  C   UNL     1      -0.311  11.429  19.898  0.00  0.00    +0.000 A 
ATOM      6  N   UNL     1      -0.015  11.753  18.629  0.00  0.00    +0.000 NA
ATOM      7  N   UNL     1       0.751  10.741  18.199  0.00  0.00    +0.000 N 
ATOM      8  C   UNL     1       0.952   9.756  19.122  0.00  0.00    +0.000 A 
ATOM      9  C   UNL     1       1.719   8.585  19.077  0.00  0.00    +0.000 A 
ATOM     10  H   UNL     1       1.130  10.796  17.260  0.00  0.00    +0.000 HD
ENDROOT
BRANCH   1  11
ATOM     11  N   UNL     1       2.579   6.648  20.328  0.00  0.00    +0.000 N 
ATOM     12  H   UNL     1       3.472   6.921  20.732  0.00  0.00    +0.000 HD
BRANCH  11  17
ATOM     13  C   UNL     1       3.783   4.477  17.528  0.00  0.00    +0.000 A 
ATOM     14  C   UNL     1       2.759   3.529  17.506  0.00  0.00    +0.000 A 
ATOM     15  C   UNL     1       1.714   3.593  18.426  0.00  0.00    +0.000 A 
ATOM     16  C   UNL     1       1.679   4.613  19.370  0.00  0.00    +0.000 A 
ATOM     17  C   UNL     1       2.708   5.560  19.437  0.00  0.00    +0.000 A 
ATOM     18  C   UNL     1       3.767   5.472  18.517  0.00  0.00    +0.000 A 
BRANCH  13  21
ATOM     19  C   UNL     1       6.190   4.483  16.885  0.00  0.00    +0.000 C 
ATOM     20  O   UNL     1       6.682   4.380  18.007  0.00  0.00    +0.000 OA
ATOM     21  N   UNL     1       4.835   4.490  16.586  0.00  0.00    +0.000 N 
ATOM     22  H   UNL     1       4.584   4.305  15.621  0.00  0.00    +0.000 HD
BRANCH  19  23
ATOM     23  C   UNL     1       7.084   4.559  15.655  0.00  0.00    +0.000 C 
BRANCH  23  25
ATOM     24  C   UNL     1       6.256   3.844  13.392  0.00  0.00    +0.000 C 
ATOM     25  C   UNL     1       6.248   4.706  14.418  0.00  0.00    +0.000 C 
ENDBRANCH  23  25
ENDBRANCH  19  23
ENDBRANCH  13  21
ENDBRANCH  11  17
ENDBRANCH   1  11
BRANCH   5  26
ATOM     26  C   UNL     1      -0.986  12.310  20.812  0.00  0.00    +0.000 C 
ATOM     27  C   UNL     1      -1.804  11.879  21.786  0.00  0.00    +0.000 C 
BRANCH  27  28
ATOM     28  C   UNL     1      -2.696  12.704  22.613  0.00  0.00    +0.000 A 
ATOM     29  C   UNL     1      -2.895  14.033  22.207  0.00  0.00    +0.000 A 
ATOM     30  C   UNL     1      -3.685  14.906  22.957  0.00  0.00    +0.000 A 
ATOM     31  C   UNL     1      -4.300  14.456  24.122  0.00  0.00    +0.000 A 
ATOM     32  C   UNL     1      -4.131  13.132  24.524  0.00  0.00    +0.000 A 
ATOM     33  C   UNL     1      -3.338  12.257  23.773  0.00  0.00    +0.000 A 
ENDBRANCH  27  28
ENDBRANCH   5  26
TORSDOF 7
ENDMDL
MODEL 8
REMARK VINA RESULT:      -8.4      3.626     10.432
REMARK  Name = 
REMARK  7 active torsions:
REMARK  status: ('A' for Active; 'I' for Inactive)
REMARK    1  A    between atoms: C_2  and  C_3
REMARK    2  A    between atoms: C_3  and  C_4
REMARK    3  A    between atoms: N_6  and  C_7
REMARK    4  A    between atoms: C_11  and  N_12
REMARK    5  A    between atoms: N_12  and  C_13
REMARK    6  A    between atoms: C_17  and  C_18
REMARK    7  A    between atoms: C_19  and  C_20
REMARK                            x       y       z     vdW  Elec       q    Type
REMARK                         _______ _______ _______ _____ _____    ______ ____
ROOT
ATOM      1  C   UNL     1       1.715   8.378  19.584  0.00  0.00    +0.000 A 
ATOM      2  C   UNL     1       2.163   8.624  18.280  0.00  0.00    +0.000 A 
ATOM      3  C   UNL     1       3.001   7.725  17.608  0.00  0.00    +0.000 A 
ATOM      4  C   UNL     1       3.420   6.559  18.276  0.00  0.00    +0.000 A 
ATOM      5  C   UNL     1       4.310   5.478  18.005  0.00  0.00    +0.000 A 
ATOM      6  N   UNL     1       4.334   4.604  19.023  0.00  0.00    +0.000 NA
ATOM      7  N   UNL     1       3.526   5.147  19.944  0.00  0.00    +0.000 N 
ATOM      8  C   UNL     1       2.956   6.328  19.567  0.00  0.00    +0.000 A 
ATOM      9  C   UNL     1       2.114   7.212  20.253  0.00  0.00    +0.000 A 
ATOM     10  H   UNL     1       3.426   4.667  20.832  0.00  0.00    +0.000 HD
ENDROOT
BRANCH   1  11
ATOM     11  N   UNL     1       0.974   9.393  20.227  0.00  0.00    +0.000 N 
ATOM     12  H   UNL     1       0.345   8.975  20.910  0.00  0.00    +0.000 HD
BRANCH  11  17
ATOM     13  C   UNL     1      -1.030  11.755  18.128  0.00  0.00    +0.000 A 
ATOM     14  C   UNL     1      -0.362  12.948  18.408  0.00  0.00    +0.000 A 
ATOM     15  C   UNL     1       0.707  12.967  19.303  0.00  0.00    +0.000 A 
ATOM     16  C   UNL     1       1.123  11.791  19.917  0.00  0.00    +0.000 A 
ATOM     17  C   UNL     1       0.451  10.585  19.680  0.00  0.00    +0.000 A 
ATOM     18  C   UNL     1      -0.638  10.583  18.792  0.00  0.00    +0.000 A 
BRANCH  13  21
ATOM     19  C   UNL     1      -3.426  11.497  17.494  0.00  0.00    +0.000 C 
ATOM     20  O   UNL     1      -3.915  11.475  18.622  0.00  0.00    +0.000 OA
ATOM     21  N   UNL     1      -2.083  11.670  17.190  0.00  0.00    +0.000 N 
ATOM     22  H   UNL     1      -1.867  11.939  16.237  0.00  0.00    +0.000 HD
BRANCH  19  23
ATOM     23  C   UNL     1      -4.317  11.384  16.266  0.00  0.00    +0.000 C 
BRANCH  23  25
ATOM     24  C   UNL     1      -3.539   9.781  14.493  0.00  0.00    +0.000 C 
ATOM     25  C   UNL     1      -3.500  10.990  15.070  0.00  0.00    +0.000 C 
ENDBRANCH  23  25
ENDBRANCH  19  23
ENDBRANCH  13  21
ENDBRANCH  11  17
ENDBRANCH   1  11
BRANCH   5  26
ATOM     26  C   UNL     1       5.163   5.386  16.851  0.00  0.00    +0.000 C 
ATOM     27  C   UNL     1       4.753   4.907  15.665  0.00  0.00    +0.000 C 
BRANCH  27  28
ATOM     28  C   UNL     1       5.602   4.575  14.511  0.00  0.00    +0.000 A 
ATOM     29  C   UNL     1       6.869   5.177  14.456  0.00  0.00    +0.000 A 
ATOM     30  C   UNL     1       7.724   4.960  13.374  0.00  0.00    +0.000 A 
ATOM     31  C   UNL     1       7.326   4.125  12.334  0.00  0.00    +0.000 A 
ATOM     32  C   UNL     1       6.081   3.501  12.387  0.00  0.00    +0.000 A 
ATOM     33  C   UNL     1       5.223   3.719  13.471  0.00  0.00    +0.000 A 
ENDBRANCH  27  28
ENDBRANCH   5  26
TORSDOF 7
ENDMDL
MODEL 9
REMARK VINA RESULT:      -8.4      3.318     10.342
REMARK  Name = 
REMARK  7 active torsions:
REMARK  status: ('A' for Active; 'I' for Inactive)
REMARK    1  A    between atoms: C_2  and  C_3
REMARK    2  A    between atoms: C_3  and  C_4
REMARK    3  A    between atoms: N_6  and  C_7
REMARK    4  A    between atoms: C_11  and  N_12
REMARK    5  A    between atoms: N_12  and  C_13
REMARK    6  A    between atoms: C_17  and  C_18
REMARK    7  A    between atoms: C_19  and  C_20
REMARK                            x       y       z     vdW  Elec       q    Type
REMARK                         _______ _______ _______ _____ _____    ______ ____
ROOT
ATOM      1  C   UNL     1       1.952   7.525  20.040  0.00  0.00    +0.000 A 
ATOM      2  C   UNL     1       2.296   8.081  18.801  0.00  0.00    +0.000 A 
ATOM      3  C   UNL     1       2.978   7.340  17.828  0.00  0.00    +0.000 A 
ATOM      4  C   UNL     1       3.345   6.013  18.118  0.00  0.00    +0.000 A 
ATOM      5  C   UNL     1       4.099   4.986  17.475  0.00  0.00    +0.000 A 
ATOM      6  N   UNL     1       4.136   3.873  18.223  0.00  0.00    +0.000 NA
ATOM      7  N   UNL     1       3.474   4.202  19.340  0.00  0.00    +0.000 N 
ATOM      8  C   UNL     1       2.985   5.477  19.350  0.00  0.00    +0.000 A 
ATOM      9  C   UNL     1       2.299   6.199  20.333  0.00  0.00    +0.000 A 
ATOM     10  H   UNL     1       3.412   3.510  20.079  0.00  0.00    +0.000 HD
ENDROOT
BRANCH   1  11
ATOM     11  N   UNL     1       1.374   8.379  21.005  0.00  0.00    +0.000 N 
ATOM     12  H   UNL     1       1.239   7.867  21.875  0.00  0.00    +0.000 HD
BRANCH  11  17
ATOM     13  C   UNL     1      -0.928  10.835  19.373  0.00  0.00    +0.000 A 
ATOM     14  C   UNL     1      -1.308  11.583  20.489  0.00  0.00    +0.000 A 
ATOM     15  C   UNL     1      -0.834  11.252  21.758  0.00  0.00    +0.000 A 
ATOM     16  C   UNL     1       0.031  10.174  21.919  0.00  0.00    +0.000 A 
ATOM     17  C   UNL     1       0.403   9.387  20.823  0.00  0.00    +0.000 A 
ATOM     18  C   UNL     1      -0.097   9.720  19.552  0.00  0.00    +0.000 A 
BRANCH  13  21
ATOM     19  C   UNL     1      -2.369  10.558  17.360  0.00  0.00    +0.000 C 
ATOM     20  O   UNL     1      -3.143   9.710  17.801  0.00  0.00    +0.000 OA
ATOM     21  N   UNL     1      -1.334  11.161  18.060  0.00  0.00    +0.000 N 
ATOM     22  H   UNL     1      -0.965  12.020  17.669  0.00  0.00    +0.000 HD
BRANCH  19  23
ATOM     23  C   UNL     1      -2.531  11.085  15.942  0.00  0.00    +0.000 C 
BRANCH  23  25
ATOM     24  C   UNL     1      -2.986   9.759  13.855  0.00  0.00    +0.000 C 
ATOM     25  C   UNL     1      -3.304  10.103  15.111  0.00  0.00    +0.000 C 
ENDBRANCH  23  25
ENDBRANCH  19  23
ENDBRANCH  13  21
ENDBRANCH  11  17
ENDBRANCH   1  11
BRANCH   5  26
ATOM     26  C   UNL     1       4.828   5.149  16.246  0.00  0.00    +0.000 C 
ATOM     27  C   UNL     1       4.924   4.190  15.310  0.00  0.00    +0.000 C 
BRANCH  27  28
ATOM     28  C   UNL     1       5.816   4.188  14.143  0.00  0.00    +0.000 A 
ATOM     29  C   UNL     1       6.957   5.004  14.209  0.00  0.00    +0.000 A 
ATOM     30  C   UNL     1       7.835   5.105  13.129  0.00  0.00    +0.000 A 
ATOM     31  C   UNL     1       7.590   4.380  11.968  0.00  0.00    +0.000 A 
ATOM     32  C   UNL     1       6.475   3.547  11.895  0.00  0.00    +0.000 A 
ATOM     33  C   UNL     1       5.594   3.446  12.978  0.00  0.00    +0.000 A 
ENDBRANCH  27  28
ENDBRANCH   5  26
TORSDOF 7
ENDMDL
