MODEL 1
REMARK VINA RESULT:      -7.1      0.000      0.000
REMARK  Name = 
REMARK  3 active torsions:
REMARK  status: ('A' for Active; 'I' for Inactive)
REMARK    1  A    between atoms: C_1  and  C_2
REMARK    2  A    between atoms: C_2  and  C_3
REMARK    3  A    between atoms: C_11  and  N_12
REMARK                            x       y       z     vdW  Elec       q    Type
REMARK                         _______ _______ _______ _____ _____    ______ ____
ROOT
ATOM      1  C   UNL     1       4.468   3.896  17.222  0.00  0.00    +0.000 C 
ATOM      2  C   UNL     1       3.898   4.174  18.639  0.00  0.00    +0.000 C 
ATOM      3  C   UNL     1       4.956   5.084  19.321  0.00  0.00    +0.000 C 
ATOM      4  C   UNL     1       2.530   4.935  18.526  0.00  0.00    +0.000 C 
ATOM      5  C   UNL     1       1.474   4.067  17.805  0.00  0.00    +0.000 C 
ATOM      6  C   UNL     1       1.236   2.762  18.584  0.00  0.00    +0.000 C 
ATOM      7  C   UNL     1       0.705   3.107  19.983  0.00  0.00    +0.000 C 
ATOM      8  C   UNL     1       1.734   3.977  20.727  0.00  0.00    +0.000 C 
ATOM      9  C   UNL     1       1.966   5.267  19.927  0.00  0.00    +0.000 C 
ATOM     10  C   UNL     1       3.049   3.189  20.857  0.00  0.00    +0.000 C 
ATOM     11  C   UNL     1       3.624   2.847  19.454  0.00  0.00    +0.000 C 
ATOM     12  C   UNL     1       2.555   1.984  18.728  0.00  0.00    +0.000 C 
ENDROOT
BRANCH  11  13
ATOM     13  N   UNL     1       4.823   2.027  19.641  0.00  0.00    +0.000 NA
ATOM     14  H   UNL     1       5.421   2.081  18.818  0.00  0.00    +0.000 HD
ATOM     15  H   UNL     1       4.570   1.048  19.753  0.00  0.00    +0.000 HD
ENDBRANCH  11  13
TORSDOF 1
ENDMDL
MODEL 2
REMARK VINA RESULT:      -6.9      0.861      2.066
REMARK  Name = 
REMARK  3 active torsions:
REMARK  status: ('A' for Active; 'I' for Inactive)
REMARK    1  A    between atoms: C_1  and  C_2
REMARK    2  A    between atoms: C_2  and  C_3
REMARK    3  A    between atoms: C_11  and  N_12
REMARK                            x       y       z     vdW  Elec       q    Type
REMARK                         _______ _______ _______ _____ _____    ______ ____
ROOT
ATOM      1  C   UNL     1       3.086   1.815  17.792  0.00  0.00    +0.000 C 
ATOM      2  C   UNL     1       3.282   3.339  18.015  0.00  0.00    +0.000 C 
ATOM      3  C   UNL     1       4.162   3.804  16.823  0.00  0.00    +0.000 C 
ATOM      4  C   UNL     1       1.892   4.068  17.971  0.00  0.00    +0.000 C 
ATOM      5  C   UNL     1       0.978   3.585  19.120  0.00  0.00    +0.000 C 
ATOM      6  C   UNL     1       1.633   3.877  20.480  0.00  0.00    +0.000 C 
ATOM      7  C   UNL     1       1.828   5.394  20.623  0.00  0.00    +0.000 C 
ATOM      8  C   UNL     1       2.730   5.909  19.489  0.00  0.00    +0.000 C 
ATOM      9  C   UNL     1       2.065   5.596  18.141  0.00  0.00    +0.000 C 
ATOM     10  C   UNL     1       4.096   5.206  19.584  0.00  0.00    +0.000 C 
ATOM     11  C   UNL     1       3.934   3.669  19.416  0.00  0.00    +0.000 C 
ATOM     12  C   UNL     1       3.006   3.187  20.566  0.00  0.00    +0.000 C 
ENDROOT
BRANCH  11  13
ATOM     13  N   UNL     1       5.248   3.050  19.601  0.00  0.00    +0.000 NA
ATOM     14  H   UNL     1       5.250   2.462  20.431  0.00  0.00    +0.000 HD
ATOM     15  H   UNL     1       5.959   3.763  19.747  0.00  0.00    +0.000 HD
ENDBRANCH  11  13
TORSDOF 1
ENDMDL
MODEL 3
REMARK VINA RESULT:      -6.6      1.435      2.934
REMARK  Name = 
REMARK  3 active torsions:
REMARK  status: ('A' for Active; 'I' for Inactive)
REMARK    1  A    between atoms: C_1  and  C_2
REMARK    2  A    between atoms: C_2  and  C_3
REMARK    3  A    between atoms: C_11  and  N_12
REMARK                            x       y       z     vdW  Elec       q    Type
REMARK                         _______ _______ _______ _____ _____    ______ ____
ROOT
ATOM      1  C   UNL     1       5.309   4.592  19.102  0.00  0.00    +0.000 C 
ATOM      2  C   UNL     1       4.045   4.048  18.382  0.00  0.00    +0.000 C 
ATOM      3  C   UNL     1       4.468   3.900  16.896  0.00  0.00    +0.000 C 
ATOM      4  C   UNL     1       3.656   2.646  18.972  0.00  0.00    +0.000 C 
ATOM      5  C   UNL     1       3.278   2.761  20.466  0.00  0.00    +0.000 C 
ATOM      6  C   UNL     1       2.078   3.707  20.641  0.00  0.00    +0.000 C 
ATOM      7  C   UNL     1       0.875   3.129  19.881  0.00  0.00    +0.000 C 
ATOM      8  C   UNL     1       1.220   2.997  18.388  0.00  0.00    +0.000 C 
ATOM      9  C   UNL     1       2.428   2.061  18.236  0.00  0.00    +0.000 C 
ATOM     10  C   UNL     1       1.557   4.392  17.831  0.00  0.00    +0.000 C 
ATOM     11  C   UNL     1       2.789   4.991  18.564  0.00  0.00    +0.000 C 
ATOM     12  C   UNL     1       2.411   5.095  20.068  0.00  0.00    +0.000 C 
ENDROOT
BRANCH  11  13
ATOM     13  N   UNL     1       3.008   6.347  18.054  0.00  0.00    +0.000 NA
ATOM     14  H   UNL     1       3.763   6.351  17.371  0.00  0.00    +0.000 HD
ATOM     15  H   UNL     1       3.294   6.968  18.808  0.00  0.00    +0.000 HD
ENDBRANCH  11  13
TORSDOF 1
ENDMDL
MODEL 4
REMARK VINA RESULT:      -6.5      1.026      3.244
REMARK  Name = 
REMARK  3 active torsions:
REMARK  status: ('A' for Active; 'I' for Inactive)
REMARK    1  A    between atoms: C_1  and  C_2
REMARK    2  A    between atoms: C_2  and  C_3
REMARK    3  A    between atoms: C_11  and  N_12
REMARK                            x       y       z     vdW  Elec       q    Type
REMARK                         _______ _______ _______ _____ _____    ______ ____
ROOT
ATOM      1  C   UNL     1       2.436   3.148  21.395  0.00  0.00    +0.000 C 
ATOM      2  C   UNL     1       2.486   3.125  19.843  0.00  0.00    +0.000 C 
ATOM      3  C   UNL     1       1.781   1.800  19.443  0.00  0.00    +0.000 C 
ATOM      4  C   UNL     1       1.693   4.350  19.264  0.00  0.00    +0.000 C 
ATOM      5  C   UNL     1       2.348   5.683  19.691  0.00  0.00    +0.000 C 
ATOM      6  C   UNL     1       3.794   5.756  19.172  0.00  0.00    +0.000 C 
ATOM      7  C   UNL     1       3.775   5.696  17.637  0.00  0.00    +0.000 C 
ATOM      8  C   UNL     1       3.123   4.381  17.178  0.00  0.00    +0.000 C 
ATOM      9  C   UNL     1       1.686   4.321  17.718  0.00  0.00    +0.000 C 
ATOM     10  C   UNL     1       3.945   3.201  17.727  0.00  0.00    +0.000 C 
ATOM     11  C   UNL     1       3.961   3.221  19.281  0.00  0.00    +0.000 C 
ATOM     12  C   UNL     1       4.609   4.567  19.708  0.00  0.00    +0.000 C 
ENDROOT
BRANCH  11  13
ATOM     13  N   UNL     1       4.825   2.132  19.742  0.00  0.00    +0.000 NA
ATOM     14  H   UNL     1       5.029   2.237  20.734  0.00  0.00    +0.000 HD
ATOM     15  H   UNL     1       5.719   2.158  19.256  0.00  0.00    +0.000 HD
ENDBRANCH  11  13
TORSDOF 1
ENDMDL
MODEL 5
REMARK VINA RESULT:      -6.5      1.608      3.309
REMARK  Name = 
REMARK  3 active torsions:
REMARK  status: ('A' for Active; 'I' for Inactive)
REMARK    1  A    between atoms: C_1  and  C_2
REMARK    2  A    between atoms: C_2  and  C_3
REMARK    3  A    between atoms: C_11  and  N_12
REMARK                            x       y       z     vdW  Elec       q    Type
REMARK                         _______ _______ _______ _____ _____    ______ ____
ROOT
ATOM      1  C   UNL     1       2.235   2.973  21.570  0.00  0.00    +0.000 C 
ATOM      2  C   UNL     1       2.201   3.898  20.324  0.00  0.00    +0.000 C 
ATOM      3  C   UNL     1       1.429   5.162  20.789  0.00  0.00    +0.000 C 
ATOM      4  C   UNL     1       3.663   4.287  19.906  0.00  0.00    +0.000 C 
ATOM      5  C   UNL     1       4.468   3.036  19.485  0.00  0.00    +0.000 C 
ATOM      6  C   UNL     1       3.793   2.346  18.289  0.00  0.00    +0.000 C 
ATOM      7  C   UNL     1       3.762   3.322  17.103  0.00  0.00    +0.000 C 
ATOM      8  C   UNL     1       2.970   4.583  17.491  0.00  0.00    +0.000 C 
ATOM      9  C   UNL     1       3.653   5.249  18.695  0.00  0.00    +0.000 C 
ATOM     10  C   UNL     1       1.532   4.174  17.856  0.00  0.00    +0.000 C 
ATOM     11  C   UNL     1       1.531   3.204  19.071  0.00  0.00    +0.000 C 
ATOM     12  C   UNL     1       2.350   1.953  18.650  0.00  0.00    +0.000 C 
ENDROOT
BRANCH  11  13
ATOM     13  N   UNL     1       0.149   2.784  19.317  0.00  0.00    +0.000 NA
ATOM     14  H   UNL     1      -0.499   3.519  19.040  0.00  0.00    +0.000 HD
ATOM     15  H   UNL     1      -0.002   2.622  20.310  0.00  0.00    +0.000 HD
ENDBRANCH  11  13
TORSDOF 1
ENDMDL
MODEL 6
REMARK VINA RESULT:      -6.3      1.588      3.428
REMARK  Name = 
REMARK  3 active torsions:
REMARK  status: ('A' for Active; 'I' for Inactive)
REMARK    1  A    between atoms: C_1  and  C_2
REMARK    2  A    between atoms: C_2  and  C_3
REMARK    3  A    between atoms: C_11  and  N_12
REMARK                            x       y       z     vdW  Elec       q    Type
REMARK                         _______ _______ _______ _____ _____    ______ ____
ROOT
ATOM      1  C   UNL     1       0.513   3.332  20.123  0.00  0.00    +0.000 C 
ATOM      2  C   UNL     1       2.061   3.440  20.175  0.00  0.00    +0.000 C 
ATOM      3  C   UNL     1       2.424   3.217  21.668  0.00  0.00    +0.000 C 
ATOM      4  C   UNL     1       2.706   2.313  19.293  0.00  0.00    +0.000 C 
ATOM      5  C   UNL     1       2.317   2.484  17.806  0.00  0.00    +0.000 C 
ATOM      6  C   UNL     1       2.806   3.845  17.282  0.00  0.00    +0.000 C 
ATOM      7  C   UNL     1       4.337   3.899  17.391  0.00  0.00    +0.000 C 
ATOM      8  C   UNL     1       4.758   3.725  18.860  0.00  0.00    +0.000 C 
ATOM      9  C   UNL     1       4.249   2.368  19.368  0.00  0.00    +0.000 C 
ATOM     10  C   UNL     1       4.145   4.867  19.691  0.00  0.00    +0.000 C 
ATOM     11  C   UNL     1       2.592   4.821  19.620  0.00  0.00    +0.000 C 
ATOM     12  C   UNL     1       2.205   4.983  18.124  0.00  0.00    +0.000 C 
ENDROOT
BRANCH  11  13
ATOM     13  N   UNL     1       2.070   5.976  20.355  0.00  0.00    +0.000 NA
ATOM     14  H   UNL     1       1.294   5.695  20.951  0.00  0.00    +0.000 HD
ATOM     15  H   UNL     1       1.704   6.672  19.708  0.00  0.00    +0.000 HD
ENDBRANCH  11  13
TORSDOF 1
ENDMDL
MODEL 7
REMARK VINA RESULT:      -6.3      1.155      3.051
REMARK  Name = 
REMARK  3 active torsions:
REMARK  status: ('A' for Active; 'I' for Inactive)
REMARK    1  A    between atoms: C_1  and  C_2
REMARK    2  A    between atoms: C_2  and  C_3
REMARK    3  A    between atoms: C_11  and  N_12
REMARK                            x       y       z     vdW  Elec       q    Type
REMARK                         _______ _______ _______ _____ _____    ______ ____
ROOT
ATOM      1  C   UNL     1       4.398   2.171  20.516  0.00  0.00    +0.000 C 
ATOM      2  C   UNL     1       3.645   2.674  19.255  0.00  0.00    +0.000 C 
ATOM      3  C   UNL     1       3.598   1.447  18.305  0.00  0.00    +0.000 C 
ATOM      4  C   UNL     1       2.186   3.109  19.641  0.00  0.00    +0.000 C 
ATOM      5  C   UNL     1       2.208   4.299  20.627  0.00  0.00    +0.000 C 
ATOM      6  C   UNL     1       2.917   5.505  19.989  0.00  0.00    +0.000 C 
ATOM      7  C   UNL     1       2.142   5.931  18.733  0.00  0.00    +0.000 C 
ATOM      8  C   UNL     1       2.098   4.765  17.732  0.00  0.00    +0.000 C 
ATOM      9  C   UNL     1       1.399   3.568  18.392  0.00  0.00    +0.000 C 
ATOM     10  C   UNL     1       3.539   4.390  17.342  0.00  0.00    +0.000 C 
ATOM     11  C   UNL     1       4.341   3.929  18.592  0.00  0.00    +0.000 C 
ATOM     12  C   UNL     1       4.351   5.123  19.586  0.00  0.00    +0.000 C 
ENDROOT
BRANCH  11  13
ATOM     13  N   UNL     1       5.721   3.669  18.176  0.00  0.00    +0.000 NA
ATOM     14  H   UNL     1       5.795   2.747  17.750  0.00  0.00    +0.000 HD
ATOM     15  H   UNL     1       6.341   3.667  18.984  0.00  0.00    +0.000 HD
ENDBRANCH  11  13
TORSDOF 1
ENDMDL
MODEL 8
REMARK VINA RESULT:      -6.3      1.345      1.827
REMARK  Name = 
REMARK  3 active torsions:
REMARK  status: ('A' for Active; 'I' for Inactive)
REMARK    1  A    between atoms: C_1  and  C_2
REMARK    2  A    between atoms: C_2  and  C_3
REMARK    3  A    between atoms: C_11  and  N_12
REMARK                            x       y       z     vdW  Elec       q    Type
REMARK                         _______ _______ _______ _____ _____    ______ ____
ROOT
ATOM      1  C   UNL     1       5.099   3.955  16.727  0.00  0.00    +0.000 C 
ATOM      2  C   UNL     1       4.006   4.532  17.667  0.00  0.00    +0.000 C 
ATOM      3  C   UNL     1       3.955   6.047  17.331  0.00  0.00    +0.000 C 
ATOM      4  C   UNL     1       2.621   3.866  17.348  0.00  0.00    +0.000 C 
ATOM      5  C   UNL     1       2.662   2.346  17.627  0.00  0.00    +0.000 C 
ATOM      6  C   UNL     1       2.993   2.085  19.106  0.00  0.00    +0.000 C 
ATOM      7  C   UNL     1       1.894   2.708  19.980  0.00  0.00    +0.000 C 
ATOM      8  C   UNL     1       1.823   4.222  19.721  0.00  0.00    +0.000 C 
ATOM      9  C   UNL     1       1.505   4.461  18.238  0.00  0.00    +0.000 C 
ATOM     10  C   UNL     1       3.181   4.851  20.081  0.00  0.00    +0.000 C 
ATOM     11  C   UNL     1       4.311   4.259  19.193  0.00  0.00    +0.000 C 
ATOM     12  C   UNL     1       4.343   2.729  19.468  0.00  0.00    +0.000 C 
ENDROOT
BRANCH  11  13
ATOM     13  N   UNL     1       5.585   4.829  19.638  0.00  0.00    +0.000 NA
ATOM     14  H   UNL     1       5.800   5.671  19.108  0.00  0.00    +0.000 HD
ATOM     15  H   UNL     1       6.346   4.175  19.466  0.00  0.00    +0.000 HD
ENDBRANCH  11  13
TORSDOF 1
ENDMDL
MODEL 9
REMARK VINA RESULT:      -6.2      1.402      3.254
REMARK  Name = 
REMARK  3 active torsions:
REMARK  status: ('A' for Active; 'I' for Inactive)
REMARK    1  A    between atoms: C_1  and  C_2
REMARK    2  A    between atoms: C_2  and  C_3
REMARK    3  A    between atoms: C_11  and  N_12
REMARK                            x       y       z     vdW  Elec       q    Type
REMARK                         _______ _______ _______ _____ _____    ______ ____
ROOT
ATOM      1  C   UNL     1       3.068   2.514  21.019  0.00  0.00    +0.000 C 
ATOM      2  C   UNL     1       2.459   3.592  20.082  0.00  0.00    +0.000 C 
ATOM      3  C   UNL     1       1.103   3.967  20.739  0.00  0.00    +0.000 C 
ATOM      4  C   UNL     1       3.397   4.850  20.033  0.00  0.00    +0.000 C 
ATOM      5  C   UNL     1       4.773   4.489  19.429  0.00  0.00    +0.000 C 
ATOM      6  C   UNL     1       4.602   3.960  17.995  0.00  0.00    +0.000 C 
ATOM      7  C   UNL     1       3.967   5.059  17.131  0.00  0.00    +0.000 C 
ATOM      8  C   UNL     1       2.595   5.445  17.710  0.00  0.00    +0.000 C 
ATOM      9  C   UNL     1       2.787   5.958  19.145  0.00  0.00    +0.000 C 
ATOM     10  C   UNL     1       1.687   4.203  17.707  0.00  0.00    +0.000 C 
ATOM     11  C   UNL     1       2.293   3.081  18.596  0.00  0.00    +0.000 C 
ATOM     12  C   UNL     1       3.681   2.728  17.992  0.00  0.00    +0.000 C 
ENDROOT
BRANCH  11  13
ATOM     13  N   UNL     1       1.433   1.899  18.486  0.00  0.00    +0.000 NA
ATOM     14  H   UNL     1       0.616   2.108  17.916  0.00  0.00    +0.000 HD
ATOM     15  H   UNL     1       1.087   1.626  19.403  0.00  0.00    +0.000 HD
ENDBRANCH  11  13
TORSDOF 1
ENDMDL
