MODEL 1
REMARK VINA RESULT:      -8.0      0.000      0.000
REMARK  Name = 
REMARK  2 active torsions:
REMARK  status: ('A' for Active; 'I' for Inactive)
REMARK    1  A    between atoms: C_4  and  C_5
REMARK    2  A    between atoms: C_9  and  C_10
REMARK                            x       y       z     vdW  Elec       q    Type
REMARK                         _______ _______ _______ _____ _____    ______ ____
ROOT
ATOM      1  C   UNL     1       4.171   4.417  18.252  0.00  0.00    +0.000 A 
ATOM      2  C   UNL     1       3.880   3.627  17.128  0.00  0.00    +0.000 A 
ATOM      3  C   UNL     1       2.692   2.897  17.048  0.00  0.00    +0.000 A 
ATOM      4  C   UNL     1       1.779   2.935  18.099  0.00  0.00    +0.000 A 
ATOM      5  C   UNL     1       2.045   3.712  19.236  0.00  0.00    +0.000 A 
ATOM      6  C   UNL     1       3.231   4.451  19.294  0.00  0.00    +0.000 A 
ATOM      7  F   UNL     1       3.445   5.215  20.377  0.00  0.00    +0.000 F 
ENDROOT
BRANCH   1  11
ATOM      8  N   UNL     1       8.511   5.524  19.991  0.00  0.00    +0.000 N 
ATOM      9  C   UNL     1       7.436   5.603  19.187  0.00  0.00    +0.000 A 
ATOM     10  N   UNL     1       6.383   4.834  19.317  0.00  0.00    +0.000 NA
ATOM     11  C   UNL     1       5.434   5.147  18.351  0.00  0.00    +0.000 A 
ATOM     12  C   UNL     1       5.827   6.165  17.506  0.00  0.00    +0.000 A 
ATOM     13  F   UNL     1       5.115   6.648  16.520  0.00  0.00    +0.000 F 
ATOM     14  S   UNL     1       7.382   6.722  17.890  0.00  0.00    +0.000 S 
ATOM     15  H   UNL     1       8.574   4.697  20.574  0.00  0.00    +0.000 HD
ATOM     16  H   UNL     1       9.397   5.877  19.654  0.00  0.00    +0.000 HD
ENDBRANCH   1  11
BRANCH   5  17
ATOM     17  C   UNL     1       1.091   3.760  20.393  0.00  0.00    +0.000 C 
ATOM     18  F   UNL     1       1.643   3.293  21.552  0.00  0.00    +0.000 F 
ATOM     19  F   UNL     1       0.664   5.019  20.682  0.00  0.00    +0.000 F 
ATOM     20  F   UNL     1      -0.026   3.008  20.197  0.00  0.00    +0.000 F 
ENDBRANCH   5  17
TORSDOF 2
ENDMDL
MODEL 2
REMARK VINA RESULT:      -7.6      3.328      5.734
REMARK  Name = 
REMARK  2 active torsions:
REMARK  status: ('A' for Active; 'I' for Inactive)
REMARK    1  A    between atoms: C_4  and  C_5
REMARK    2  A    between atoms: C_9  and  C_10
REMARK                            x       y       z     vdW  Elec       q    Type
REMARK                         _______ _______ _______ _____ _____    ______ ____
ROOT
ATOM      1  C   UNL     1       3.604   5.095  17.879  0.00  0.00    +0.000 A 
ATOM      2  C   UNL     1       3.749   6.485  18.029  0.00  0.00    +0.000 A 
ATOM      3  C   UNL     1       4.576   7.219  17.176  0.00  0.00    +0.000 A 
ATOM      4  C   UNL     1       5.283   6.574  16.165  0.00  0.00    +0.000 A 
ATOM      5  C   UNL     1       5.161   5.187  15.993  0.00  0.00    +0.000 A 
ATOM      6  C   UNL     1       4.316   4.467  16.844  0.00  0.00    +0.000 A 
ATOM      7  F   UNL     1       4.188   3.147  16.637  0.00  0.00    +0.000 F 
ENDROOT
BRANCH   1  11
ATOM      8  N   UNL     1       2.463   2.806  21.946  0.00  0.00    +0.000 N 
ATOM      9  C   UNL     1       2.296   3.293  20.704  0.00  0.00    +0.000 A 
ATOM     10  N   UNL     1       3.228   3.949  20.057  0.00  0.00    +0.000 NA
ATOM     11  C   UNL     1       2.771   4.324  18.798  0.00  0.00    +0.000 A 
ATOM     12  C   UNL     1       1.474   3.926  18.546  0.00  0.00    +0.000 A 
ATOM     13  F   UNL     1       0.815   4.150  17.438  0.00  0.00    +0.000 F 
ATOM     14  S   UNL     1       0.807   3.109  19.874  0.00  0.00    +0.000 S 
ATOM     15  H   UNL     1       3.267   3.152  22.458  0.00  0.00    +0.000 HD
ATOM     16  H   UNL     1       1.645   2.624  22.511  0.00  0.00    +0.000 HD
ENDBRANCH   1  11
BRANCH   5  17
ATOM     17  C   UNL     1       5.922   4.460  14.925  0.00  0.00    +0.000 C 
ATOM     18  F   UNL     1       6.929   5.212  14.389  0.00  0.00    +0.000 F 
ATOM     19  F   UNL     1       6.525   3.326  15.377  0.00  0.00    +0.000 F 
ATOM     20  F   UNL     1       5.146   4.091  13.870  0.00  0.00    +0.000 F 
ENDBRANCH   5  17
TORSDOF 2
ENDMDL
MODEL 3
REMARK VINA RESULT:      -7.6      3.766      4.646
REMARK  Name = 
REMARK  2 active torsions:
REMARK  status: ('A' for Active; 'I' for Inactive)
REMARK    1  A    between atoms: C_4  and  C_5
REMARK    2  A    between atoms: C_9  and  C_10
REMARK                            x       y       z     vdW  Elec       q    Type
REMARK                         _______ _______ _______ _____ _____    ______ ____
ROOT
ATOM      1  C   UNL     1       2.483   7.204  18.759  0.00  0.00    +0.000 A 
ATOM      2  C   UNL     1       2.518   8.200  17.768  0.00  0.00    +0.000 A 
ATOM      3  C   UNL     1       1.890   9.432  17.964  0.00  0.00    +0.000 A 
ATOM      4  C   UNL     1       1.205   9.685  19.149  0.00  0.00    +0.000 A 
ATOM      5  C   UNL     1       1.150   8.709  20.154  0.00  0.00    +0.000 A 
ATOM      6  C   UNL     1       1.798   7.485  19.952  0.00  0.00    +0.000 A 
ATOM      7  F   UNL     1       1.761   6.580  20.943  0.00  0.00    +0.000 F 
ENDROOT
BRANCH   1  11
ATOM      8  N   UNL     1       5.912   3.847  18.991  0.00  0.00    +0.000 N 
ATOM      9  C   UNL     1       4.720   4.387  18.686  0.00  0.00    +0.000 A 
ATOM     10  N   UNL     1       4.395   5.624  18.976  0.00  0.00    +0.000 NA
ATOM     11  C   UNL     1       3.105   5.901  18.535  0.00  0.00    +0.000 A 
ATOM     12  C   UNL     1       2.495   4.828  17.919  0.00  0.00    +0.000 A 
ATOM     13  F   UNL     1       1.288   4.831  17.413  0.00  0.00    +0.000 F 
ATOM     14  S   UNL     1       3.504   3.466  17.903  0.00  0.00    +0.000 S 
ATOM     15  H   UNL     1       6.481   4.363  19.652  0.00  0.00    +0.000 HD
ATOM     16  H   UNL     1       5.987   2.841  19.060  0.00  0.00    +0.000 HD
ENDBRANCH   1  11
BRANCH   5  17
ATOM     17  C   UNL     1       0.405   8.943  21.435  0.00  0.00    +0.000 C 
ATOM     18  F   UNL     1      -0.165  10.184  21.495  0.00  0.00    +0.000 F 
ATOM     19  F   UNL     1      -0.620   8.069  21.624  0.00  0.00    +0.000 F 
ATOM     20  F   UNL     1       1.196   8.856  22.539  0.00  0.00    +0.000 F 
ENDBRANCH   5  17
TORSDOF 2
ENDMDL
MODEL 4
REMARK VINA RESULT:      -7.5      1.641      2.349
REMARK  Name = 
REMARK  2 active torsions:
REMARK  status: ('A' for Active; 'I' for Inactive)
REMARK    1  A    between atoms: C_4  and  C_5
REMARK    2  A    between atoms: C_9  and  C_10
REMARK                            x       y       z     vdW  Elec       q    Type
REMARK                         _______ _______ _______ _____ _____    ______ ____
ROOT
ATOM      1  C   UNL     1       3.849   5.106  19.327  0.00  0.00    +0.000 A 
ATOM      2  C   UNL     1       3.014   5.963  20.062  0.00  0.00    +0.000 A 
ATOM      3  C   UNL     1       1.700   5.601  20.369  0.00  0.00    +0.000 A 
ATOM      4  C   UNL     1       1.195   4.379  19.934  0.00  0.00    +0.000 A 
ATOM      5  C   UNL     1       2.004   3.504  19.195  0.00  0.00    +0.000 A 
ATOM      6  C   UNL     1       3.323   3.872  18.909  0.00  0.00    +0.000 A 
ATOM      7  F   UNL     1       4.088   3.002  18.231  0.00  0.00    +0.000 F 
ENDROOT
BRANCH   1  11
ATOM      8  N   UNL     1       8.613   5.489  19.822  0.00  0.00    +0.000 N 
ATOM      9  C   UNL     1       7.406   5.637  19.248  0.00  0.00    +0.000 A 
ATOM     10  N   UNL     1       6.294   5.204  19.789  0.00  0.00    +0.000 NA
ATOM     11  C   UNL     1       5.210   5.504  18.971  0.00  0.00    +0.000 A 
ATOM     12  C   UNL     1       5.563   6.164  17.813  0.00  0.00    +0.000 A 
ATOM     13  F   UNL     1       4.732   6.561  16.883  0.00  0.00    +0.000 F 
ATOM     14  S   UNL     1       7.240   6.396  17.719  0.00  0.00    +0.000 S 
ATOM     15  H   UNL     1       8.663   4.833  20.594  0.00  0.00    +0.000 HD
ATOM     16  H   UNL     1       9.436   5.522  19.237  0.00  0.00    +0.000 HD
ENDBRANCH   1  11
BRANCH   5  17
ATOM     17  C   UNL     1       1.484   2.188  18.696  0.00  0.00    +0.000 C 
ATOM     18  F   UNL     1       1.961   1.867  17.456  0.00  0.00    +0.000 F 
ATOM     19  F   UNL     1       1.827   1.141  19.494  0.00  0.00    +0.000 F 
ATOM     20  F   UNL     1       0.129   2.157  18.580  0.00  0.00    +0.000 F 
ENDBRANCH   5  17
TORSDOF 2
ENDMDL
MODEL 5
REMARK VINA RESULT:      -7.5      2.169      2.739
REMARK  Name = 
REMARK  2 active torsions:
REMARK  status: ('A' for Active; 'I' for Inactive)
REMARK    1  A    between atoms: C_4  and  C_5
REMARK    2  A    between atoms: C_9  and  C_10
REMARK                            x       y       z     vdW  Elec       q    Type
REMARK                         _______ _______ _______ _____ _____    ______ ____
ROOT
ATOM      1  C   UNL     1       3.655   5.365  18.813  0.00  0.00    +0.000 A 
ATOM      2  C   UNL     1       2.910   6.507  19.154  0.00  0.00    +0.000 A 
ATOM      3  C   UNL     1       1.912   6.451  20.130  0.00  0.00    +0.000 A 
ATOM      4  C   UNL     1       1.634   5.249  20.774  0.00  0.00    +0.000 A 
ATOM      5  C   UNL     1       2.359   4.092  20.452  0.00  0.00    +0.000 A 
ATOM      6  C   UNL     1       3.366   4.166  19.485  0.00  0.00    +0.000 A 
ATOM      7  F   UNL     1       4.070   3.054  19.220  0.00  0.00    +0.000 F 
ENDROOT
BRANCH   1  11
ATOM      8  N   UNL     1       7.668   6.830  16.614  0.00  0.00    +0.000 N 
ATOM      9  C   UNL     1       6.540   6.122  16.802  0.00  0.00    +0.000 A 
ATOM     10  N   UNL     1       5.758   6.279  17.843  0.00  0.00    +0.000 NA
ATOM     11  C   UNL     1       4.670   5.417  17.763  0.00  0.00    +0.000 A 
ATOM     12  C   UNL     1       4.682   4.622  16.636  0.00  0.00    +0.000 A 
ATOM     13  F   UNL     1       3.771   3.735  16.324  0.00  0.00    +0.000 F 
ATOM     14  S   UNL     1       6.052   4.920  15.682  0.00  0.00    +0.000 S 
ATOM     15  H   UNL     1       8.014   7.342  17.418  0.00  0.00    +0.000 HD
ATOM     16  H   UNL     1       8.384   6.450  16.010  0.00  0.00    +0.000 HD
ENDBRANCH   1  11
BRANCH   5  17
ATOM     17  C   UNL     1       2.071   2.777  21.114  0.00  0.00    +0.000 C 
ATOM     18  F   UNL     1       1.711   1.804  20.223  0.00  0.00    +0.000 F 
ATOM     19  F   UNL     1       3.141   2.270  21.783  0.00  0.00    +0.000 F 
ATOM     20  F   UNL     1       1.049   2.840  22.010  0.00  0.00    +0.000 F 
ENDBRANCH   5  17
TORSDOF 2
ENDMDL
MODEL 6
REMARK VINA RESULT:      -7.5      3.388      5.638
REMARK  Name = 
REMARK  2 active torsions:
REMARK  status: ('A' for Active; 'I' for Inactive)
REMARK    1  A    between atoms: C_4  and  C_5
REMARK    2  A    between atoms: C_9  and  C_10
REMARK                            x       y       z     vdW  Elec       q    Type
REMARK                         _______ _______ _______ _____ _____    ______ ____
ROOT
ATOM      1  C   UNL     1       3.879   5.058  18.309  0.00  0.00    +0.000 A 
ATOM      2  C   UNL     1       3.525   6.134  17.478  0.00  0.00    +0.000 A 
ATOM      3  C   UNL     1       4.478   7.068  17.063  0.00  0.00    +0.000 A 
ATOM      4  C   UNL     1       5.799   6.950  17.484  0.00  0.00    +0.000 A 
ATOM      5  C   UNL     1       6.181   5.888  18.317  0.00  0.00    +0.000 A 
ATOM      6  C   UNL     1       5.221   4.951  18.711  0.00  0.00    +0.000 A 
ATOM      7  F   UNL     1       5.619   3.924  19.479  0.00  0.00    +0.000 F 
ENDROOT
BRANCH   1  11
ATOM      8  N   UNL     1       1.017   2.847  21.472  0.00  0.00    +0.000 N 
ATOM      9  C   UNL     1       1.566   3.132  20.278  0.00  0.00    +0.000 A 
ATOM     10  N   UNL     1       2.499   4.037  20.112  0.00  0.00    +0.000 NA
ATOM     11  C   UNL     1       2.874   4.106  18.775  0.00  0.00    +0.000 A 
ATOM     12  C   UNL     1       2.182   3.228  17.966  0.00  0.00    +0.000 A 
ATOM     13  F   UNL     1       2.351   3.093  16.675  0.00  0.00    +0.000 F 
ATOM     14  S   UNL     1       1.050   2.330  18.853  0.00  0.00    +0.000 S 
ATOM     15  H   UNL     1       1.196   3.513  22.216  0.00  0.00    +0.000 HD
ATOM     16  H   UNL     1       0.104   2.415  21.496  0.00  0.00    +0.000 HD
ENDBRANCH   1  11
BRANCH   5  17
ATOM     17  C   UNL     1       7.593   5.743  18.803  0.00  0.00    +0.000 C 
ATOM     18  F   UNL     1       7.672   5.591  20.159  0.00  0.00    +0.000 F 
ATOM     19  F   UNL     1       8.227   4.657  18.284  0.00  0.00    +0.000 F 
ATOM     20  F   UNL     1       8.373   6.820  18.515  0.00  0.00    +0.000 F 
ENDBRANCH   5  17
TORSDOF 2
ENDMDL
MODEL 7
REMARK VINA RESULT:      -7.5      3.058      5.683
REMARK  Name = 
REMARK  2 active torsions:
REMARK  status: ('A' for Active; 'I' for Inactive)
REMARK    1  A    between atoms: C_4  and  C_5
REMARK    2  A    between atoms: C_9  and  C_10
REMARK                            x       y       z     vdW  Elec       q    Type
REMARK                         _______ _______ _______ _____ _____    ______ ____
ROOT
ATOM      1  C   UNL     1       4.842   4.700  18.657  0.00  0.00    +0.000 A 
ATOM      2  C   UNL     1       5.936   5.246  19.349  0.00  0.00    +0.000 A 
ATOM      3  C   UNL     1       7.124   5.560  18.684  0.00  0.00    +0.000 A 
ATOM      4  C   UNL     1       7.243   5.320  17.318  0.00  0.00    +0.000 A 
ATOM      5  C   UNL     1       6.169   4.771  16.602  0.00  0.00    +0.000 A 
ATOM      6  C   UNL     1       4.979   4.478  17.277  0.00  0.00    +0.000 A 
ATOM      7  F   UNL     1       3.953   3.987  16.564  0.00  0.00    +0.000 F 
ENDROOT
BRANCH   1  11
ATOM      8  N   UNL     1       2.117   2.431  21.899  0.00  0.00    +0.000 N 
ATOM      9  C   UNL     1       2.411   3.268  20.889  0.00  0.00    +0.000 A 
ATOM     10  N   UNL     1       3.618   3.406  20.398  0.00  0.00    +0.000 NA
ATOM     11  C   UNL     1       3.615   4.334  19.362  0.00  0.00    +0.000 A 
ATOM     12  C   UNL     1       2.370   4.875  19.114  0.00  0.00    +0.000 A 
ATOM     13  F   UNL     1       2.100   5.762  18.192  0.00  0.00    +0.000 F 
ATOM     14  S   UNL     1       1.203   4.255  20.177  0.00  0.00    +0.000 S 
ATOM     15  H   UNL     1       2.906   2.065  22.420  0.00  0.00    +0.000 HD
ATOM     16  H   UNL     1       1.287   2.607  22.450  0.00  0.00    +0.000 HD
ENDBRANCH   1  11
BRANCH   5  17
ATOM     17  C   UNL     1       6.271   4.483  15.134  0.00  0.00    +0.000 C 
ATOM     18  F   UNL     1       5.323   5.140  14.400  0.00  0.00    +0.000 F 
ATOM     19  F   UNL     1       7.463   4.860  14.597  0.00  0.00    +0.000 F 
ATOM     20  F   UNL     1       6.111   3.166  14.834  0.00  0.00    +0.000 F 
ENDBRANCH   5  17
TORSDOF 2
ENDMDL
MODEL 8
REMARK VINA RESULT:      -7.5      2.339      2.974
REMARK  Name = 
REMARK  2 active torsions:
REMARK  status: ('A' for Active; 'I' for Inactive)
REMARK    1  A    between atoms: C_4  and  C_5
REMARK    2  A    between atoms: C_9  and  C_10
REMARK                            x       y       z     vdW  Elec       q    Type
REMARK                         _______ _______ _______ _____ _____    ______ ____
ROOT
ATOM      1  C   UNL     1       3.749   5.404  19.103  0.00  0.00    +0.000 A 
ATOM      2  C   UNL     1       2.939   6.518  19.380  0.00  0.00    +0.000 A 
ATOM      3  C   UNL     1       1.833   6.411  20.227  0.00  0.00    +0.000 A 
ATOM      4  C   UNL     1       1.512   5.185  20.802  0.00  0.00    +0.000 A 
ATOM      5  C   UNL     1       2.300   4.055  20.541  0.00  0.00    +0.000 A 
ATOM      6  C   UNL     1       3.414   4.180  19.704  0.00  0.00    +0.000 A 
ATOM      7  F   UNL     1       4.174   3.093  19.497  0.00  0.00    +0.000 F 
ENDROOT
BRANCH   1  11
ATOM      8  N   UNL     1       5.978   5.750  14.861  0.00  0.00    +0.000 N 
ATOM      9  C   UNL     1       5.852   5.681  16.197  0.00  0.00    +0.000 A 
ATOM     10  N   UNL     1       4.697   5.560  16.806  0.00  0.00    +0.000 NA
ATOM     11  C   UNL     1       4.880   5.509  18.183  0.00  0.00    +0.000 A 
ATOM     12  C   UNL     1       6.203   5.603  18.565  0.00  0.00    +0.000 A 
ATOM     13  F   UNL     1       6.640   5.576  19.798  0.00  0.00    +0.000 F 
ATOM     14  S   UNL     1       7.224   5.778  17.222  0.00  0.00    +0.000 S 
ATOM     15  H   UNL     1       5.126   5.925  14.340  0.00  0.00    +0.000 HD
ATOM     16  H   UNL     1       6.810   6.175  14.472  0.00  0.00    +0.000 HD
ENDBRANCH   1  11
BRANCH   5  17
ATOM     17  C   UNL     1       1.970   2.716  21.130  0.00  0.00    +0.000 C 
ATOM     18  F   UNL     1       0.861   2.748  21.927  0.00  0.00    +0.000 F 
ATOM     19  F   UNL     1       1.706   1.769  20.189  0.00  0.00    +0.000 F 
ATOM     20  F   UNL     1       2.963   2.216  21.914  0.00  0.00    +0.000 F 
ENDBRANCH   5  17
TORSDOF 2
ENDMDL
MODEL 9
REMARK VINA RESULT:      -7.4      2.335      2.865
REMARK  Name = 
REMARK  2 active torsions:
REMARK  status: ('A' for Active; 'I' for Inactive)
REMARK    1  A    between atoms: C_4  and  C_5
REMARK    2  A    between atoms: C_9  and  C_10
REMARK                            x       y       z     vdW  Elec       q    Type
REMARK                         _______ _______ _______ _____ _____    ______ ____
ROOT
ATOM      1  C   UNL     1       4.042   4.838  18.743  0.00  0.00    +0.000 A 
ATOM      2  C   UNL     1       3.417   6.087  18.896  0.00  0.00    +0.000 A 
ATOM      3  C   UNL     1       2.336   6.249  19.766  0.00  0.00    +0.000 A 
ATOM      4  C   UNL     1       1.853   5.161  20.489  0.00  0.00    +0.000 A 
ATOM      5  C   UNL     1       2.456   3.902  20.354  0.00  0.00    +0.000 A 
ATOM      6  C   UNL     1       3.548   3.758  19.492  0.00  0.00    +0.000 A 
ATOM      7  F   UNL     1       4.130   2.551  19.407  0.00  0.00    +0.000 F 
ENDROOT
BRANCH   1  11
ATOM      8  N   UNL     1       6.179   3.608  14.620  0.00  0.00    +0.000 N 
ATOM      9  C   UNL     1       6.074   4.088  15.871  0.00  0.00    +0.000 A 
ATOM     10  N   UNL     1       4.946   4.118  16.538  0.00  0.00    +0.000 NA
ATOM     11  C   UNL     1       5.146   4.662  17.802  0.00  0.00    +0.000 A 
ATOM     12  C   UNL     1       6.453   5.034  18.037  0.00  0.00    +0.000 A 
ATOM     13  F   UNL     1       6.902   5.564  19.147  0.00  0.00    +0.000 F 
ATOM     14  S   UNL     1       7.436   4.735  16.688  0.00  0.00    +0.000 S 
ATOM     15  H   UNL     1       5.308   3.466  14.120  0.00  0.00    +0.000 HD
ATOM     16  H   UNL     1       6.954   3.912  14.046  0.00  0.00    +0.000 HD
ENDBRANCH   1  11
BRANCH   5  17
ATOM     17  C   UNL     1       1.948   2.706  21.104  0.00  0.00    +0.000 C 
ATOM     18  F   UNL     1       2.887   2.170  21.940  0.00  0.00    +0.000 F 
ATOM     19  F   UNL     1       0.881   2.988  21.899  0.00  0.00    +0.000 F 
ATOM     20  F   UNL     1       1.566   1.685  20.290  0.00  0.00    +0.000 F 
ENDBRANCH   5  17
TORSDOF 2
ENDMDL
