MODEL 1
REMARK VINA RESULT:      -7.8      0.000      0.000
REMARK  Name = 
REMARK  4 active torsions:
REMARK  status: ('A' for Active; 'I' for Inactive)
REMARK    1  A    between atoms: C_1  and  O_2
REMARK    2  A    between atoms: O_2  and  C_3
REMARK    3  A    between atoms: C_7  and  C_8
REMARK    4  A    between atoms: C_13  and  N_14
REMARK                            x       y       z     vdW  Elec       q    Type
REMARK                         _______ _______ _______ _____ _____    ______ ____
ROOT
ATOM      1  C   UNL     1       2.645   7.086  18.730  0.00  0.00    +0.000 A 
ATOM      2  C   UNL     1       2.492   5.715  18.675  0.00  0.00    +0.000 A 
ATOM      3  C   UNL     1       3.415   5.237  17.706  0.00  0.00    +0.000 A 
ATOM      4  C   UNL     1       3.753   3.980  17.175  0.00  0.00    +0.000 A 
ATOM      5  C   UNL     1       4.782   3.905  16.223  0.00  0.00    +0.000 A 
ATOM      6  C   UNL     1       5.461   5.066  15.814  0.00  0.00    +0.000 A 
ATOM      7  C   UNL     1       5.128   6.333  16.316  0.00  0.00    +0.000 A 
ATOM      8  C   UNL     1       4.097   6.358  17.250  0.00  0.00    +0.000 A 
ATOM      9  O   UNL     1       3.617   7.478  17.851  0.00  0.00    +0.000 OA
ENDROOT
BRANCH   1  14
ATOM     10  C   UNL     1      -0.265  10.251  22.359  0.00  0.00    +0.000 A 
ATOM     11  N   UNL     1       0.383   9.138  22.556  0.00  0.00    +0.000 NA
ATOM     12  N   UNL     1       0.926   8.825  21.362  0.00  0.00    +0.000 N 
ATOM     13  C   UNL     1       1.669   7.765  20.958  0.00  0.00    +0.000 A 
ATOM     14  C   UNL     1       1.895   8.010  19.613  0.00  0.00    +0.000 A 
ATOM     15  N   UNL     1       1.322   9.202  19.198  0.00  0.00    +0.000 NA
ATOM     16  C   UNL     1       0.744   9.629  20.287  0.00  0.00    +0.000 A 
ATOM     17  S   UNL     1      -0.233  10.964  20.726  0.00  0.00    +0.000 S 
BRANCH  10  19
ATOM     18  C   UNL     1      -1.695  12.045  22.904  0.00  0.00    +0.000 C 
ATOM     19  O   UNL     1      -0.959  10.892  23.328  0.00  0.00    +0.000 OA
ENDBRANCH  10  19
ENDBRANCH   1  14
BRANCH   6  20
ATOM     20  N   UNL     1       6.561   4.953  14.846  0.00  0.00    +0.000 N 
ATOM     21  O   UNL     1       7.598   5.595  15.075  0.00  0.00    +0.000 OA
ATOM     22  O   UNL     1       6.390   4.226  13.860  0.00  0.00    +0.000 OA
ENDBRANCH   6  20
TORSDOF 3
ENDMDL
MODEL 2
REMARK VINA RESULT:      -7.6      1.016      1.389
REMARK  Name = 
REMARK  4 active torsions:
REMARK  status: ('A' for Active; 'I' for Inactive)
REMARK    1  A    between atoms: C_1  and  O_2
REMARK    2  A    between atoms: O_2  and  C_3
REMARK    3  A    between atoms: C_7  and  C_8
REMARK    4  A    between atoms: C_13  and  N_14
REMARK                            x       y       z     vdW  Elec       q    Type
REMARK                         _______ _______ _______ _____ _____    ______ ____
ROOT
ATOM      1  C   UNL     1       2.701   7.069  18.583  0.00  0.00    +0.000 A 
ATOM      2  C   UNL     1       2.585   5.693  18.577  0.00  0.00    +0.000 A 
ATOM      3  C   UNL     1       3.522   5.206  17.627  0.00  0.00    +0.000 A 
ATOM      4  C   UNL     1       3.895   3.940  17.142  0.00  0.00    +0.000 A 
ATOM      5  C   UNL     1       4.927   3.859  16.193  0.00  0.00    +0.000 A 
ATOM      6  C   UNL     1       5.576   5.023  15.745  0.00  0.00    +0.000 A 
ATOM      7  C   UNL     1       5.208   6.298  16.200  0.00  0.00    +0.000 A 
ATOM      8  C   UNL     1       4.174   6.328  17.131  0.00  0.00    +0.000 A 
ATOM      9  O   UNL     1       3.664   7.455  17.692  0.00  0.00    +0.000 OA
ENDROOT
BRANCH   1  14
ATOM     10  C   UNL     1      -0.123  10.943  21.529  0.00  0.00    +0.000 A 
ATOM     11  N   UNL     1       0.254  10.955  20.281  0.00  0.00    +0.000 NA
ATOM     12  N   UNL     1       0.863   9.768  20.081  0.00  0.00    +0.000 N 
ATOM     13  C   UNL     1       1.480   9.241  18.996  0.00  0.00    +0.000 A 
ATOM     14  C   UNL     1       1.925   8.003  19.432  0.00  0.00    +0.000 A 
ATOM     15  N   UNL     1       1.575   7.761  20.751  0.00  0.00    +0.000 NA
ATOM     16  C   UNL     1       0.958   8.861  21.084  0.00  0.00    +0.000 A 
ATOM     17  S   UNL     1       0.237   9.494  22.501  0.00  0.00    +0.000 S 
BRANCH  10  19
ATOM     18  C   UNL     1      -1.773  11.606  23.077  0.00  0.00    +0.000 C 
ATOM     19  O   UNL     1      -0.772  11.973  22.122  0.00  0.00    +0.000 OA
ENDBRANCH  10  19
ENDBRANCH   1  14
BRANCH   6  20
ATOM     20  N   UNL     1       6.680   4.906  14.782  0.00  0.00    +0.000 N 
ATOM     21  O   UNL     1       6.527   4.137  13.820  0.00  0.00    +0.000 OA
ATOM     22  O   UNL     1       7.698   5.580  14.985  0.00  0.00    +0.000 OA
ENDBRANCH   6  20
TORSDOF 3
ENDMDL
MODEL 3
REMARK VINA RESULT:      -7.6      2.740      8.800
REMARK  Name = 
REMARK  4 active torsions:
REMARK  status: ('A' for Active; 'I' for Inactive)
REMARK    1  A    between atoms: C_1  and  O_2
REMARK    2  A    between atoms: O_2  and  C_3
REMARK    3  A    between atoms: C_7  and  C_8
REMARK    4  A    between atoms: C_13  and  N_14
REMARK                            x       y       z     vdW  Elec       q    Type
REMARK                         _______ _______ _______ _____ _____    ______ ____
ROOT
ATOM      1  C   UNL     1       2.529   7.697  18.590  0.00  0.00    +0.000 A 
ATOM      2  C   UNL     1       1.835   8.792  18.117  0.00  0.00    +0.000 A 
ATOM      3  C   UNL     1       1.108   9.324  19.217  0.00  0.00    +0.000 A 
ATOM      4  C   UNL     1       0.221  10.397  19.409  0.00  0.00    +0.000 A 
ATOM      5  C   UNL     1      -0.283  10.632  20.698  0.00  0.00    +0.000 A 
ATOM      6  C   UNL     1       0.099   9.811  21.773  0.00  0.00    +0.000 A 
ATOM      7  C   UNL     1       0.967   8.722  21.601  0.00  0.00    +0.000 A 
ATOM      8  C   UNL     1       1.433   8.524  20.305  0.00  0.00    +0.000 A 
ATOM      9  O   UNL     1       2.274   7.528  19.923  0.00  0.00    +0.000 OA
ENDROOT
BRANCH   1  14
ATOM     10  C   UNL     1       5.995   4.746  15.282  0.00  0.00    +0.000 A 
ATOM     11  N   UNL     1       5.818   6.035  15.366  0.00  0.00    +0.000 NA
ATOM     12  N   UNL     1       4.899   6.206  16.338  0.00  0.00    +0.000 N 
ATOM     13  C   UNL     1       4.304   7.319  16.833  0.00  0.00    +0.000 A 
ATOM     14  C   UNL     1       3.435   6.833  17.797  0.00  0.00    +0.000 A 
ATOM     15  N   UNL     1       3.504   5.453  17.910  0.00  0.00    +0.000 NA
ATOM     16  C   UNL     1       4.384   5.141  16.999  0.00  0.00    +0.000 A 
ATOM     17  S   UNL     1       5.064   3.697  16.380  0.00  0.00    +0.000 S 
BRANCH  10  19
ATOM     18  C   UNL     1       6.268   3.751  13.162  0.00  0.00    +0.000 C 
ATOM     19  O   UNL     1       6.846   4.166  14.404  0.00  0.00    +0.000 OA
ENDBRANCH  10  19
ENDBRANCH   1  14
BRANCH   6  20
ATOM     20  N   UNL     1      -0.412  10.104  23.120  0.00  0.00    +0.000 N 
ATOM     21  O   UNL     1       0.228   9.662  24.087  0.00  0.00    +0.000 OA
ATOM     22  O   UNL     1      -1.448  10.775  23.212  0.00  0.00    +0.000 OA
ENDBRANCH   6  20
TORSDOF 3
ENDMDL
MODEL 4
REMARK VINA RESULT:      -7.5      2.714      3.163
REMARK  Name = 
REMARK  4 active torsions:
REMARK  status: ('A' for Active; 'I' for Inactive)
REMARK    1  A    between atoms: C_1  and  O_2
REMARK    2  A    between atoms: O_2  and  C_3
REMARK    3  A    between atoms: C_7  and  C_8
REMARK    4  A    between atoms: C_13  and  N_14
REMARK                            x       y       z     vdW  Elec       q    Type
REMARK                         _______ _______ _______ _____ _____    ______ ____
ROOT
ATOM      1  C   UNL     1       1.775   7.621  20.070  0.00  0.00    +0.000 A 
ATOM      2  C   UNL     1       2.379   7.588  18.829  0.00  0.00    +0.000 A 
ATOM      3  C   UNL     1       2.960   6.298  18.689  0.00  0.00    +0.000 A 
ATOM      4  C   UNL     1       3.707   5.635  17.699  0.00  0.00    +0.000 A 
ATOM      5  C   UNL     1       4.084   4.301  17.921  0.00  0.00    +0.000 A 
ATOM      6  C   UNL     1       3.715   3.643  19.106  0.00  0.00    +0.000 A 
ATOM      7  C   UNL     1       2.986   4.290  20.116  0.00  0.00    +0.000 A 
ATOM      8  C   UNL     1       2.644   5.614  19.855  0.00  0.00    +0.000 A 
ATOM      9  O   UNL     1       1.947   6.419  20.700  0.00  0.00    +0.000 OA
ENDROOT
BRANCH   1  14
ATOM     10  C   UNL     1      -1.078  11.738  22.631  0.00  0.00    +0.000 A 
ATOM     11  N   UNL     1      -0.363  10.776  23.143  0.00  0.00    +0.000 NA
ATOM     12  N   UNL     1       0.124  10.094  22.086  0.00  0.00    +0.000 N 
ATOM     13  C   UNL     1       0.896   8.983  22.007  0.00  0.00    +0.000 A 
ATOM     14  C   UNL     1       1.032   8.766  20.645  0.00  0.00    +0.000 A 
ATOM     15  N   UNL     1       0.374   9.731  19.898  0.00  0.00    +0.000 NA
ATOM     16  C   UNL     1      -0.160  10.484  20.820  0.00  0.00    +0.000 A 
ATOM     17  S   UNL     1      -1.179  11.859  20.857  0.00  0.00    +0.000 S 
BRANCH  10  19
ATOM     18  C   UNL     1      -3.175  12.546  23.345  0.00  0.00    +0.000 C 
ATOM     19  O   UNL     1      -1.748  12.648  23.378  0.00  0.00    +0.000 OA
ENDBRANCH  10  19
ENDBRANCH   1  14
BRANCH   6  20
ATOM     20  N   UNL     1       4.088   2.234  19.294  0.00  0.00    +0.000 N 
ATOM     21  O   UNL     1       4.868   1.964  20.220  0.00  0.00    +0.000 OA
ATOM     22  O   UNL     1       3.602   1.400  18.520  0.00  0.00    +0.000 OA
ENDBRANCH   6  20
TORSDOF 3
ENDMDL
MODEL 5
REMARK VINA RESULT:      -7.4      1.525      1.648
REMARK  Name = 
REMARK  4 active torsions:
REMARK  status: ('A' for Active; 'I' for Inactive)
REMARK    1  A    between atoms: C_1  and  O_2
REMARK    2  A    between atoms: O_2  and  C_3
REMARK    3  A    between atoms: C_7  and  C_8
REMARK    4  A    between atoms: C_13  and  N_14
REMARK                            x       y       z     vdW  Elec       q    Type
REMARK                         _______ _______ _______ _____ _____    ______ ____
ROOT
ATOM      1  C   UNL     1       2.511   7.645  18.248  0.00  0.00    +0.000 A 
ATOM      2  C   UNL     1       2.277   6.287  18.317  0.00  0.00    +0.000 A 
ATOM      3  C   UNL     1       3.410   5.645  17.748  0.00  0.00    +0.000 A 
ATOM      4  C   UNL     1       3.795   4.315  17.506  0.00  0.00    +0.000 A 
ATOM      5  C   UNL     1       5.055   4.071  16.935  0.00  0.00    +0.000 A 
ATOM      6  C   UNL     1       5.913   5.138  16.619  0.00  0.00    +0.000 A 
ATOM      7  C   UNL     1       5.542   6.474  16.833  0.00  0.00    +0.000 A 
ATOM      8  C   UNL     1       4.282   6.666  17.391  0.00  0.00    +0.000 A 
ATOM      9  O   UNL     1       3.731   7.876  17.673  0.00  0.00    +0.000 OA
ENDROOT
BRANCH   1  14
ATOM     10  C   UNL     1      -1.019  11.431  20.453  0.00  0.00    +0.000 A 
ATOM     11  N   UNL     1      -0.347  10.478  21.036  0.00  0.00    +0.000 NA
ATOM     12  N   UNL     1       0.366   9.893  20.054  0.00  0.00    +0.000 N 
ATOM     13  C   UNL     1       1.210   8.832  20.059  0.00  0.00    +0.000 A 
ATOM     14  C   UNL     1       1.603   8.710  18.736  0.00  0.00    +0.000 A 
ATOM     15  N   UNL     1       1.031   9.683  17.932  0.00  0.00    +0.000 NA
ATOM     16  C   UNL     1       0.291  10.346  18.778  0.00  0.00    +0.000 A 
ATOM     17  S   UNL     1      -0.804  11.659  18.699  0.00  0.00    +0.000 S 
BRANCH  10  19
ATOM     18  C   UNL     1      -3.031  12.658  20.377  0.00  0.00    +0.000 C 
ATOM     19  O   UNL     1      -1.870  12.254  21.111  0.00  0.00    +0.000 OA
ENDBRANCH  10  19
ENDBRANCH   1  14
BRANCH   6  20
ATOM     20  N   UNL     1       7.242   4.852  16.060  0.00  0.00    +0.000 N 
ATOM     21  O   UNL     1       7.497   5.290  14.927  0.00  0.00    +0.000 OA
ATOM     22  O   UNL     1       8.029   4.193  16.750  0.00  0.00    +0.000 OA
ENDBRANCH   6  20
TORSDOF 3
ENDMDL
MODEL 6
REMARK VINA RESULT:      -7.3      1.728      2.123
REMARK  Name = 
REMARK  4 active torsions:
REMARK  status: ('A' for Active; 'I' for Inactive)
REMARK    1  A    between atoms: C_1  and  O_2
REMARK    2  A    between atoms: O_2  and  C_3
REMARK    3  A    between atoms: C_7  and  C_8
REMARK    4  A    between atoms: C_13  and  N_14
REMARK                            x       y       z     vdW  Elec       q    Type
REMARK                         _______ _______ _______ _____ _____    ______ ____
ROOT
ATOM      1  C   UNL     1       2.568   7.628  18.293  0.00  0.00    +0.000 A 
ATOM      2  C   UNL     1       2.298   6.274  18.294  0.00  0.00    +0.000 A 
ATOM      3  C   UNL     1       3.417   5.631  17.699  0.00  0.00    +0.000 A 
ATOM      4  C   UNL     1       3.767   4.304  17.394  0.00  0.00    +0.000 A 
ATOM      5  C   UNL     1       5.023   4.054  16.818  0.00  0.00    +0.000 A 
ATOM      6  C   UNL     1       5.912   5.112  16.559  0.00  0.00    +0.000 A 
ATOM      7  C   UNL     1       5.576   6.446  16.837  0.00  0.00    +0.000 A 
ATOM      8  C   UNL     1       4.318   6.644  17.398  0.00  0.00    +0.000 A 
ATOM      9  O   UNL     1       3.797   7.853  17.737  0.00  0.00    +0.000 OA
ENDROOT
BRANCH   1  14
ATOM     10  C   UNL     1      -0.653  11.920  19.982  0.00  0.00    +0.000 A 
ATOM     11  N   UNL     1      -0.182  11.646  18.798  0.00  0.00    +0.000 NA
ATOM     12  N   UNL     1       0.496  10.490  18.943  0.00  0.00    +0.000 N 
ATOM     13  C   UNL     1       1.219   9.751  18.067  0.00  0.00    +0.000 A 
ATOM     14  C   UNL     1       1.686   8.691  18.828  0.00  0.00    +0.000 A 
ATOM     15  N   UNL     1       1.248   8.762  20.141  0.00  0.00    +0.000 NA
ATOM     16  C   UNL     1       0.556   9.868  20.146  0.00  0.00    +0.000 A 
ATOM     17  S   UNL     1      -0.301  10.785  21.309  0.00  0.00    +0.000 S 
BRANCH  10  19
ATOM     18  C   UNL     1      -0.865  14.259  19.765  0.00  0.00    +0.000 C 
ATOM     19  O   UNL     1      -1.393  13.021  20.254  0.00  0.00    +0.000 OA
ENDBRANCH  10  19
ENDBRANCH   1  14
BRANCH   6  20
ATOM     20  N   UNL     1       7.236   4.818  15.994  0.00  0.00    +0.000 N 
ATOM     21  O   UNL     1       7.466   5.200  14.836  0.00  0.00    +0.000 OA
ATOM     22  O   UNL     1       8.045   4.209  16.705  0.00  0.00    +0.000 OA
ENDBRANCH   6  20
TORSDOF 3
ENDMDL
MODEL 7
REMARK VINA RESULT:      -7.2      1.119      1.238
REMARK  Name = 
REMARK  4 active torsions:
REMARK  status: ('A' for Active; 'I' for Inactive)
REMARK    1  A    between atoms: C_1  and  O_2
REMARK    2  A    between atoms: O_2  and  C_3
REMARK    3  A    between atoms: C_7  and  C_8
REMARK    4  A    between atoms: C_13  and  N_14
REMARK                            x       y       z     vdW  Elec       q    Type
REMARK                         _______ _______ _______ _____ _____    ______ ____
ROOT
ATOM      1  C   UNL     1       2.177   7.380  19.607  0.00  0.00    +0.000 A 
ATOM      2  C   UNL     1       2.191   6.052  19.983  0.00  0.00    +0.000 A 
ATOM      3  C   UNL     1       3.020   5.370  19.052  0.00  0.00    +0.000 A 
ATOM      4  C   UNL     1       3.434   4.040  18.863  0.00  0.00    +0.000 A 
ATOM      5  C   UNL     1       4.319   3.753  17.811  0.00  0.00    +0.000 A 
ATOM      6  C   UNL     1       4.784   4.779  16.970  0.00  0.00    +0.000 A 
ATOM      7  C   UNL     1       4.369   6.110  17.128  0.00  0.00    +0.000 A 
ATOM      8  C   UNL     1       3.485   6.344  18.177  0.00  0.00    +0.000 A 
ATOM      9  O   UNL     1       2.959   7.555  18.498  0.00  0.00    +0.000 OA
ENDROOT
BRANCH   1  14
ATOM     10  C   UNL     1      -0.614  11.258  22.579  0.00  0.00    +0.000 A 
ATOM     11  N   UNL     1       0.092  10.241  22.988  0.00  0.00    +0.000 NA
ATOM     12  N   UNL     1       0.566   9.662  21.867  0.00  0.00    +0.000 N 
ATOM     13  C   UNL     1       1.324   8.554  21.674  0.00  0.00    +0.000 A 
ATOM     14  C   UNL     1       1.450   8.472  20.296  0.00  0.00    +0.000 A 
ATOM     15  N   UNL     1       0.802   9.514  19.652  0.00  0.00    +0.000 NA
ATOM     16  C   UNL     1       0.281  10.178  20.647  0.00  0.00    +0.000 A 
ATOM     17  S   UNL     1      -0.720  11.555  20.825  0.00  0.00    +0.000 S 
BRANCH  10  19
ATOM     18  C   UNL     1      -2.696  12.088  23.309  0.00  0.00    +0.000 C 
ATOM     19  O   UNL     1      -1.268  12.097  23.415  0.00  0.00    +0.000 OA
ENDBRANCH  10  19
ENDBRANCH   1  14
BRANCH   6  20
ATOM     20  N   UNL     1       5.741   4.457  15.902  0.00  0.00    +0.000 N 
ATOM     21  O   UNL     1       6.934   4.331  16.218  0.00  0.00    +0.000 OA
ATOM     22  O   UNL     1       5.302   4.330  14.752  0.00  0.00    +0.000 OA
ENDBRANCH   6  20
TORSDOF 3
ENDMDL
MODEL 8
REMARK VINA RESULT:      -7.1      2.735      8.817
REMARK  Name = 
REMARK  4 active torsions:
REMARK  status: ('A' for Active; 'I' for Inactive)
REMARK    1  A    between atoms: C_1  and  O_2
REMARK    2  A    between atoms: O_2  and  C_3
REMARK    3  A    between atoms: C_7  and  C_8
REMARK    4  A    between atoms: C_13  and  N_14
REMARK                            x       y       z     vdW  Elec       q    Type
REMARK                         _______ _______ _______ _____ _____    ______ ____
ROOT
ATOM      1  C   UNL     1       1.967   8.191  18.804  0.00  0.00    +0.000 A 
ATOM      2  C   UNL     1       1.460   9.280  18.124  0.00  0.00    +0.000 A 
ATOM      3  C   UNL     1       0.751  10.064  19.074  0.00  0.00    +0.000 A 
ATOM      4  C   UNL     1       0.012  11.259  19.039  0.00  0.00    +0.000 A 
ATOM      5  C   UNL     1      -0.526  11.754  20.237  0.00  0.00    +0.000 A 
ATOM      6  C   UNL     1      -0.324  11.068  21.447  0.00  0.00    +0.000 A 
ATOM      7  C   UNL     1       0.394   9.864  21.503  0.00  0.00    +0.000 A 
ATOM      8  C   UNL     1       0.900   9.408  20.289  0.00  0.00    +0.000 A 
ATOM      9  O   UNL     1       1.615   8.265  20.123  0.00  0.00    +0.000 OA
ENDROOT
BRANCH   1  14
ATOM     10  C   UNL     1       5.209   4.356  16.265  0.00  0.00    +0.000 A 
ATOM     11  N   UNL     1       5.268   5.658  16.224  0.00  0.00    +0.000 NA
ATOM     12  N   UNL     1       4.282   6.085  17.037  0.00  0.00    +0.000 N 
ATOM     13  C   UNL     1       3.848   7.330  17.355  0.00  0.00    +0.000 A 
ATOM     14  C   UNL     1       2.788   7.105  18.218  0.00  0.00    +0.000 A 
ATOM     15  N   UNL     1       2.580   5.753  18.444  0.00  0.00    +0.000 NA
ATOM     16  C   UNL     1       3.495   5.200  17.697  0.00  0.00    +0.000 A 
ATOM     17  S   UNL     1       3.965   3.604  17.294  0.00  0.00    +0.000 S 
BRANCH  10  19
ATOM     18  C   UNL     1       6.421   4.025  14.269  0.00  0.00    +0.000 C 
ATOM     19  O   UNL     1       6.041   3.549  15.566  0.00  0.00    +0.000 OA
ENDBRANCH  10  19
ENDBRANCH   1  14
BRANCH   6  20
ATOM     20  N   UNL     1      -0.864  11.630  22.693  0.00  0.00    +0.000 N 
ATOM     21  O   UNL     1      -1.675  10.941  23.331  0.00  0.00    +0.000 OA
ATOM     22  O   UNL     1      -0.479  12.755  23.033  0.00  0.00    +0.000 OA
ENDBRANCH   6  20
TORSDOF 3
ENDMDL
MODEL 9
REMARK VINA RESULT:      -7.0      3.055      3.648
REMARK  Name = 
REMARK  4 active torsions:
REMARK  status: ('A' for Active; 'I' for Inactive)
REMARK    1  A    between atoms: C_1  and  O_2
REMARK    2  A    between atoms: O_2  and  C_3
REMARK    3  A    between atoms: C_7  and  C_8
REMARK    4  A    between atoms: C_13  and  N_14
REMARK                            x       y       z     vdW  Elec       q    Type
REMARK                         _______ _______ _______ _____ _____    ______ ____
ROOT
ATOM      1  C   UNL     1       2.173   7.795  19.028  0.00  0.00    +0.000 A 
ATOM      2  C   UNL     1       2.918   7.549  17.892  0.00  0.00    +0.000 A 
ATOM      3  C   UNL     1       3.431   6.230  18.015  0.00  0.00    +0.000 A 
ATOM      4  C   UNL     1       4.250   5.394  17.235  0.00  0.00    +0.000 A 
ATOM      5  C   UNL     1       4.516   4.094  17.693  0.00  0.00    +0.000 A 
ATOM      6  C   UNL     1       3.968   3.639  18.905  0.00  0.00    +0.000 A 
ATOM      7  C   UNL     1       3.165   4.461  19.709  0.00  0.00    +0.000 A 
ATOM      8  C   UNL     1       2.937   5.744  19.219  0.00  0.00    +0.000 A 
ATOM      9  O   UNL     1       2.195   6.696  19.842  0.00  0.00    +0.000 OA
ENDROOT
BRANCH   1  14
ATOM     10  C   UNL     1      -0.456  12.709  19.805  0.00  0.00    +0.000 A 
ATOM     11  N   UNL     1      -0.010  12.166  18.707  0.00  0.00    +0.000 NA
ATOM     12  N   UNL     1       0.502  10.975  19.081  0.00  0.00    +0.000 N 
ATOM     13  C   UNL     1       1.130  10.001  18.378  0.00  0.00    +0.000 A 
ATOM     14  C   UNL     1       1.437   9.045  19.332  0.00  0.00    +0.000 A 
ATOM     15  N   UNL     1       0.994   9.409  20.594  0.00  0.00    +0.000 NA
ATOM     16  C   UNL     1       0.459  10.579  20.376  0.00  0.00    +0.000 A 
ATOM     17  S   UNL     1      -0.281  11.796  21.325  0.00  0.00    +0.000 S 
BRANCH  10  19
ATOM     18  C   UNL     1      -0.309  14.991  19.231  0.00  0.00    +0.000 C 
ATOM     19  O   UNL     1      -1.042  13.928  19.849  0.00  0.00    +0.000 OA
ENDBRANCH  10  19
ENDBRANCH   1  14
BRANCH   6  20
ATOM     20  N   UNL     1       4.229   2.260  19.341  0.00  0.00    +0.000 N 
ATOM     21  O   UNL     1       3.703   1.342  18.694  0.00  0.00    +0.000 OA
ATOM     22  O   UNL     1       4.960   2.094  20.326  0.00  0.00    +0.000 OA
ENDBRANCH   6  20
TORSDOF 3
ENDMDL
