MODEL 1
REMARK VINA RESULT:      -8.4      0.000      0.000
REMARK  Name = 
REMARK  9 active torsions:
REMARK  status: ('A' for Active; 'I' for Inactive)
REMARK    1  A    between atoms: C_1  and  O_2
REMARK    2  A    between atoms: O_2  and  C_3
REMARK    3  A    between atoms: C_10  and  C_11
REMARK    4  A    between atoms: C_11  and  O_12
REMARK    5  A    between atoms: C_11  and  C_13
REMARK    6  A    between atoms: C_13  and  N_14
REMARK    7  A    between atoms: C_17  and  N_18
REMARK    8  A    between atoms: N_18  and  C_19
REMARK    9  A    between atoms: C_19  and  C_20
REMARK                            x       y       z     vdW  Elec       q    Type
REMARK                         _______ _______ _______ _____ _____    ______ ____
ROOT
ATOM      1  N   UNL     1       1.447   5.377  20.203  0.00  0.00    +0.000 NA
ATOM      2  C   UNL     1       1.989   5.077  18.864  0.00  0.00    +0.000 C 
ATOM      3  C   UNL     1       1.463   3.756  18.292  0.00  0.00    +0.000 C 
ATOM      4  C   UNL     1       1.738   2.567  19.220  0.00  0.00    +0.000 C 
ATOM      5  C   UNL     1       1.151   2.926  20.593  0.00  0.00    +0.000 C 
ATOM      6  C   UNL     1       1.705   4.245  21.123  0.00  0.00    +0.000 C 
ENDROOT
BRANCH   4   7
ATOM      7  N   UNL     1       3.181   2.260  19.211  0.00  0.00    +0.000 NA
ATOM      8  H   UNL     1       3.345   1.330  19.596  0.00  0.00    +0.000 HD
BRANCH   7   9
ATOM      9  C   UNL     1       3.770   2.309  17.878  0.00  0.00    +0.000 C 
BRANCH   9  10
ATOM     10  C   UNL     1       4.735   3.430  17.810  0.00  0.00    +0.000 A 
ATOM     11  N   UNL     1       5.540   3.779  18.868  0.00  0.00    +0.000 N 
ATOM     12  C   UNL     1       6.319   4.871  18.542  0.00  0.00    +0.000 A 
ATOM     13  C   UNL     1       7.262   5.569  19.304  0.00  0.00    +0.000 A 
ATOM     14  C   UNL     1       7.909   6.648  18.697  0.00  0.00    +0.000 A 
ATOM     15  C   UNL     1       7.627   7.015  17.383  0.00  0.00    +0.000 A 
ATOM     16  C   UNL     1       6.680   6.308  16.632  0.00  0.00    +0.000 A 
ATOM     17  C   UNL     1       6.014   5.219  17.224  0.00  0.00    +0.000 A 
ATOM     18  C   UNL     1       5.028   4.306  16.794  0.00  0.00    +0.000 A 
ATOM     19  F   UNL     1       4.471   4.292  15.616  0.00  0.00    +0.000 F 
ATOM     20  H   UNL     1       5.567   3.288  19.752  0.00  0.00    +0.000 HD
ENDBRANCH   9  10
ENDBRANCH   7   9
ENDBRANCH   4   7
BRANCH   1  21
ATOM     21  C   UNL     1       2.070   6.590  20.808  0.00  0.00    +0.000 C 
BRANCH  21  22
ATOM     22  C   UNL     1       1.174   7.837  21.079  0.00  0.00    +0.000 C 
BRANCH  22  30
ATOM     23  C   UNL     1      -0.179  12.075  21.898  0.00  0.00    +0.000 A 
ATOM     24  C   UNL     1       0.066  13.031  20.931  0.00  0.00    +0.000 A 
ATOM     25  C   UNL     1       0.640  12.649  19.718  0.00  0.00    +0.000 A 
ATOM     26  C   UNL     1       0.996  11.339  19.446  0.00  0.00    +0.000 A 
ATOM     27  N   UNL     1       1.538  11.105  18.245  0.00  0.00    +0.000 NA
ATOM     28  C   UNL     1       1.891   9.844  17.947  0.00  0.00    +0.000 A 
ATOM     29  C   UNL     1       1.745   8.788  18.820  0.00  0.00    +0.000 A 
ATOM     30  C   UNL     1       1.220   9.013  20.106  0.00  0.00    +0.000 A 
ATOM     31  C   UNL     1       0.783  10.337  20.427  0.00  0.00    +0.000 A 
ATOM     32  C   UNL     1       0.165  10.742  21.642  0.00  0.00    +0.000 A 
BRANCH  23  34
ATOM     33  C   UNL     1      -1.848  13.179  23.166  0.00  0.00    +0.000 C 
ATOM     34  O   UNL     1      -0.714  12.317  23.133  0.00  0.00    +0.000 OA
ENDBRANCH  23  34
ENDBRANCH  22  30
BRANCH  22  35
ATOM     35  O   UNL     1      -0.175   7.346  21.204  0.00  0.00    +0.000 OA
ATOM     36  H   UNL     1      -0.671   8.081  21.618  0.00  0.00    +0.000 HD
ENDBRANCH  22  35
ENDBRANCH  21  22
ENDBRANCH   1  21
TORSDOF 8
ENDMDL
MODEL 2
REMARK VINA RESULT:      -8.1      1.612      2.376
REMARK  Name = 
REMARK  9 active torsions:
REMARK  status: ('A' for Active; 'I' for Inactive)
REMARK    1  A    between atoms: C_1  and  O_2
REMARK    2  A    between atoms: O_2  and  C_3
REMARK    3  A    between atoms: C_10  and  C_11
REMARK    4  A    between atoms: C_11  and  O_12
REMARK    5  A    between atoms: C_11  and  C_13
REMARK    6  A    between atoms: C_13  and  N_14
REMARK    7  A    between atoms: C_17  and  N_18
REMARK    8  A    between atoms: N_18  and  C_19
REMARK    9  A    between atoms: C_19  and  C_20
REMARK                            x       y       z     vdW  Elec       q    Type
REMARK                         _______ _______ _______ _____ _____    ______ ____
ROOT
ATOM      1  N   UNL     1       1.351   5.326  20.309  0.00  0.00    +0.000 NA
ATOM      2  C   UNL     1       1.784   4.935  18.953  0.00  0.00    +0.000 C 
ATOM      3  C   UNL     1       1.355   3.512  18.579  0.00  0.00    +0.000 C 
ATOM      4  C   UNL     1       1.856   2.468  19.585  0.00  0.00    +0.000 C 
ATOM      5  C   UNL     1       1.376   2.916  20.972  0.00  0.00    +0.000 C 
ATOM      6  C   UNL     1       1.828   4.336  21.301  0.00  0.00    +0.000 C 
ENDROOT
BRANCH   4   7
ATOM      7  N   UNL     1       3.316   2.310  19.443  0.00  0.00    +0.000 NA
ATOM      8  H   UNL     1       3.610   1.406  19.811  0.00  0.00    +0.000 HD
BRANCH   7   9
ATOM      9  C   UNL     1       3.772   2.407  18.060  0.00  0.00    +0.000 C 
BRANCH   9  10
ATOM     10  C   UNL     1       4.739   3.522  17.940  0.00  0.00    +0.000 A 
ATOM     11  N   UNL     1       5.596   3.871  18.956  0.00  0.00    +0.000 N 
ATOM     12  C   UNL     1       6.364   4.957  18.588  0.00  0.00    +0.000 A 
ATOM     13  C   UNL     1       7.346   5.653  19.301  0.00  0.00    +0.000 A 
ATOM     14  C   UNL     1       7.970   6.726  18.658  0.00  0.00    +0.000 A 
ATOM     15  C   UNL     1       7.627   7.088  17.357  0.00  0.00    +0.000 A 
ATOM     16  C   UNL     1       6.642   6.382  16.655  0.00  0.00    +0.000 A 
ATOM     17  C   UNL     1       5.999   5.300  17.284  0.00  0.00    +0.000 A 
ATOM     18  C   UNL     1       4.988   4.391  16.907  0.00  0.00    +0.000 A 
ATOM     19  F   UNL     1       4.375   4.374  15.757  0.00  0.00    +0.000 F 
ATOM     20  H   UNL     1       5.662   3.385  19.841  0.00  0.00    +0.000 HD
ENDBRANCH   9  10
ENDBRANCH   7   9
ENDBRANCH   4   7
BRANCH   1  21
ATOM     21  C   UNL     1       1.891   6.656  20.715  0.00  0.00    +0.000 C 
BRANCH  21  22
ATOM     22  C   UNL     1       1.217   7.944  20.150  0.00  0.00    +0.000 C 
BRANCH  22  30
ATOM     23  C   UNL     1       0.906  12.387  19.359  0.00  0.00    +0.000 A 
ATOM     24  C   UNL     1       0.302  13.174  20.321  0.00  0.00    +0.000 A 
ATOM     25  C   UNL     1      -0.110  12.597  21.522  0.00  0.00    +0.000 A 
ATOM     26  C   UNL     1       0.043  11.247  21.786  0.00  0.00    +0.000 A 
ATOM     27  N   UNL     1      -0.396  10.817  22.976  0.00  0.00    +0.000 NA
ATOM     28  C   UNL     1      -0.258   9.513  23.267  0.00  0.00    +0.000 A 
ATOM     29  C   UNL     1       0.288   8.595  22.397  0.00  0.00    +0.000 A 
ATOM     30  C   UNL     1       0.716   9.009  21.122  0.00  0.00    +0.000 A 
ATOM     31  C   UNL     1       0.633  10.404  20.811  0.00  0.00    +0.000 A 
ATOM     32  C   UNL     1       1.079  11.020  19.609  0.00  0.00    +0.000 A 
BRANCH  23  34
ATOM     33  C   UNL     1       2.573  13.528  18.121  0.00  0.00    +0.000 C 
ATOM     34  O   UNL     1       1.336  12.820  18.136  0.00  0.00    +0.000 OA
ENDBRANCH  23  34
ENDBRANCH  22  30
BRANCH  22  35
ATOM     35  O   UNL     1       2.158   8.518  19.222  0.00  0.00    +0.000 OA
ATOM     36  H   UNL     1       1.674   9.259  18.803  0.00  0.00    +0.000 HD
ENDBRANCH  22  35
ENDBRANCH  21  22
ENDBRANCH   1  21
TORSDOF 8
ENDMDL
MODEL 3
REMARK VINA RESULT:      -8.1      2.070      2.802
REMARK  Name = 
REMARK  9 active torsions:
REMARK  status: ('A' for Active; 'I' for Inactive)
REMARK    1  A    between atoms: C_1  and  O_2
REMARK    2  A    between atoms: O_2  and  C_3
REMARK    3  A    between atoms: C_10  and  C_11
REMARK    4  A    between atoms: C_11  and  O_12
REMARK    5  A    between atoms: C_11  and  C_13
REMARK    6  A    between atoms: C_13  and  N_14
REMARK    7  A    between atoms: C_17  and  N_18
REMARK    8  A    between atoms: N_18  and  C_19
REMARK    9  A    between atoms: C_19  and  C_20
REMARK                            x       y       z     vdW  Elec       q    Type
REMARK                         _______ _______ _______ _____ _____    ______ ____
ROOT
ATOM      1  N   UNL     1       1.351   5.096  20.278  0.00  0.00    +0.000 NA
ATOM      2  C   UNL     1       1.469   4.646  18.878  0.00  0.00    +0.000 C 
ATOM      3  C   UNL     1       0.918   3.234  18.658  0.00  0.00    +0.000 C 
ATOM      4  C   UNL     1       1.584   2.198  19.574  0.00  0.00    +0.000 C 
ATOM      5  C   UNL     1       1.428   2.708  21.013  0.00  0.00    +0.000 C 
ATOM      6  C   UNL     1       1.993   4.116  21.184  0.00  0.00    +0.000 C 
ENDROOT
BRANCH   4   7
ATOM      7  N   UNL     1       2.973   1.972  19.131  0.00  0.00    +0.000 NA
ATOM      8  H   UNL     1       3.175   0.973  19.102  0.00  0.00    +0.000 HD
BRANCH   7   9
ATOM      9  C   UNL     1       3.252   2.529  17.812  0.00  0.00    +0.000 C 
BRANCH   9  10
ATOM     10  C   UNL     1       4.322   3.547  17.927  0.00  0.00    +0.000 A 
ATOM     11  N   UNL     1       4.678   4.368  16.884  0.00  0.00    +0.000 N 
ATOM     12  C   UNL     1       5.716   5.198  17.256  0.00  0.00    +0.000 A 
ATOM     13  C   UNL     1       6.400   6.173  16.522  0.00  0.00    +0.000 A 
ATOM     14  C   UNL     1       7.420   6.872  17.175  0.00  0.00    +0.000 A 
ATOM     15  C   UNL     1       7.742   6.607  18.504  0.00  0.00    +0.000 A 
ATOM     16  C   UNL     1       7.049   5.628  19.226  0.00  0.00    +0.000 A 
ATOM     17  C   UNL     1       6.020   4.911  18.588  0.00  0.00    +0.000 A 
ATOM     18  C   UNL     1       5.137   3.881  18.979  0.00  0.00    +0.000 A 
ATOM     19  F   UNL     1       5.098   3.324  20.157  0.00  0.00    +0.000 F 
ATOM     20  H   UNL     1       4.225   4.372  15.979  0.00  0.00    +0.000 HD
ENDBRANCH   9  10
ENDBRANCH   7   9
ENDBRANCH   4   7
BRANCH   1  21
ATOM     21  C   UNL     1       2.013   6.413  20.509  0.00  0.00    +0.000 C 
BRANCH  21  22
ATOM     22  C   UNL     1       1.367   7.695  19.902  0.00  0.00    +0.000 C 
BRANCH  22  30
ATOM     23  C   UNL     1      -1.342  11.148  18.804  0.00  0.00    +0.000 A 
ATOM     24  C   UNL     1      -1.803  11.958  19.825  0.00  0.00    +0.000 A 
ATOM     25  C   UNL     1      -1.360  11.739  21.129  0.00  0.00    +0.000 A 
ATOM     26  C   UNL     1      -0.481  10.719  21.452  0.00  0.00    +0.000 A 
ATOM     27  N   UNL     1      -0.134  10.615  22.741  0.00  0.00    +0.000 NA
ATOM     28  C   UNL     1       0.721   9.640  23.089  0.00  0.00    +0.000 A 
ATOM     29  C   UNL     1       1.237   8.729  22.193  0.00  0.00    +0.000 A 
ATOM     30  C   UNL     1       0.855   8.786  20.840  0.00  0.00    +0.000 A 
ATOM     31  C   UNL     1      -0.009   9.852  20.435  0.00  0.00    +0.000 A 
ATOM     32  C   UNL     1      -0.446  10.115  19.107  0.00  0.00    +0.000 A 
BRANCH  23  34
ATOM     33  C   UNL     1      -2.029  10.010  16.843  0.00  0.00    +0.000 C 
ATOM     34  O   UNL     1      -1.711  11.239  17.491  0.00  0.00    +0.000 OA
ENDBRANCH  23  34
ENDBRANCH  22  30
BRANCH  22  35
ATOM     35  O   UNL     1       2.335   8.241  18.985  0.00  0.00    +0.000 OA
ATOM     36  H   UNL     1       1.903   9.034  18.610  0.00  0.00    +0.000 HD
ENDBRANCH  22  35
ENDBRANCH  21  22
ENDBRANCH   1  21
TORSDOF 8
ENDMDL
MODEL 4
REMARK VINA RESULT:      -8.1      2.225      2.974
REMARK  Name = 
REMARK  9 active torsions:
REMARK  status: ('A' for Active; 'I' for Inactive)
REMARK    1  A    between atoms: C_1  and  O_2
REMARK    2  A    between atoms: O_2  and  C_3
REMARK    3  A    between atoms: C_10  and  C_11
REMARK    4  A    between atoms: C_11  and  O_12
REMARK    5  A    between atoms: C_11  and  C_13
REMARK    6  A    between atoms: C_13  and  N_14
REMARK    7  A    between atoms: C_17  and  N_18
REMARK    8  A    between atoms: N_18  and  C_19
REMARK    9  A    between atoms: C_19  and  C_20
REMARK                            x       y       z     vdW  Elec       q    Type
REMARK                         _______ _______ _______ _____ _____    ______ ____
ROOT
ATOM      1  N   UNL     1       1.706   5.445  19.853  0.00  0.00    +0.000 NA
ATOM      2  C   UNL     1       1.576   4.637  18.625  0.00  0.00    +0.000 C 
ATOM      3  C   UNL     1       0.964   3.256  18.884  0.00  0.00    +0.000 C 
ATOM      4  C   UNL     1       1.751   2.455  19.928  0.00  0.00    +0.000 C 
ATOM      5  C   UNL     1       1.852   3.333  21.183  0.00  0.00    +0.000 C 
ATOM      6  C   UNL     1       2.469   4.696  20.877  0.00  0.00    +0.000 C 
ENDROOT
BRANCH   4   7
ATOM      7  N   UNL     1       3.039   2.028  19.350  0.00  0.00    +0.000 NA
ATOM      8  H   UNL     1       3.017   2.120  18.335  0.00  0.00    +0.000 HD
BRANCH   7   9
ATOM      9  C   UNL     1       4.175   2.795  19.851  0.00  0.00    +0.000 C 
BRANCH   9  10
ATOM     10  C   UNL     1       4.853   3.463  18.716  0.00  0.00    +0.000 A 
ATOM     11  N   UNL     1       4.716   3.035  17.417  0.00  0.00    +0.000 N 
ATOM     12  C   UNL     1       5.475   3.817  16.569  0.00  0.00    +0.000 A 
ATOM     13  C   UNL     1       5.650   3.740  15.183  0.00  0.00    +0.000 A 
ATOM     14  C   UNL     1       6.488   4.686  14.587  0.00  0.00    +0.000 A 
ATOM     15  C   UNL     1       7.124   5.669  15.343  0.00  0.00    +0.000 A 
ATOM     16  C   UNL     1       6.939   5.733  16.730  0.00  0.00    +0.000 A 
ATOM     17  C   UNL     1       6.102   4.789  17.352  0.00  0.00    +0.000 A 
ATOM     18  C   UNL     1       5.696   4.545  18.681  0.00  0.00    +0.000 A 
ATOM     19  F   UNL     1       6.065   5.234  19.724  0.00  0.00    +0.000 F 
ATOM     20  H   UNL     1       4.125   2.267  17.127  0.00  0.00    +0.000 HD
ENDBRANCH   9  10
ENDBRANCH   7   9
ENDBRANCH   4   7
BRANCH   1  21
ATOM     21  C   UNL     1       2.428   6.728  19.614  0.00  0.00    +0.000 C 
BRANCH  21  22
ATOM     22  C   UNL     1       1.603   7.991  19.218  0.00  0.00    +0.000 C 
BRANCH  22  30
ATOM     23  C   UNL     1      -1.362  11.369  18.711  0.00  0.00    +0.000 A 
ATOM     24  C   UNL     1      -1.831  11.995  19.850  0.00  0.00    +0.000 A 
ATOM     25  C   UNL     1      -1.321  11.626  21.095  0.00  0.00    +0.000 A 
ATOM     26  C   UNL     1      -0.367  10.634  21.242  0.00  0.00    +0.000 A 
ATOM     27  N   UNL     1       0.039  10.375  22.491  0.00  0.00    +0.000 NA
ATOM     28  C   UNL     1       0.967   9.421  22.668  0.00  0.00    +0.000 A 
ATOM     29  C   UNL     1       1.503   8.682  21.636  0.00  0.00    +0.000 A 
ATOM     30  C   UNL     1       1.063   8.902  20.317  0.00  0.00    +0.000 A 
ATOM     31  C   UNL     1       0.117   9.952  20.096  0.00  0.00    +0.000 A 
ATOM     32  C   UNL     1      -0.391  10.368  18.834  0.00  0.00    +0.000 A 
BRANCH  23  34
ATOM     33  C   UNL     1      -2.332  10.505  16.729  0.00  0.00    +0.000 C 
ATOM     34  O   UNL     1      -1.791  11.618  17.436  0.00  0.00    +0.000 OA
ENDBRANCH  23  34
ENDBRANCH  22  30
BRANCH  22  35
ATOM     35  O   UNL     1       2.429   8.744  18.308  0.00  0.00    +0.000 OA
ATOM     36  H   UNL     1       3.336   8.410  18.460  0.00  0.00    +0.000 HD
ENDBRANCH  22  35
ENDBRANCH  21  22
ENDBRANCH   1  21
TORSDOF 8
ENDMDL
MODEL 5
REMARK VINA RESULT:      -8.0      2.996      3.956
REMARK  Name = 
REMARK  9 active torsions:
REMARK  status: ('A' for Active; 'I' for Inactive)
REMARK    1  A    between atoms: C_1  and  O_2
REMARK    2  A    between atoms: O_2  and  C_3
REMARK    3  A    between atoms: C_10  and  C_11
REMARK    4  A    between atoms: C_11  and  O_12
REMARK    5  A    between atoms: C_11  and  C_13
REMARK    6  A    between atoms: C_13  and  N_14
REMARK    7  A    between atoms: C_17  and  N_18
REMARK    8  A    between atoms: N_18  and  C_19
REMARK    9  A    between atoms: C_19  and  C_20
REMARK                            x       y       z     vdW  Elec       q    Type
REMARK                         _______ _______ _______ _____ _____    ______ ____
ROOT
ATOM      1  N   UNL     1       1.608   7.331  19.156  0.00  0.00    +0.000 NA
ATOM      2  C   UNL     1       2.420   6.618  18.151  0.00  0.00    +0.000 C 
ATOM      3  C   UNL     1       2.256   5.097  18.225  0.00  0.00    +0.000 C 
ATOM      4  C   UNL     1       2.582   4.541  19.616  0.00  0.00    +0.000 C 
ATOM      5  C   UNL     1       1.710   5.308  20.620  0.00  0.00    +0.000 C 
ATOM      6  C   UNL     1       1.909   6.817  20.512  0.00  0.00    +0.000 C 
ENDROOT
BRANCH   4   7
ATOM      7  N   UNL     1       4.036   4.624  19.850  0.00  0.00    +0.000 NA
ATOM      8  H   UNL     1       4.228   4.693  20.849  0.00  0.00    +0.000 HD
BRANCH   7   9
ATOM      9  C   UNL     1       4.768   3.476  19.325  0.00  0.00    +0.000 C 
BRANCH   9  10
ATOM     10  C   UNL     1       5.354   3.829  18.011  0.00  0.00    +0.000 A 
ATOM     11  N   UNL     1       4.870   3.327  16.827  0.00  0.00    +0.000 N 
ATOM     12  C   UNL     1       5.617   3.795  15.764  0.00  0.00    +0.000 A 
ATOM     13  C   UNL     1       5.497   3.540  14.394  0.00  0.00    +0.000 A 
ATOM     14  C   UNL     1       6.406   4.170  13.540  0.00  0.00    +0.000 A 
ATOM     15  C   UNL     1       7.392   5.022  14.034  0.00  0.00    +0.000 A 
ATOM     16  C   UNL     1       7.500   5.268  15.408  0.00  0.00    +0.000 A 
ATOM     17  C   UNL     1       6.597   4.642  16.287  0.00  0.00    +0.000 A 
ATOM     18  C   UNL     1       6.409   4.644  17.685  0.00  0.00    +0.000 A 
ATOM     19  F   UNL     1       7.126   5.312  18.544  0.00  0.00    +0.000 F 
ATOM     20  H   UNL     1       4.069   2.715  16.750  0.00  0.00    +0.000 HD
ENDBRANCH   9  10
ENDBRANCH   7   9
ENDBRANCH   4   7
BRANCH   1  21
ATOM     21  C   UNL     1       1.880   8.798  19.168  0.00  0.00    +0.000 C 
BRANCH  21  22
ATOM     22  C   UNL     1       0.936   9.743  18.363  0.00  0.00    +0.000 C 
BRANCH  22  30
ATOM     23  C   UNL     1      -3.284  10.869  17.189  0.00  0.00    +0.000 A 
ATOM     24  C   UNL     1      -4.021  11.632  18.076  0.00  0.00    +0.000 A 
ATOM     25  C   UNL     1      -3.421  12.092  19.248  0.00  0.00    +0.000 A 
ATOM     26  C   UNL     1      -2.108  11.798  19.575  0.00  0.00    +0.000 A 
ATOM     27  N   UNL     1      -1.653  12.299  20.729  0.00  0.00    +0.000 NA
ATOM     28  C   UNL     1      -0.381  12.037  21.074  0.00  0.00    +0.000 A 
ATOM     29  C   UNL     1       0.466  11.260  20.315  0.00  0.00    +0.000 A 
ATOM     30  C   UNL     1       0.000  10.682  19.119  0.00  0.00    +0.000 A 
ATOM     31  C   UNL     1      -1.332  10.994  18.701  0.00  0.00    +0.000 A 
ATOM     32  C   UNL     1      -1.952  10.565  17.495  0.00  0.00    +0.000 A 
BRANCH  23  34
ATOM     33  C   UNL     1      -2.789  10.135  14.992  0.00  0.00    +0.000 C 
ATOM     34  O   UNL     1      -3.755  10.338  16.020  0.00  0.00    +0.000 OA
ENDBRANCH  23  34
ENDBRANCH  22  30
BRANCH  22  35
ATOM     35  O   UNL     1       1.783  10.495  17.471  0.00  0.00    +0.000 OA
ATOM     36  H   UNL     1       1.726  11.417  17.792  0.00  0.00    +0.000 HD
ENDBRANCH  22  35
ENDBRANCH  21  22
ENDBRANCH   1  21
TORSDOF 8
ENDMDL
MODEL 6
REMARK VINA RESULT:      -7.8      3.376      8.837
REMARK  Name = 
REMARK  9 active torsions:
REMARK  status: ('A' for Active; 'I' for Inactive)
REMARK    1  A    between atoms: C_1  and  O_2
REMARK    2  A    between atoms: O_2  and  C_3
REMARK    3  A    between atoms: C_10  and  C_11
REMARK    4  A    between atoms: C_11  and  O_12
REMARK    5  A    between atoms: C_11  and  C_13
REMARK    6  A    between atoms: C_13  and  N_14
REMARK    7  A    between atoms: C_17  and  N_18
REMARK    8  A    between atoms: N_18  and  C_19
REMARK    9  A    between atoms: C_19  and  C_20
REMARK                            x       y       z     vdW  Elec       q    Type
REMARK                         _______ _______ _______ _____ _____    ______ ____
ROOT
ATOM      1  N   UNL     1       0.562   9.633  19.108  0.00  0.00    +0.000 NA
ATOM      2  C   UNL     1       0.774  10.872  19.881  0.00  0.00    +0.000 C 
ATOM      3  C   UNL     1      -0.525  11.646  20.131  0.00  0.00    +0.000 C 
ATOM      4  C   UNL     1      -1.260  11.989  18.830  0.00  0.00    +0.000 C 
ATOM      5  C   UNL     1      -1.460  10.671  18.068  0.00  0.00    +0.000 C 
ATOM      6  C   UNL     1      -0.141   9.937  17.841  0.00  0.00    +0.000 C 
ENDROOT
BRANCH   4   7
ATOM      7  N   UNL     1      -0.511  13.031  18.102  0.00  0.00    +0.000 NA
ATOM      8  H   UNL     1      -1.017  13.305  17.261  0.00  0.00    +0.000 HD
BRANCH   7   9
ATOM      9  C   UNL     1      -0.274  14.229  18.899  0.00  0.00    +0.000 C 
BRANCH   9  10
ATOM     10  C   UNL     1       1.159  14.596  18.817  0.00  0.00    +0.000 A 
ATOM     11  N   UNL     1       1.653  15.771  19.331  0.00  0.00    +0.000 N 
ATOM     12  C   UNL     1       3.009  15.869  19.092  0.00  0.00    +0.000 A 
ATOM     13  C   UNL     1       3.912  16.886  19.418  0.00  0.00    +0.000 A 
ATOM     14  C   UNL     1       5.247  16.704  19.048  0.00  0.00    +0.000 A 
ATOM     15  C   UNL     1       5.663  15.554  18.380  0.00  0.00    +0.000 A 
ATOM     16  C   UNL     1       4.747  14.545  18.059  0.00  0.00    +0.000 A 
ATOM     17  C   UNL     1       3.397  14.708  18.420  0.00  0.00    +0.000 A 
ATOM     18  C   UNL     1       2.227  13.935  18.264  0.00  0.00    +0.000 A 
ATOM     19  F   UNL     1       2.161  12.771  17.681  0.00  0.00    +0.000 F 
ATOM     20  H   UNL     1       1.098  16.455  19.829  0.00  0.00    +0.000 HD
ENDBRANCH   9  10
ENDBRANCH   7   9
ENDBRANCH   4   7
BRANCH   1  21
ATOM     21  C   UNL     1       1.846   8.961  18.752  0.00  0.00    +0.000 C 
BRANCH  21  22
ATOM     22  C   UNL     1       2.023   7.451  19.095  0.00  0.00    +0.000 C 
BRANCH  22  30
ATOM     23  C   UNL     1       2.338   2.939  19.049  0.00  0.00    +0.000 A 
ATOM     24  C   UNL     1       3.215   2.361  18.151  0.00  0.00    +0.000 A 
ATOM     25  C   UNL     1       4.021   3.176  17.358  0.00  0.00    +0.000 A 
ATOM     26  C   UNL     1       3.967   4.558  17.419  0.00  0.00    +0.000 A 
ATOM     27  N   UNL     1       4.793   5.225  16.604  0.00  0.00    +0.000 NA
ATOM     28  C   UNL     1       4.770   6.567  16.641  0.00  0.00    +0.000 A 
ATOM     29  C   UNL     1       3.924   7.289  17.455  0.00  0.00    +0.000 A 
ATOM     30  C   UNL     1       3.013   6.615  18.289  0.00  0.00    +0.000 A 
ATOM     31  C   UNL     1       3.059   5.185  18.310  0.00  0.00    +0.000 A 
ATOM     32  C   UNL     1       2.272   4.335  19.134  0.00  0.00    +0.000 A 
BRANCH  23  34
ATOM     33  C   UNL     1       1.270   2.820  21.161  0.00  0.00    +0.000 C 
ATOM     34  O   UNL     1       1.478   2.259  19.867  0.00  0.00    +0.000 OA
ENDBRANCH  23  34
ENDBRANCH  22  30
BRANCH  22  35
ATOM     35  O   UNL     1       2.346   7.391  20.499  0.00  0.00    +0.000 OA
ATOM     36  H   UNL     1       3.218   6.948  20.535  0.00  0.00    +0.000 HD
ENDBRANCH  22  35
ENDBRANCH  21  22
ENDBRANCH   1  21
TORSDOF 8
ENDMDL
MODEL 7
REMARK VINA RESULT:      -7.8      4.080     10.702
REMARK  Name = 
REMARK  9 active torsions:
REMARK  status: ('A' for Active; 'I' for Inactive)
REMARK    1  A    between atoms: C_1  and  O_2
REMARK    2  A    between atoms: O_2  and  C_3
REMARK    3  A    between atoms: C_10  and  C_11
REMARK    4  A    between atoms: C_11  and  O_12
REMARK    5  A    between atoms: C_11  and  C_13
REMARK    6  A    between atoms: C_13  and  N_14
REMARK    7  A    between atoms: C_17  and  N_18
REMARK    8  A    between atoms: N_18  and  C_19
REMARK    9  A    between atoms: C_19  and  C_20
REMARK                            x       y       z     vdW  Elec       q    Type
REMARK                         _______ _______ _______ _____ _____    ______ ____
ROOT
ATOM      1  N   UNL     1       1.381   9.393  19.965  0.00  0.00    +0.000 NA
ATOM      2  C   UNL     1       1.057  10.588  19.162  0.00  0.00    +0.000 C 
ATOM      3  C   UNL     1       0.866  11.845  20.018  0.00  0.00    +0.000 C 
ATOM      4  C   UNL     1      -0.210  11.660  21.096  0.00  0.00    +0.000 C 
ATOM      5  C   UNL     1       0.175  10.412  21.903  0.00  0.00    +0.000 C 
ATOM      6  C   UNL     1       0.352   9.187  21.010  0.00  0.00    +0.000 C 
ENDROOT
BRANCH   4   7
ATOM      7  N   UNL     1      -1.540  11.613  20.459  0.00  0.00    +0.000 NA
ATOM      8  H   UNL     1      -2.145  10.960  20.956  0.00  0.00    +0.000 HD
BRANCH   7   9
ATOM      9  C   UNL     1      -2.205  12.911  20.424  0.00  0.00    +0.000 C 
BRANCH   9  10
ATOM     10  C   UNL     1      -3.452  12.844  21.221  0.00  0.00    +0.000 A 
ATOM     11  N   UNL     1      -4.690  12.687  20.647  0.00  0.00    +0.000 N 
ATOM     12  C   UNL     1      -5.674  12.685  21.615  0.00  0.00    +0.000 A 
ATOM     13  C   UNL     1      -7.063  12.568  21.491  0.00  0.00    +0.000 A 
ATOM     14  C   UNL     1      -7.818  12.593  22.667  0.00  0.00    +0.000 A 
ATOM     15  C   UNL     1      -7.211  12.728  23.914  0.00  0.00    +0.000 A 
ATOM     16  C   UNL     1      -5.820  12.844  24.022  0.00  0.00    +0.000 A 
ATOM     17  C   UNL     1      -5.040  12.824  22.851  0.00  0.00    +0.000 A 
ATOM     18  C   UNL     1      -3.659  12.920  22.576  0.00  0.00    +0.000 A 
ATOM     19  F   UNL     1      -2.718  13.063  23.466  0.00  0.00    +0.000 F 
ATOM     20  H   UNL     1      -4.850  12.572  19.655  0.00  0.00    +0.000 HD
ENDBRANCH   9  10
ENDBRANCH   7   9
ENDBRANCH   4   7
BRANCH   1  21
ATOM     21  C   UNL     1       1.428   8.152  19.139  0.00  0.00    +0.000 C 
BRANCH  21  22
ATOM     22  C   UNL     1       2.725   7.834  18.334  0.00  0.00    +0.000 C 
BRANCH  22  30
ATOM     23  C   UNL     1       6.643   6.196  16.775  0.00  0.00    +0.000 A 
ATOM     24  C   UNL     1       6.740   4.832  16.575  0.00  0.00    +0.000 A 
ATOM     25  C   UNL     1       5.619   4.027  16.779  0.00  0.00    +0.000 A 
ATOM     26  C   UNL     1       4.403   4.540  17.196  0.00  0.00    +0.000 A 
ATOM     27  N   UNL     1       3.406   3.660  17.356  0.00  0.00    +0.000 NA
ATOM     28  C   UNL     1       2.212   4.126  17.755  0.00  0.00    +0.000 A 
ATOM     29  C   UNL     1       1.968   5.453  18.032  0.00  0.00    +0.000 A 
ATOM     30  C   UNL     1       3.009   6.394  17.917  0.00  0.00    +0.000 A 
ATOM     31  C   UNL     1       4.275   5.932  17.437  0.00  0.00    +0.000 A 
ATOM     32  C   UNL     1       5.420   6.738  17.190  0.00  0.00    +0.000 A 
BRANCH  23  34
ATOM     33  C   UNL     1       7.752   8.106  17.631  0.00  0.00    +0.000 C 
ATOM     34  O   UNL     1       7.665   7.093  16.633  0.00  0.00    +0.000 OA
ENDBRANCH  23  34
ENDBRANCH  22  30
BRANCH  22  35
ATOM     35  O   UNL     1       2.703   8.693  17.177  0.00  0.00    +0.000 OA
ATOM     36  H   UNL     1       1.987   8.335  16.615  0.00  0.00    +0.000 HD
ENDBRANCH  22  35
ENDBRANCH  21  22
ENDBRANCH   1  21
TORSDOF 8
ENDMDL
MODEL 8
REMARK VINA RESULT:      -7.7      4.050      9.205
REMARK  Name = 
REMARK  9 active torsions:
REMARK  status: ('A' for Active; 'I' for Inactive)
REMARK    1  A    between atoms: C_1  and  O_2
REMARK    2  A    between atoms: O_2  and  C_3
REMARK    3  A    between atoms: C_10  and  C_11
REMARK    4  A    between atoms: C_11  and  O_12
REMARK    5  A    between atoms: C_11  and  C_13
REMARK    6  A    between atoms: C_13  and  N_14
REMARK    7  A    between atoms: C_17  and  N_18
REMARK    8  A    between atoms: N_18  and  C_19
REMARK    9  A    between atoms: C_19  and  C_20
REMARK                            x       y       z     vdW  Elec       q    Type
REMARK                         _______ _______ _______ _____ _____    ______ ____
ROOT
ATOM      1  N   UNL     1       1.494   8.858  20.518  0.00  0.00    +0.000 NA
ATOM      2  C   UNL     1       1.116  10.165  19.946  0.00  0.00    +0.000 C 
ATOM      3  C   UNL     1       1.004  11.267  21.005  0.00  0.00    +0.000 C 
ATOM      4  C   UNL     1       0.017  10.906  22.122  0.00  0.00    +0.000 C 
ATOM      5  C   UNL     1       0.457   9.547  22.686  0.00  0.00    +0.000 C 
ATOM      6  C   UNL     1       0.551   8.482  21.596  0.00  0.00    +0.000 C 
ENDROOT
BRANCH   4   7
ATOM      7  N   UNL     1      -1.360  10.956  21.596  0.00  0.00    +0.000 NA
ATOM      8  H   UNL     1      -2.031  10.925  22.363  0.00  0.00    +0.000 HD
BRANCH   7   9
ATOM      9  C   UNL     1      -1.629  12.151  20.805  0.00  0.00    +0.000 C 
BRANCH   9  10
ATOM     10  C   UNL     1      -2.249  11.758  19.519  0.00  0.00    +0.000 A 
ATOM     11  N   UNL     1      -1.597  10.982  18.590  0.00  0.00    +0.000 N 
ATOM     12  C   UNL     1      -2.392  10.792  17.477  0.00  0.00    +0.000 A 
ATOM     13  C   UNL     1      -2.137  10.091  16.294  0.00  0.00    +0.000 A 
ATOM     14  C   UNL     1      -3.149  10.065  15.330  0.00  0.00    +0.000 A 
ATOM     15  C   UNL     1      -4.364  10.713  15.540  0.00  0.00    +0.000 A 
ATOM     16  C   UNL     1      -4.605  11.412  16.729  0.00  0.00    +0.000 A 
ATOM     17  C   UNL     1      -3.600  11.453  17.712  0.00  0.00    +0.000 A 
ATOM     18  C   UNL     1      -3.482  12.043  18.989  0.00  0.00    +0.000 A 
ATOM     19  F   UNL     1      -4.399  12.756  19.580  0.00  0.00    +0.000 F 
ATOM     20  H   UNL     1      -0.673  10.592  18.718  0.00  0.00    +0.000 HD
ENDBRANCH   9  10
ENDBRANCH   7   9
ENDBRANCH   4   7
BRANCH   1  21
ATOM     21  C   UNL     1       1.464   7.766  19.503  0.00  0.00    +0.000 C 
BRANCH  21  22
ATOM     22  C   UNL     1       2.673   7.612  18.530  0.00  0.00    +0.000 C 
BRANCH  22  30
ATOM     23  C   UNL     1       6.625   6.322  16.748  0.00  0.00    +0.000 A 
ATOM     24  C   UNL     1       6.786   4.987  16.428  0.00  0.00    +0.000 A 
ATOM     25  C   UNL     1       5.713   4.110  16.585  0.00  0.00    +0.000 A 
ATOM     26  C   UNL     1       4.484   4.521  17.072  0.00  0.00    +0.000 A 
ATOM     27  N   UNL     1       3.537   3.580  17.176  0.00  0.00    +0.000 NA
ATOM     28  C   UNL     1       2.331   3.946  17.640  0.00  0.00    +0.000 A 
ATOM     29  C   UNL     1       2.029   5.230  18.037  0.00  0.00    +0.000 A 
ATOM     30  C   UNL     1       3.018   6.230  17.982  0.00  0.00    +0.000 A 
ATOM     31  C   UNL     1       4.292   5.878  17.436  0.00  0.00    +0.000 A 
ATOM     32  C   UNL     1       5.388   6.762  17.235  0.00  0.00    +0.000 A 
BRANCH  23  34
ATOM     33  C   UNL     1       7.870   8.004  17.860  0.00  0.00    +0.000 C 
ATOM     34  O   UNL     1       7.598   7.280  16.663  0.00  0.00    +0.000 OA
ENDBRANCH  23  34
ENDBRANCH  22  30
BRANCH  22  35
ATOM     35  O   UNL     1       2.438   8.533  17.446  0.00  0.00    +0.000 OA
ATOM     36  H   UNL     1       1.638   9.030  17.711  0.00  0.00    +0.000 HD
ENDBRANCH  22  35
ENDBRANCH  21  22
ENDBRANCH   1  21
TORSDOF 8
ENDMDL
MODEL 9
REMARK VINA RESULT:      -7.7      0.986      1.336
REMARK  Name = 
REMARK  9 active torsions:
REMARK  status: ('A' for Active; 'I' for Inactive)
REMARK    1  A    between atoms: C_1  and  O_2
REMARK    2  A    between atoms: O_2  and  C_3
REMARK    3  A    between atoms: C_10  and  C_11
REMARK    4  A    between atoms: C_11  and  O_12
REMARK    5  A    between atoms: C_11  and  C_13
REMARK    6  A    between atoms: C_13  and  N_14
REMARK    7  A    between atoms: C_17  and  N_18
REMARK    8  A    between atoms: N_18  and  C_19
REMARK    9  A    between atoms: C_19  and  C_20
REMARK                            x       y       z     vdW  Elec       q    Type
REMARK                         _______ _______ _______ _____ _____    ______ ____
ROOT
ATOM      1  N   UNL     1       1.378   5.308  19.936  0.00  0.00    +0.000 NA
ATOM      2  C   UNL     1       1.871   4.992  18.581  0.00  0.00    +0.000 C 
ATOM      3  C   UNL     1       1.211   3.744  17.985  0.00  0.00    +0.000 C 
ATOM      4  C   UNL     1       1.381   2.509  18.879  0.00  0.00    +0.000 C 
ATOM      5  C   UNL     1       0.850   2.887  20.269  0.00  0.00    +0.000 C 
ATOM      6  C   UNL     1       1.537   4.132  20.823  0.00  0.00    +0.000 C 
ENDROOT
BRANCH   4   7
ATOM      7  N   UNL     1       2.787   2.065  18.839  0.00  0.00    +0.000 NA
ATOM      8  H   UNL     1       2.845   1.064  19.026  0.00  0.00    +0.000 HD
BRANCH   7   9
ATOM      9  C   UNL     1       3.435   2.325  17.559  0.00  0.00    +0.000 C 
BRANCH   9  10
ATOM     10  C   UNL     1       4.465   3.375  17.736  0.00  0.00    +0.000 A 
ATOM     11  N   UNL     1       4.898   4.169  16.701  0.00  0.00    +0.000 N 
ATOM     12  C   UNL     1       5.877   5.039  17.138  0.00  0.00    +0.000 A 
ATOM     13  C   UNL     1       6.604   6.007  16.436  0.00  0.00    +0.000 A 
ATOM     14  C   UNL     1       7.540   6.754  17.155  0.00  0.00    +0.000 A 
ATOM     15  C   UNL     1       7.742   6.545  18.517  0.00  0.00    +0.000 A 
ATOM     16  C   UNL     1       7.007   5.572  19.206  0.00  0.00    +0.000 A 
ATOM     17  C   UNL     1       6.060   4.806  18.502  0.00  0.00    +0.000 A 
ATOM     18  C   UNL     1       5.169   3.767  18.846  0.00  0.00    +0.000 A 
ATOM     19  F   UNL     1       5.033   3.250  20.035  0.00  0.00    +0.000 F 
ATOM     20  H   UNL     1       4.533   4.129  15.758  0.00  0.00    +0.000 HD
ENDBRANCH   9  10
ENDBRANCH   7   9
ENDBRANCH   4   7
BRANCH   1  21
ATOM     21  C   UNL     1       2.124   6.439  20.561  0.00  0.00    +0.000 C 
BRANCH  21  22
ATOM     22  C   UNL     1       1.337   7.720  20.972  0.00  0.00    +0.000 C 
BRANCH  22  30
ATOM     23  C   UNL     1      -0.224  11.863  21.901  0.00  0.00    +0.000 A 
ATOM     24  C   UNL     1      -0.020  12.857  20.963  0.00  0.00    +0.000 A 
ATOM     25  C   UNL     1       0.578  12.538  19.744  0.00  0.00    +0.000 A 
ATOM     26  C   UNL     1       0.999  11.255  19.437  0.00  0.00    +0.000 A 
ATOM     27  N   UNL     1       1.559  11.081  18.234  0.00  0.00    +0.000 NA
ATOM     28  C   UNL     1       1.973   9.847  17.903  0.00  0.00    +0.000 A 
ATOM     29  C   UNL     1       1.874   8.762  18.745  0.00  0.00    +0.000 A 
ATOM     30  C   UNL     1       1.331   8.924  20.033  0.00  0.00    +0.000 A 
ATOM     31  C   UNL     1       0.829  10.216  20.388  0.00  0.00    +0.000 A 
ATOM     32  C   UNL     1       0.186  10.556  21.609  0.00  0.00    +0.000 A 
BRANCH  23  34
ATOM     33  C   UNL     1      -2.181  11.816  23.236  0.00  0.00    +0.000 C 
ATOM     34  O   UNL     1      -0.777  12.043  23.139  0.00  0.00    +0.000 OA
ENDBRANCH  23  34
ENDBRANCH  22  30
BRANCH  22  35
ATOM     35  O   UNL     1      -0.013   7.295  21.244  0.00  0.00    +0.000 OA
ATOM     36  H   UNL     1       0.081   6.563  21.886  0.00  0.00    +0.000 HD
ENDBRANCH  22  35
ENDBRANCH  21  22
ENDBRANCH   1  21
TORSDOF 8
ENDMDL
