MODEL 1
REMARK VINA RESULT:      -7.4      0.000      0.000
REMARK  Name = 
REMARK  9 active torsions:
REMARK  status: ('A' for Active; 'I' for Inactive)
REMARK    1  A    between atoms: C_1  and  C_2
REMARK    2  A    between atoms: C_2  and  C_3
REMARK    3  A    between atoms: C_3  and  C_4
REMARK    4  A    between atoms: C_3  and  C_6
REMARK    5  A    between atoms: C_3  and  N_8
REMARK    6  A    between atoms: C_4  and  O_5
REMARK    7  A    between atoms: C_6  and  O_7
REMARK    8  A    between atoms: N_8  and  C_9
REMARK    9  A    between atoms: C_9  and  C_10
REMARK                            x       y       z     vdW  Elec       q    Type
REMARK                         _______ _______ _______ _____ _____    ______ ____
ROOT
ATOM      1  C   UNL     1       1.923   7.685  19.596  0.00  0.00    +0.000 A 
ATOM      2  C   UNL     1       2.206   8.154  18.299  0.00  0.00    +0.000 A 
ATOM      3  C   UNL     1       1.702   9.379  17.862  0.00  0.00    +0.000 A 
ATOM      4  C   UNL     1       0.917  10.165  18.716  0.00  0.00    +0.000 A 
ATOM      5  C   UNL     1       0.351  11.361  18.256  0.00  0.00    +0.000 A 
ATOM      6  C   UNL     1      -0.442  12.141  19.103  0.00  0.00    +0.000 A 
ATOM      7  C   UNL     1      -0.678  11.738  20.426  0.00  0.00    +0.000 A 
ATOM      8  C   UNL     1      -1.471  12.517  21.281  0.00  0.00    +0.000 A 
ATOM      9  C   UNL     1      -1.708  12.099  22.594  0.00  0.00    +0.000 A 
ATOM     10  C   UNL     1      -1.166  10.899  23.064  0.00  0.00    +0.000 A 
ATOM     11  C   UNL     1      -0.376  10.105  22.221  0.00  0.00    +0.000 A 
ATOM     12  C   UNL     1       0.151   8.893  22.673  0.00  0.00    +0.000 A 
ATOM     13  C   UNL     1       0.916   8.094  21.823  0.00  0.00    +0.000 A 
ATOM     14  C   UNL     1       1.191   8.500  20.498  0.00  0.00    +0.000 A 
ATOM     15  C   UNL     1       0.676   9.735  20.041  0.00  0.00    +0.000 A 
ATOM     16  C   UNL     1      -0.121  10.529  20.899  0.00  0.00    +0.000 A 
ENDROOT
BRANCH   1  17
ATOM     17  C   UNL     1       2.292   6.270  19.947  0.00  0.00    +0.000 C 
BRANCH  17  18
ATOM     18  N   UNL     1       3.739   6.034  19.700  0.00  0.00    +0.000 NA
ATOM     19  H   UNL     1       4.120   6.901  19.252  0.00  0.00    +0.000 HD
BRANCH  18  20
ATOM     20  C   UNL     1       4.187   4.828  18.924  0.00  0.00    +0.000 C 
BRANCH  20  22
ATOM     21  C   UNL     1       2.413   3.616  17.450  0.00  0.00    +0.000 C 
ATOM     22  C   UNL     1       3.393   4.791  17.579  0.00  0.00    +0.000 C 
ENDBRANCH  20  22
BRANCH  20  23
ATOM     23  C   UNL     1       3.888   3.518  19.710  0.00  0.00    +0.000 C 
BRANCH  23  24
ATOM     24  O   UNL     1       4.983   2.639  19.700  0.00  0.00    +0.000 OA
ATOM     25  H   UNL     1       5.434   2.743  18.824  0.00  0.00    +0.000 HD
ENDBRANCH  23  24
ENDBRANCH  20  23
BRANCH  20  26
ATOM     26  C   UNL     1       5.713   4.868  18.569  0.00  0.00    +0.000 C 
BRANCH  26  27
ATOM     27  O   UNL     1       6.507   5.131  19.699  0.00  0.00    +0.000 OA
ATOM     28  H   UNL     1       6.137   5.942  20.139  0.00  0.00    +0.000 HD
ENDBRANCH  26  27
ENDBRANCH  20  26
ENDBRANCH  18  20
ENDBRANCH  17  18
ENDBRANCH   1  17
TORSDOF 8
ENDMDL
MODEL 2
REMARK VINA RESULT:      -7.4      1.226      1.848
REMARK  Name = 
REMARK  9 active torsions:
REMARK  status: ('A' for Active; 'I' for Inactive)
REMARK    1  A    between atoms: C_1  and  C_2
REMARK    2  A    between atoms: C_2  and  C_3
REMARK    3  A    between atoms: C_3  and  C_4
REMARK    4  A    between atoms: C_3  and  C_6
REMARK    5  A    between atoms: C_3  and  N_8
REMARK    6  A    between atoms: C_4  and  O_5
REMARK    7  A    between atoms: C_6  and  O_7
REMARK    8  A    between atoms: N_8  and  C_9
REMARK    9  A    between atoms: C_9  and  C_10
REMARK                            x       y       z     vdW  Elec       q    Type
REMARK                         _______ _______ _______ _____ _____    ______ ____
ROOT
ATOM      1  C   UNL     1       1.836   7.977  19.585  0.00  0.00    +0.000 A 
ATOM      2  C   UNL     1       1.907   8.384  18.240  0.00  0.00    +0.000 A 
ATOM      3  C   UNL     1       1.189   9.493  17.795  0.00  0.00    +0.000 A 
ATOM      4  C   UNL     1       0.395  10.225  18.687  0.00  0.00    +0.000 A 
ATOM      5  C   UNL     1      -0.384  11.295  18.229  0.00  0.00    +0.000 A 
ATOM      6  C   UNL     1      -1.185  12.019  19.116  0.00  0.00    +0.000 A 
ATOM      7  C   UNL     1      -1.217  11.686  20.478  0.00  0.00    +0.000 A 
ATOM      8  C   UNL     1      -2.018  12.410  21.374  0.00  0.00    +0.000 A 
ATOM      9  C   UNL     1      -2.049  12.062  22.728  0.00  0.00    +0.000 A 
ATOM     10  C   UNL     1      -1.293  10.985  23.199  0.00  0.00    +0.000 A 
ATOM     11  C   UNL     1      -0.492  10.246  22.317  0.00  0.00    +0.000 A 
ATOM     12  C   UNL     1       0.250   9.154  22.773  0.00  0.00    +0.000 A 
ATOM     13  C   UNL     1       1.026   8.407  21.887  0.00  0.00    +0.000 A 
ATOM     14  C   UNL     1       1.096   8.748  20.518  0.00  0.00    +0.000 A 
ATOM     15  C   UNL     1       0.362   9.864  20.054  0.00  0.00    +0.000 A 
ATOM     16  C   UNL     1      -0.444  10.603  20.952  0.00  0.00    +0.000 A 
ENDROOT
BRANCH   1  17
ATOM     17  C   UNL     1       2.441   6.656  19.971  0.00  0.00    +0.000 C 
BRANCH  17  18
ATOM     18  N   UNL     1       2.500   5.747  18.795  0.00  0.00    +0.000 NA
ATOM     19  H   UNL     1       1.746   6.051  18.134  0.00  0.00    +0.000 HD
BRANCH  18  20
ATOM     20  C   UNL     1       2.432   4.258  18.985  0.00  0.00    +0.000 C 
BRANCH  20  22
ATOM     21  C   UNL     1       1.586   3.221  21.221  0.00  0.00    +0.000 C 
ATOM     22  C   UNL     1       1.218   3.940  19.915  0.00  0.00    +0.000 C 
ENDBRANCH  20  22
BRANCH  20  23
ATOM     23  C   UNL     1       3.727   3.725  19.664  0.00  0.00    +0.000 C 
BRANCH  23  24
ATOM     24  O   UNL     1       4.503   2.957  18.782  0.00  0.00    +0.000 OA
ATOM     25  H   UNL     1       3.961   2.810  17.966  0.00  0.00    +0.000 HD
ENDBRANCH  23  24
ENDBRANCH  20  23
BRANCH  20  26
ATOM     26  C   UNL     1       2.211   3.485  17.641  0.00  0.00    +0.000 C 
BRANCH  26  27
ATOM     27  O   UNL     1       1.860   2.141  17.861  0.00  0.00    +0.000 OA
ATOM     28  H   UNL     1       0.904   2.039  17.606  0.00  0.00    +0.000 HD
ENDBRANCH  26  27
ENDBRANCH  20  26
ENDBRANCH  18  20
ENDBRANCH  17  18
ENDBRANCH   1  17
TORSDOF 8
ENDMDL
MODEL 3
REMARK VINA RESULT:      -7.2      1.148      1.506
REMARK  Name = 
REMARK  9 active torsions:
REMARK  status: ('A' for Active; 'I' for Inactive)
REMARK    1  A    between atoms: C_1  and  C_2
REMARK    2  A    between atoms: C_2  and  C_3
REMARK    3  A    between atoms: C_3  and  C_4
REMARK    4  A    between atoms: C_3  and  C_6
REMARK    5  A    between atoms: C_3  and  N_8
REMARK    6  A    between atoms: C_4  and  O_5
REMARK    7  A    between atoms: C_6  and  O_7
REMARK    8  A    between atoms: N_8  and  C_9
REMARK    9  A    between atoms: C_9  and  C_10
REMARK                            x       y       z     vdW  Elec       q    Type
REMARK                         _______ _______ _______ _____ _____    ______ ____
ROOT
ATOM      1  C   UNL     1       2.163   7.792  19.212  0.00  0.00    +0.000 A 
ATOM      2  C   UNL     1       2.400   8.419  17.975  0.00  0.00    +0.000 A 
ATOM      3  C   UNL     1       1.847   9.669  17.696  0.00  0.00    +0.000 A 
ATOM      4  C   UNL     1       1.057  10.321  18.651  0.00  0.00    +0.000 A 
ATOM      5  C   UNL     1       0.442  11.543  18.347  0.00  0.00    +0.000 A 
ATOM      6  C   UNL     1      -0.355  12.190  19.295  0.00  0.00    +0.000 A 
ATOM      7  C   UNL     1      -0.547  11.626  20.565  0.00  0.00    +0.000 A 
ATOM      8  C   UNL     1      -1.345  12.272  21.522  0.00  0.00    +0.000 A 
ATOM      9  C   UNL     1      -1.537  11.695  22.781  0.00  0.00    +0.000 A 
ATOM     10  C   UNL     1      -0.946  10.468  23.095  0.00  0.00    +0.000 A 
ATOM     11  C   UNL     1      -0.150   9.806  22.149  0.00  0.00    +0.000 A 
ATOM     12  C   UNL     1       0.426   8.568  22.445  0.00  0.00    +0.000 A 
ATOM     13  C   UNL     1       1.196   7.901  21.491  0.00  0.00    +0.000 A 
ATOM     14  C   UNL     1       1.427   8.469  20.219  0.00  0.00    +0.000 A 
ATOM     15  C   UNL     1       0.861   9.731  19.921  0.00  0.00    +0.000 A 
ATOM     16  C   UNL     1       0.060  10.391  20.882  0.00  0.00    +0.000 A 
ENDROOT
BRANCH   1  17
ATOM     17  C   UNL     1       2.585   6.359  19.387  0.00  0.00    +0.000 C 
BRANCH  17  18
ATOM     18  N   UNL     1       2.991   5.775  18.081  0.00  0.00    +0.000 NA
ATOM     19  H   UNL     1       2.248   5.089  17.807  0.00  0.00    +0.000 HD
BRANCH  18  20
ATOM     20  C   UNL     1       4.343   5.139  17.925  0.00  0.00    +0.000 C 
BRANCH  20  22
ATOM     21  C   UNL     1       4.994   6.702  15.944  0.00  0.00    +0.000 C 
ATOM     22  C   UNL     1       5.326   6.215  17.362  0.00  0.00    +0.000 C 
ENDBRANCH  20  22
BRANCH  20  23
ATOM     23  C   UNL     1       4.287   3.949  16.923  0.00  0.00    +0.000 C 
BRANCH  23  24
ATOM     24  O   UNL     1       5.566   3.456  16.623  0.00  0.00    +0.000 OA
ATOM     25  H   UNL     1       5.489   2.472  16.538  0.00  0.00    +0.000 HD
ENDBRANCH  23  24
ENDBRANCH  20  23
BRANCH  20  26
ATOM     26  C   UNL     1       4.933   4.628  19.284  0.00  0.00    +0.000 C 
BRANCH  26  27
ATOM     27  O   UNL     1       5.124   3.235  19.282  0.00  0.00    +0.000 OA
ATOM     28  H   UNL     1       4.268   2.819  19.569  0.00  0.00    +0.000 HD
ENDBRANCH  26  27
ENDBRANCH  20  26
ENDBRANCH  18  20
ENDBRANCH  17  18
ENDBRANCH   1  17
TORSDOF 8
ENDMDL
MODEL 4
REMARK VINA RESULT:      -7.2      1.132      1.532
REMARK  Name = 
REMARK  9 active torsions:
REMARK  status: ('A' for Active; 'I' for Inactive)
REMARK    1  A    between atoms: C_1  and  C_2
REMARK    2  A    between atoms: C_2  and  C_3
REMARK    3  A    between atoms: C_3  and  C_4
REMARK    4  A    between atoms: C_3  and  C_6
REMARK    5  A    between atoms: C_3  and  N_8
REMARK    6  A    between atoms: C_4  and  O_5
REMARK    7  A    between atoms: C_6  and  O_7
REMARK    8  A    between atoms: N_8  and  C_9
REMARK    9  A    between atoms: C_9  and  C_10
REMARK                            x       y       z     vdW  Elec       q    Type
REMARK                         _______ _______ _______ _____ _____    ______ ____
ROOT
ATOM      1  C   UNL     1       1.812   8.017  19.558  0.00  0.00    +0.000 A 
ATOM      2  C   UNL     1       1.872   8.406  18.207  0.00  0.00    +0.000 A 
ATOM      3  C   UNL     1       1.146   9.507  17.753  0.00  0.00    +0.000 A 
ATOM      4  C   UNL     1       0.357  10.248  18.642  0.00  0.00    +0.000 A 
ATOM      5  C   UNL     1      -0.429  11.310  18.175  0.00  0.00    +0.000 A 
ATOM      6  C   UNL     1      -1.226  12.044  19.059  0.00  0.00    +0.000 A 
ATOM      7  C   UNL     1      -1.246  11.729  20.425  0.00  0.00    +0.000 A 
ATOM      8  C   UNL     1      -2.042  12.462  21.317  0.00  0.00    +0.000 A 
ATOM      9  C   UNL     1      -2.061  12.132  22.676  0.00  0.00    +0.000 A 
ATOM     10  C   UNL     1      -1.298  11.064  23.156  0.00  0.00    +0.000 A 
ATOM     11  C   UNL     1      -0.502  10.316  22.278  0.00  0.00    +0.000 A 
ATOM     12  C   UNL     1       0.247   9.232  22.743  0.00  0.00    +0.000 A 
ATOM     13  C   UNL     1       1.018   8.475  21.861  0.00  0.00    +0.000 A 
ATOM     14  C   UNL     1       1.077   8.799  20.487  0.00  0.00    +0.000 A 
ATOM     15  C   UNL     1       0.336   9.906  20.014  0.00  0.00    +0.000 A 
ATOM     16  C   UNL     1      -0.465  10.655  20.907  0.00  0.00    +0.000 A 
ENDROOT
BRANCH   1  17
ATOM     17  C   UNL     1       2.424   6.703  19.958  0.00  0.00    +0.000 C 
BRANCH  17  18
ATOM     18  N   UNL     1       3.548   6.355  19.049  0.00  0.00    +0.000 NA
ATOM     19  H   UNL     1       3.637   7.137  18.357  0.00  0.00    +0.000 HD
BRANCH  18  20
ATOM     20  C   UNL     1       3.556   5.039  18.325  0.00  0.00    +0.000 C 
BRANCH  20  22
ATOM     21  C   UNL     1       5.254   6.407  16.898  0.00  0.00    +0.000 C 
ATOM     22  C   UNL     1       4.247   5.249  16.939  0.00  0.00    +0.000 C 
ENDBRANCH  20  22
BRANCH  20  23
ATOM     23  C   UNL     1       2.106   4.529  18.082  0.00  0.00    +0.000 C 
BRANCH  23  24
ATOM     24  O   UNL     1       2.068   3.483  17.147  0.00  0.00    +0.000 OA
ATOM     25  H   UNL     1       1.880   2.649  17.648  0.00  0.00    +0.000 HD
ENDBRANCH  23  24
ENDBRANCH  20  23
BRANCH  20  26
ATOM     26  C   UNL     1       4.360   3.932  19.088  0.00  0.00    +0.000 C 
BRANCH  26  27
ATOM     27  O   UNL     1       4.752   2.886  18.234  0.00  0.00    +0.000 OA
ATOM     28  H   UNL     1       4.469   2.033  18.660  0.00  0.00    +0.000 HD
ENDBRANCH  26  27
ENDBRANCH  20  26
ENDBRANCH  18  20
ENDBRANCH  17  18
ENDBRANCH   1  17
TORSDOF 8
ENDMDL
MODEL 5
REMARK VINA RESULT:      -7.2      4.704      7.042
REMARK  Name = 
REMARK  9 active torsions:
REMARK  status: ('A' for Active; 'I' for Inactive)
REMARK    1  A    between atoms: C_1  and  C_2
REMARK    2  A    between atoms: C_2  and  C_3
REMARK    3  A    between atoms: C_3  and  C_4
REMARK    4  A    between atoms: C_3  and  C_6
REMARK    5  A    between atoms: C_3  and  N_8
REMARK    6  A    between atoms: C_4  and  O_5
REMARK    7  A    between atoms: C_6  and  O_7
REMARK    8  A    between atoms: N_8  and  C_9
REMARK    9  A    between atoms: C_9  and  C_10
REMARK                            x       y       z     vdW  Elec       q    Type
REMARK                         _______ _______ _______ _____ _____    ______ ____
ROOT
ATOM      1  C   UNL     1       5.196   4.145  15.823  0.00  0.00    +0.000 A 
ATOM      2  C   UNL     1       5.497   5.484  15.513  0.00  0.00    +0.000 A 
ATOM      3  C   UNL     1       4.931   6.527  16.246  0.00  0.00    +0.000 A 
ATOM      4  C   UNL     1       4.062   6.252  17.309  0.00  0.00    +0.000 A 
ATOM      5  C   UNL     1       3.435   7.297  18.001  0.00  0.00    +0.000 A 
ATOM      6  C   UNL     1       2.560   7.025  19.055  0.00  0.00    +0.000 A 
ATOM      7  C   UNL     1       2.299   5.700  19.438  0.00  0.00    +0.000 A 
ATOM      8  C   UNL     1       1.423   5.420  20.497  0.00  0.00    +0.000 A 
ATOM      9  C   UNL     1       1.164   4.096  20.862  0.00  0.00    +0.000 A 
ATOM     10  C   UNL     1       1.766   3.040  20.172  0.00  0.00    +0.000 A 
ATOM     11  C   UNL     1       2.639   3.302  19.107  0.00  0.00    +0.000 A 
ATOM     12  C   UNL     1       3.228   2.253  18.395  0.00  0.00    +0.000 A 
ATOM     13  C   UNL     1       4.077   2.518  17.321  0.00  0.00    +0.000 A 
ATOM     14  C   UNL     1       4.377   3.846  16.942  0.00  0.00    +0.000 A 
ATOM     15  C   UNL     1       3.798   4.911  17.671  0.00  0.00    +0.000 A 
ATOM     16  C   UNL     1       2.917   4.637  18.744  0.00  0.00    +0.000 A 
ENDROOT
BRANCH   1  17
ATOM     17  C   UNL     1       5.645   3.067  14.875  0.00  0.00    +0.000 C 
BRANCH  17  18
ATOM     18  N   UNL     1       6.568   3.626  13.852  0.00  0.00    +0.000 NA
ATOM     19  H   UNL     1       6.723   4.633  14.095  0.00  0.00    +0.000 HD
BRANCH  18  20
ATOM     20  C   UNL     1       6.239   3.506  12.391  0.00  0.00    +0.000 C 
BRANCH  20  22
ATOM     21  C   UNL     1       4.006   3.182  11.087  0.00  0.00    +0.000 C 
ATOM     22  C   UNL     1       4.754   3.948  12.187  0.00  0.00    +0.000 C 
ENDBRANCH  20  22
BRANCH  20  23
ATOM     23  C   UNL     1       6.388   2.035  11.906  0.00  0.00    +0.000 C 
BRANCH  23  24
ATOM     24  O   UNL     1       7.591   1.831  11.213  0.00  0.00    +0.000 OA
ATOM     25  H   UNL     1       7.358   1.476  10.318  0.00  0.00    +0.000 HD
ENDBRANCH  23  24
ENDBRANCH  20  23
BRANCH  20  26
ATOM     26  C   UNL     1       7.131   4.428  11.491  0.00  0.00    +0.000 C 
BRANCH  26  27
ATOM     27  O   UNL     1       7.924   5.300  12.258  0.00  0.00    +0.000 OA
ATOM     28  H   UNL     1       7.358   6.082  12.497  0.00  0.00    +0.000 HD
ENDBRANCH  26  27
ENDBRANCH  20  26
ENDBRANCH  18  20
ENDBRANCH  17  18
ENDBRANCH   1  17
TORSDOF 8
ENDMDL
MODEL 6
REMARK VINA RESULT:      -7.2      0.940      1.041
REMARK  Name = 
REMARK  9 active torsions:
REMARK  status: ('A' for Active; 'I' for Inactive)
REMARK    1  A    between atoms: C_1  and  C_2
REMARK    2  A    between atoms: C_2  and  C_3
REMARK    3  A    between atoms: C_3  and  C_4
REMARK    4  A    between atoms: C_3  and  C_6
REMARK    5  A    between atoms: C_3  and  N_8
REMARK    6  A    between atoms: C_4  and  O_5
REMARK    7  A    between atoms: C_6  and  O_7
REMARK    8  A    between atoms: N_8  and  C_9
REMARK    9  A    between atoms: C_9  and  C_10
REMARK                            x       y       z     vdW  Elec       q    Type
REMARK                         _______ _______ _______ _____ _____    ______ ____
ROOT
ATOM      1  C   UNL     1       2.027   8.016  19.354  0.00  0.00    +0.000 A 
ATOM      2  C   UNL     1       2.153   8.567  18.065  0.00  0.00    +0.000 A 
ATOM      3  C   UNL     1       1.482   9.741  17.726  0.00  0.00    +0.000 A 
ATOM      4  C   UNL     1       0.682  10.395  18.672  0.00  0.00    +0.000 A 
ATOM      5  C   UNL     1      -0.050  11.535  18.313  0.00  0.00    +0.000 A 
ATOM      6  C   UNL     1      -0.857  12.183  19.252  0.00  0.00    +0.000 A 
ATOM      7  C   UNL     1      -0.943  11.702  20.567  0.00  0.00    +0.000 A 
ATOM      8  C   UNL     1      -1.751  12.348  21.515  0.00  0.00    +0.000 A 
ATOM      9  C   UNL     1      -1.836  11.853  22.820  0.00  0.00    +0.000 A 
ATOM     10  C   UNL     1      -1.128  10.706  23.190  0.00  0.00    +0.000 A 
ATOM     11  C   UNL     1      -0.321  10.044  22.254  0.00  0.00    +0.000 A 
ATOM     12  C   UNL     1       0.373   8.884  22.607  0.00  0.00    +0.000 A 
ATOM     13  C   UNL     1       1.155   8.214  21.665  0.00  0.00    +0.000 A 
ATOM     14  C   UNL     1       1.280   8.703  20.346  0.00  0.00    +0.000 A 
ATOM     15  C   UNL     1       0.594   9.887  19.988  0.00  0.00    +0.000 A 
ATOM     16  C   UNL     1      -0.218  10.548  20.939  0.00  0.00    +0.000 A 
ENDROOT
BRANCH   1  17
ATOM     17  C   UNL     1       2.578   6.640  19.607  0.00  0.00    +0.000 C 
BRANCH  17  18
ATOM     18  N   UNL     1       2.678   5.878  18.335  0.00  0.00    +0.000 NA
ATOM     19  H   UNL     1       1.939   5.136  18.362  0.00  0.00    +0.000 HD
BRANCH  18  20
ATOM     20  C   UNL     1       3.987   5.268  17.919  0.00  0.00    +0.000 C 
BRANCH  20  22
ATOM     21  C   UNL     1       2.273   3.361  17.453  0.00  0.00    +0.000 C 
ATOM     22  C   UNL     1       3.689   3.905  17.215  0.00  0.00    +0.000 C 
ENDBRANCH  20  22
BRANCH  20  23
ATOM     23  C   UNL     1       4.892   4.997  19.156  0.00  0.00    +0.000 C 
BRANCH  23  24
ATOM     24  O   UNL     1       5.793   3.945  18.926  0.00  0.00    +0.000 OA
ATOM     25  H   UNL     1       6.444   4.259  18.249  0.00  0.00    +0.000 HD
ENDBRANCH  23  24
ENDBRANCH  20  23
BRANCH  20  26
ATOM     26  C   UNL     1       4.776   6.160  16.901  0.00  0.00    +0.000 C 
BRANCH  26  27
ATOM     27  O   UNL     1       5.920   6.733  17.484  0.00  0.00    +0.000 OA
ATOM     28  H   UNL     1       5.760   7.713  17.550  0.00  0.00    +0.000 HD
ENDBRANCH  26  27
ENDBRANCH  20  26
ENDBRANCH  18  20
ENDBRANCH  17  18
ENDBRANCH   1  17
TORSDOF 8
ENDMDL
MODEL 7
REMARK VINA RESULT:      -7.2      0.996      1.149
REMARK  Name = 
REMARK  9 active torsions:
REMARK  status: ('A' for Active; 'I' for Inactive)
REMARK    1  A    between atoms: C_1  and  C_2
REMARK    2  A    between atoms: C_2  and  C_3
REMARK    3  A    between atoms: C_3  and  C_4
REMARK    4  A    between atoms: C_3  and  C_6
REMARK    5  A    between atoms: C_3  and  N_8
REMARK    6  A    between atoms: C_4  and  O_5
REMARK    7  A    between atoms: C_6  and  O_7
REMARK    8  A    between atoms: N_8  and  C_9
REMARK    9  A    between atoms: C_9  and  C_10
REMARK                            x       y       z     vdW  Elec       q    Type
REMARK                         _______ _______ _______ _____ _____    ______ ____
ROOT
ATOM      1  C   UNL     1       1.891   7.949  19.537  0.00  0.00    +0.000 A 
ATOM      2  C   UNL     1       1.916   8.314  18.178  0.00  0.00    +0.000 A 
ATOM      3  C   UNL     1       1.155   9.388  17.718  0.00  0.00    +0.000 A 
ATOM      4  C   UNL     1       0.364  10.126  18.608  0.00  0.00    +0.000 A 
ATOM      5  C   UNL     1      -0.456  11.160  18.137  0.00  0.00    +0.000 A 
ATOM      6  C   UNL     1      -1.254  11.890  19.022  0.00  0.00    +0.000 A 
ATOM      7  C   UNL     1      -1.241  11.600  20.394  0.00  0.00    +0.000 A 
ATOM      8  C   UNL     1      -2.039  12.331  21.288  0.00  0.00    +0.000 A 
ATOM      9  C   UNL     1      -2.025  12.025  22.652  0.00  0.00    +0.000 A 
ATOM     10  C   UNL     1      -1.227  10.985  23.137  0.00  0.00    +0.000 A 
ATOM     11  C   UNL     1      -0.429  10.241  22.257  0.00  0.00    +0.000 A 
ATOM     12  C   UNL     1       0.355   9.184  22.728  0.00  0.00    +0.000 A 
ATOM     13  C   UNL     1       1.128   8.430  21.846  0.00  0.00    +0.000 A 
ATOM     14  C   UNL     1       1.153   8.729  20.465  0.00  0.00    +0.000 A 
ATOM     15  C   UNL     1       0.377   9.809  19.986  0.00  0.00    +0.000 A 
ATOM     16  C   UNL     1      -0.426  10.555  20.881  0.00  0.00    +0.000 A 
ENDROOT
BRANCH   1  17
ATOM     17  C   UNL     1       2.541   6.657  19.949  0.00  0.00    +0.000 C 
BRANCH  17  18
ATOM     18  N   UNL     1       3.253   6.043  18.796  0.00  0.00    +0.000 NA
ATOM     19  H   UNL     1       2.990   6.593  17.944  0.00  0.00    +0.000 HD
BRANCH  18  20
ATOM     20  C   UNL     1       3.107   4.575  18.512  0.00  0.00    +0.000 C 
BRANCH  20  22
ATOM     21  C   UNL     1       1.071   3.272  19.485  0.00  0.00    +0.000 C 
ATOM     22  C   UNL     1       1.582   4.247  18.415  0.00  0.00    +0.000 C 
ENDBRANCH  20  22
BRANCH  20  23
ATOM     23  C   UNL     1       3.724   3.723  19.658  0.00  0.00    +0.000 C 
BRANCH  23  24
ATOM     24  O   UNL     1       4.687   2.821  19.180  0.00  0.00    +0.000 OA
ATOM     25  H   UNL     1       4.233   1.952  19.041  0.00  0.00    +0.000 HD
ENDBRANCH  23  24
ENDBRANCH  20  23
BRANCH  20  26
ATOM     26  C   UNL     1       3.767   4.152  17.155  0.00  0.00    +0.000 C 
BRANCH  26  27
ATOM     27  O   UNL     1       5.047   4.712  16.998  0.00  0.00    +0.000 OA
ATOM     28  H   UNL     1       4.960   5.693  17.139  0.00  0.00    +0.000 HD
ENDBRANCH  26  27
ENDBRANCH  20  26
ENDBRANCH  18  20
ENDBRANCH  17  18
ENDBRANCH   1  17
TORSDOF 8
ENDMDL
MODEL 8
REMARK VINA RESULT:      -7.1      3.208      7.443
REMARK  Name = 
REMARK  9 active torsions:
REMARK  status: ('A' for Active; 'I' for Inactive)
REMARK    1  A    between atoms: C_1  and  C_2
REMARK    2  A    between atoms: C_2  and  C_3
REMARK    3  A    between atoms: C_3  and  C_4
REMARK    4  A    between atoms: C_3  and  C_6
REMARK    5  A    between atoms: C_3  and  N_8
REMARK    6  A    between atoms: C_4  and  O_5
REMARK    7  A    between atoms: C_6  and  O_7
REMARK    8  A    between atoms: N_8  and  C_9
REMARK    9  A    between atoms: C_9  and  C_10
REMARK                            x       y       z     vdW  Elec       q    Type
REMARK                         _______ _______ _______ _____ _____    ______ ____
ROOT
ATOM      1  C   UNL     1       1.847   7.854  19.874  0.00  0.00    +0.000 A 
ATOM      2  C   UNL     1       2.394   8.634  18.838  0.00  0.00    +0.000 A 
ATOM      3  C   UNL     1       3.134   8.039  17.817  0.00  0.00    +0.000 A 
ATOM      4  C   UNL     1       3.333   6.653  17.804  0.00  0.00    +0.000 A 
ATOM      5  C   UNL     1       4.136   6.061  16.820  0.00  0.00    +0.000 A 
ATOM      6  C   UNL     1       4.343   4.679  16.812  0.00  0.00    +0.000 A 
ATOM      7  C   UNL     1       3.747   3.865  17.786  0.00  0.00    +0.000 A 
ATOM      8  C   UNL     1       3.950   2.477  17.782  0.00  0.00    +0.000 A 
ATOM      9  C   UNL     1       3.359   1.678  18.765  0.00  0.00    +0.000 A 
ATOM     10  C   UNL     1       2.569   2.253  19.765  0.00  0.00    +0.000 A 
ATOM     11  C   UNL     1       2.361   3.639  19.788  0.00  0.00    +0.000 A 
ATOM     12  C   UNL     1       1.593   4.227  20.797  0.00  0.00    +0.000 A 
ATOM     13  C   UNL     1       1.409   5.609  20.830  0.00  0.00    +0.000 A 
ATOM     14  C   UNL     1       1.975   6.441  19.838  0.00  0.00    +0.000 A 
ATOM     15  C   UNL     1       2.737   5.849  18.804  0.00  0.00    +0.000 A 
ATOM     16  C   UNL     1       2.943   4.450  18.789  0.00  0.00    +0.000 A 
ENDROOT
BRANCH   1  17
ATOM     17  C   UNL     1       1.253   8.552  21.066  0.00  0.00    +0.000 C 
BRANCH  17  18
ATOM     18  N   UNL     1      -0.062   9.151  20.716  0.00  0.00    +0.000 NA
ATOM     19  H   UNL     1      -0.289   8.846  19.740  0.00  0.00    +0.000 HD
BRANCH  18  20
ATOM     20  C   UNL     1      -0.277  10.632  20.843  0.00  0.00    +0.000 C 
BRANCH  20  22
ATOM     21  C   UNL     1      -0.920  10.362  18.332  0.00  0.00    +0.000 C 
ATOM     22  C   UNL     1      -1.178  11.098  19.655  0.00  0.00    +0.000 C 
ENDBRANCH  20  22
BRANCH  20  23
ATOM     23  C   UNL     1       1.075  11.398  20.768  0.00  0.00    +0.000 C 
BRANCH  23  24
ATOM     24  O   UNL     1       1.055  12.575  21.533  0.00  0.00    +0.000 OA
ATOM     25  H   UNL     1       0.626  12.355  22.398  0.00  0.00    +0.000 HD
ENDBRANCH  23  24
ENDBRANCH  20  23
BRANCH  20  26
ATOM     26  C   UNL     1      -1.009  11.027  22.171  0.00  0.00    +0.000 C 
BRANCH  26  27
ATOM     27  O   UNL     1      -0.280  10.635  23.308  0.00  0.00    +0.000 OA
ATOM     28  H   UNL     1      -0.922  10.214  23.940  0.00  0.00    +0.000 HD
ENDBRANCH  26  27
ENDBRANCH  20  26
ENDBRANCH  18  20
ENDBRANCH  17  18
ENDBRANCH   1  17
TORSDOF 8
ENDMDL
MODEL 9
REMARK VINA RESULT:      -7.1      1.573      2.120
REMARK  Name = 
REMARK  9 active torsions:
REMARK  status: ('A' for Active; 'I' for Inactive)
REMARK    1  A    between atoms: C_1  and  C_2
REMARK    2  A    between atoms: C_2  and  C_3
REMARK    3  A    between atoms: C_3  and  C_4
REMARK    4  A    between atoms: C_3  and  C_6
REMARK    5  A    between atoms: C_3  and  N_8
REMARK    6  A    between atoms: C_4  and  O_5
REMARK    7  A    between atoms: C_6  and  O_7
REMARK    8  A    between atoms: N_8  and  C_9
REMARK    9  A    between atoms: C_9  and  C_10
REMARK                            x       y       z     vdW  Elec       q    Type
REMARK                         _______ _______ _______ _____ _____    ______ ____
ROOT
ATOM      1  C   UNL     1       1.859   7.969  19.648  0.00  0.00    +0.000 A 
ATOM      2  C   UNL     1       1.894   8.298  18.280  0.00  0.00    +0.000 A 
ATOM      3  C   UNL     1       1.137   9.360  17.786  0.00  0.00    +0.000 A 
ATOM      4  C   UNL     1       0.340  10.121  18.650  0.00  0.00    +0.000 A 
ATOM      5  C   UNL     1      -0.477  11.142  18.146  0.00  0.00    +0.000 A 
ATOM      6  C   UNL     1      -1.281  11.896  19.005  0.00  0.00    +0.000 A 
ATOM      7  C   UNL     1      -1.278  11.642  20.385  0.00  0.00    +0.000 A 
ATOM      8  C   UNL     1      -2.081  12.397  21.253  0.00  0.00    +0.000 A 
ATOM      9  C   UNL     1      -2.078  12.128  22.625  0.00  0.00    +0.000 A 
ATOM     10  C   UNL     1      -1.283  11.101  23.143  0.00  0.00    +0.000 A 
ATOM     11  C   UNL     1      -0.479  10.333  22.290  0.00  0.00    +0.000 A 
ATOM     12  C   UNL     1       0.301   9.290  22.794  0.00  0.00    +0.000 A 
ATOM     13  C   UNL     1       1.081   8.512  21.937  0.00  0.00    +0.000 A 
ATOM     14  C   UNL     1       1.116   8.774  20.550  0.00  0.00    +0.000 A 
ATOM     15  C   UNL     1       0.342   9.841  20.036  0.00  0.00    +0.000 A 
ATOM     16  C   UNL     1      -0.466  10.610  20.905  0.00  0.00    +0.000 A 
ENDROOT
BRANCH   1  17
ATOM     17  C   UNL     1       2.507   6.689  20.098  0.00  0.00    +0.000 C 
BRANCH  17  18
ATOM     18  N   UNL     1       2.557   5.710  18.980  0.00  0.00    +0.000 NA
ATOM     19  H   UNL     1       1.944   6.084  18.217  0.00  0.00    +0.000 HD
BRANCH  18  20
ATOM     20  C   UNL     1       2.230   4.265  19.226  0.00  0.00    +0.000 C 
BRANCH  20  22
ATOM     21  C   UNL     1       4.803   4.167  18.822  0.00  0.00    +0.000 C 
ATOM     22  C   UNL     1       3.571   3.491  19.442  0.00  0.00    +0.000 C 
ENDBRANCH  20  22
BRANCH  20  23
ATOM     23  C   UNL     1       1.494   3.645  18.003  0.00  0.00    +0.000 C 
BRANCH  23  24
ATOM     24  O   UNL     1       1.755   2.272  17.875  0.00  0.00    +0.000 OA
ATOM     25  H   UNL     1       2.622   2.181  17.403  0.00  0.00    +0.000 HD
ENDBRANCH  23  24
ENDBRANCH  20  23
BRANCH  20  26
ATOM     26  C   UNL     1       1.352   4.051  20.506  0.00  0.00    +0.000 C 
BRANCH  26  27
ATOM     27  O   UNL     1       0.323   3.119  20.286  0.00  0.00    +0.000 OA
ATOM     28  H   UNL     1      -0.065   3.312  19.391  0.00  0.00    +0.000 HD
ENDBRANCH  26  27
ENDBRANCH  20  26
ENDBRANCH  18  20
ENDBRANCH  17  18
ENDBRANCH   1  17
TORSDOF 8
ENDMDL
