MODEL 1
REMARK VINA RESULT:      -6.5      0.000      0.000
REMARK  Name = 
REMARK  16 active torsions:
REMARK  status: ('A' for Active; 'I' for Inactive)
REMARK    1  A    between atoms: C_1  and  C_2
REMARK    2  A    between atoms: C_4  and  O_5
REMARK    3  A    between atoms: O_5  and  C_6
REMARK    4  A    between atoms: C_8  and  C_9
REMARK    5  A    between atoms: C_9  and  O_10
REMARK    6  A    between atoms: C_11  and  O_12
REMARK    7  A    between atoms: C_13  and  O_14
REMARK    8  A    between atoms: C_15  and  O_16
REMARK    9  A    between atoms: C_19  and  C_20
REMARK   10  A    between atoms: C_20  and  O_22
REMARK   11  A    between atoms: O_22  and  C_23
REMARK   12  A    between atoms: C_24  and  C_25
REMARK   13  A    between atoms: C_25  and  C_26
REMARK   14  A    between atoms: C_26  and  O_28
REMARK   15  A    between atoms: O_28  and  C_29
REMARK   16  A    between atoms: C_29  and  C_30
REMARK                            x       y       z     vdW  Elec       q    Type
REMARK                         _______ _______ _______ _____ _____    ______ ____
ROOT
ATOM      1  C   UNL     1      -0.247   9.582  22.876  0.00  0.00    +0.000 C 
ATOM      2  C   UNL     1       0.079   8.838  21.615  0.00  0.00    +0.000 C 
ATOM      3  C   UNL     1       0.583   9.368  20.474  0.00  0.00    +0.000 C 
ATOM      4  C   UNL     1       1.129   8.450  19.382  0.00  0.00    +0.000 C 
ATOM      5  O   UNL     1       1.580   9.088  18.174  0.00  0.00    +0.000 OA
ATOM      6  C   UNL     1       1.935  10.404  18.200  0.00  0.00    +0.000 C 
ATOM      7  C   UNL     1       1.584  11.273  19.152  0.00  0.00    +0.000 C 
ATOM      8  C   UNL     1       0.702  10.869  20.293  0.00  0.00    +0.000 C 
ENDROOT
BRANCH   7   9
ATOM      9  C   UNL     1       2.007  12.698  19.157  0.00  0.00    +0.000 C 
ATOM     10  O   UNL     1       2.089  13.355  18.125  0.00  0.00    +0.000 OA
BRANCH   9  11
ATOM     11  O   UNL     1       2.322  13.162  20.391  0.00  0.00    +0.000 OA
ATOM     12  C   UNL     1       3.345  14.163  20.348  0.00  0.00    +0.000 C 
ENDBRANCH   9  11
ENDBRANCH   7   9
BRANCH   4  13
ATOM     13  O   UNL     1       2.183   7.697  20.004  0.00  0.00    +0.000 OA
BRANCH  13  14
ATOM     14  C   UNL     1       2.255   6.342  19.574  0.00  0.00    +0.000 C 
ATOM     15  O   UNL     1       2.074   5.440  20.667  0.00  0.00    +0.000 OA
ATOM     16  C   UNL     1       2.014   4.078  20.218  0.00  0.00    +0.000 C 
ATOM     17  C   UNL     1       3.385   3.664  19.672  0.00  0.00    +0.000 C 
ATOM     18  C   UNL     1       3.777   4.609  18.521  0.00  0.00    +0.000 C 
ATOM     19  C   UNL     1       3.644   6.091  18.925  0.00  0.00    +0.000 C 
BRANCH  17  20
ATOM     20  O   UNL     1       3.368   2.302  19.238  0.00  0.00    +0.000 OA
ATOM     21  H   UNL     1       3.415   1.722  20.019  0.00  0.00    +0.000 HD
ENDBRANCH  17  20
BRANCH  18  22
ATOM     22  O   UNL     1       5.102   4.312  18.058  0.00  0.00    +0.000 OA
ATOM     23  H   UNL     1       5.390   5.028  17.465  0.00  0.00    +0.000 HD
ENDBRANCH  18  22
BRANCH  19  24
ATOM     24  O   UNL     1       3.858   6.934  17.783  0.00  0.00    +0.000 OA
ATOM     25  H   UNL     1       4.401   6.460  17.133  0.00  0.00    +0.000 HD
ENDBRANCH  19  24
BRANCH  16  26
ATOM     26  C   UNL     1       1.564   3.167  21.365  0.00  0.00    +0.000 C 
BRANCH  26  27
ATOM     27  O   UNL     1       2.717   2.653  22.034  0.00  0.00    +0.000 OA
ATOM     28  H   UNL     1       3.239   3.418  22.329  0.00  0.00    +0.000 HD
ENDBRANCH  26  27
ENDBRANCH  16  26
ENDBRANCH  13  14
ENDBRANCH   4  13
BRANCH   8  29
ATOM     29  C   UNL     1      -0.685  11.545  20.223  0.00  0.00    +0.000 C 
BRANCH  29  30
ATOM     30  C   UNL     1      -1.297  11.563  18.846  0.00  0.00    +0.000 C 
ATOM     31  O   UNL     1      -1.221  12.518  18.081  0.00  0.00    +0.000 OA
BRANCH  30  32
ATOM     32  O   UNL     1      -1.860  10.364  18.555  0.00  0.00    +0.000 OA
BRANCH  32  33
ATOM     33  C   UNL     1      -1.718   9.921  17.201  0.00  0.00    +0.000 C 
ATOM     34  C   UNL     1      -3.095   9.840  16.567  0.00  0.00    +0.000 C 
ENDBRANCH  32  33
ENDBRANCH  30  32
ENDBRANCH  29  30
ENDBRANCH   8  29
TORSDOF 13
ENDMDL
MODEL 2
REMARK VINA RESULT:      -6.5      2.176      7.757
REMARK  Name = 
REMARK  16 active torsions:
REMARK  status: ('A' for Active; 'I' for Inactive)
REMARK    1  A    between atoms: C_1  and  C_2
REMARK    2  A    between atoms: C_4  and  O_5
REMARK    3  A    between atoms: O_5  and  C_6
REMARK    4  A    between atoms: C_8  and  C_9
REMARK    5  A    between atoms: C_9  and  O_10
REMARK    6  A    between atoms: C_11  and  O_12
REMARK    7  A    between atoms: C_13  and  O_14
REMARK    8  A    between atoms: C_15  and  O_16
REMARK    9  A    between atoms: C_19  and  C_20
REMARK   10  A    between atoms: C_20  and  O_22
REMARK   11  A    between atoms: O_22  and  C_23
REMARK   12  A    between atoms: C_24  and  C_25
REMARK   13  A    between atoms: C_25  and  C_26
REMARK   14  A    between atoms: C_26  and  O_28
REMARK   15  A    between atoms: O_28  and  C_29
REMARK   16  A    between atoms: C_29  and  C_30
REMARK                            x       y       z     vdW  Elec       q    Type
REMARK                         _______ _______ _______ _____ _____    ______ ____
ROOT
ATOM      1  C   UNL     1       1.006   3.740  17.341  0.00  0.00    +0.000 C 
ATOM      2  C   UNL     1       1.606   4.864  18.134  0.00  0.00    +0.000 C 
ATOM      3  C   UNL     1       2.866   5.350  18.017  0.00  0.00    +0.000 C 
ATOM      4  C   UNL     1       3.239   6.673  18.684  0.00  0.00    +0.000 C 
ATOM      5  O   UNL     1       4.613   7.083  18.569  0.00  0.00    +0.000 OA
ATOM      6  C   UNL     1       5.382   6.587  17.559  0.00  0.00    +0.000 C 
ATOM      7  C   UNL     1       5.103   5.487  16.853  0.00  0.00    +0.000 C 
ATOM      8  C   UNL     1       3.898   4.651  17.153  0.00  0.00    +0.000 C 
ENDROOT
BRANCH   7   9
ATOM      9  C   UNL     1       5.957   4.988  15.744  0.00  0.00    +0.000 C 
ATOM     10  O   UNL     1       7.146   4.734  15.902  0.00  0.00    +0.000 OA
BRANCH   9  11
ATOM     11  O   UNL     1       5.299   4.887  14.562  0.00  0.00    +0.000 OA
ATOM     12  C   UNL     1       5.803   3.819  13.752  0.00  0.00    +0.000 C 
ENDBRANCH   9  11
ENDBRANCH   7   9
BRANCH   4  13
ATOM     13  O   UNL     1       2.349   7.651  18.121  0.00  0.00    +0.000 OA
BRANCH  13  14
ATOM     14  C   UNL     1       2.051   8.731  18.999  0.00  0.00    +0.000 C 
ATOM     15  O   UNL     1       1.195   8.313  20.064  0.00  0.00    +0.000 OA
ATOM     16  C   UNL     1       1.000   9.363  21.022  0.00  0.00    +0.000 C 
ATOM     17  C   UNL     1       0.192  10.494  20.376  0.00  0.00    +0.000 C 
ATOM     18  C   UNL     1       0.947  11.010  19.136  0.00  0.00    +0.000 C 
ATOM     19  C   UNL     1       1.352   9.860  18.192  0.00  0.00    +0.000 C 
BRANCH  17  20
ATOM     20  O   UNL     1      -0.043  11.549  21.312  0.00  0.00    +0.000 OA
ATOM     21  H   UNL     1       0.435  11.349  22.137  0.00  0.00    +0.000 HD
ENDBRANCH  17  20
BRANCH  18  22
ATOM     22  O   UNL     1       0.166  11.998  18.449  0.00  0.00    +0.000 OA
ATOM     23  H   UNL     1       0.448  12.022  17.518  0.00  0.00    +0.000 HD
ENDBRANCH  18  22
BRANCH  19  24
ATOM     24  O   UNL     1       2.190  10.360  17.140  0.00  0.00    +0.000 OA
ATOM     25  H   UNL     1       2.249  11.325  17.209  0.00  0.00    +0.000 HD
ENDBRANCH  19  24
BRANCH  16  26
ATOM     26  C   UNL     1       0.301   8.812  22.270  0.00  0.00    +0.000 C 
BRANCH  26  27
ATOM     27  O   UNL     1       0.606   9.650  23.386  0.00  0.00    +0.000 OA
ATOM     28  H   UNL     1      -0.121   9.549  24.024  0.00  0.00    +0.000 HD
ENDBRANCH  26  27
ENDBRANCH  16  26
ENDBRANCH  13  14
ENDBRANCH   4  13
BRANCH   8  29
ATOM     29  C   UNL     1       4.278   3.269  17.729  0.00  0.00    +0.000 C 
BRANCH  29  30
ATOM     30  C   UNL     1       4.668   3.290  19.184  0.00  0.00    +0.000 C 
ATOM     31  O   UNL     1       5.551   4.008  19.641  0.00  0.00    +0.000 OA
BRANCH  30  32
ATOM     32  O   UNL     1       3.861   2.476  19.909  0.00  0.00    +0.000 OA
BRANCH  32  33
ATOM     33  C   UNL     1       3.101   3.112  20.943  0.00  0.00    +0.000 C 
ATOM     34  C   UNL     1       1.678   2.585  20.896  0.00  0.00    +0.000 C 
ENDBRANCH  32  33
ENDBRANCH  30  32
ENDBRANCH  29  30
ENDBRANCH   8  29
TORSDOF 13
ENDMDL
MODEL 3
REMARK VINA RESULT:      -6.5      2.610      7.807
REMARK  Name = 
REMARK  16 active torsions:
REMARK  status: ('A' for Active; 'I' for Inactive)
REMARK    1  A    between atoms: C_1  and  C_2
REMARK    2  A    between atoms: C_4  and  O_5
REMARK    3  A    between atoms: O_5  and  C_6
REMARK    4  A    between atoms: C_8  and  C_9
REMARK    5  A    between atoms: C_9  and  O_10
REMARK    6  A    between atoms: C_11  and  O_12
REMARK    7  A    between atoms: C_13  and  O_14
REMARK    8  A    between atoms: C_15  and  O_16
REMARK    9  A    between atoms: C_19  and  C_20
REMARK   10  A    between atoms: C_20  and  O_22
REMARK   11  A    between atoms: O_22  and  C_23
REMARK   12  A    between atoms: C_24  and  C_25
REMARK   13  A    between atoms: C_25  and  C_26
REMARK   14  A    between atoms: C_26  and  O_28
REMARK   15  A    between atoms: O_28  and  C_29
REMARK   16  A    between atoms: C_29  and  C_30
REMARK                            x       y       z     vdW  Elec       q    Type
REMARK                         _______ _______ _______ _____ _____    ______ ____
ROOT
ATOM      1  C   UNL     1       3.094   3.527  20.180  0.00  0.00    +0.000 C 
ATOM      2  C   UNL     1       3.227   5.014  20.039  0.00  0.00    +0.000 C 
ATOM      3  C   UNL     1       3.779   5.679  18.995  0.00  0.00    +0.000 C 
ATOM      4  C   UNL     1       3.585   7.189  18.863  0.00  0.00    +0.000 C 
ATOM      5  O   UNL     1       4.261   7.827  17.765  0.00  0.00    +0.000 OA
ATOM      6  C   UNL     1       4.631   7.090  16.681  0.00  0.00    +0.000 C 
ATOM      7  C   UNL     1       4.748   5.758  16.665  0.00  0.00    +0.000 C 
ATOM      8  C   UNL     1       4.513   4.937  17.895  0.00  0.00    +0.000 C 
ENDROOT
BRANCH   7   9
ATOM      9  C   UNL     1       5.136   4.985  15.456  0.00  0.00    +0.000 C 
ATOM     10  O   UNL     1       4.686   3.869  15.225  0.00  0.00    +0.000 OA
BRANCH   9  11
ATOM     11  O   UNL     1       6.051   5.620  14.682  0.00  0.00    +0.000 OA
ATOM     12  C   UNL     1       6.984   4.710  14.090  0.00  0.00    +0.000 C 
ENDBRANCH   9  11
ENDBRANCH   7   9
BRANCH   4  13
ATOM     13  O   UNL     1       2.164   7.389  18.794  0.00  0.00    +0.000 OA
BRANCH  13  14
ATOM     14  C   UNL     1       1.721   8.589  19.418  0.00  0.00    +0.000 C 
ATOM     15  O   UNL     1       0.802   8.315  20.478  0.00  0.00    +0.000 OA
ATOM     16  C   UNL     1       0.456   9.510  21.193  0.00  0.00    +0.000 C 
ATOM     17  C   UNL     1      -0.361  10.429  20.279  0.00  0.00    +0.000 C 
ATOM     18  C   UNL     1       0.467  10.758  19.022  0.00  0.00    +0.000 C 
ATOM     19  C   UNL     1       1.026   9.485  18.355  0.00  0.00    +0.000 C 
BRANCH  17  20
ATOM     20  O   UNL     1      -0.745  11.621  20.970  0.00  0.00    +0.000 OA
ATOM     21  H   UNL     1      -1.028  12.286  20.317  0.00  0.00    +0.000 HD
ENDBRANCH  17  20
BRANCH  18  22
ATOM     22  O   UNL     1      -0.310  11.532  18.098  0.00  0.00    +0.000 OA
ATOM     23  H   UNL     1       0.276  11.846  17.388  0.00  0.00    +0.000 HD
ENDBRANCH  18  22
BRANCH  19  24
ATOM     24  O   UNL     1       1.921   9.840  17.291  0.00  0.00    +0.000 OA
ATOM     25  H   UNL     1       1.472  10.449  16.685  0.00  0.00    +0.000 HD
ENDBRANCH  19  24
BRANCH  16  26
ATOM     26  C   UNL     1      -0.314   9.153  22.470  0.00  0.00    +0.000 C 
BRANCH  26  27
ATOM     27  O   UNL     1      -0.059  10.146  23.464  0.00  0.00    +0.000 OA
ATOM     28  H   UNL     1       0.832   9.976  23.813  0.00  0.00    +0.000 HD
ENDBRANCH  26  27
ENDBRANCH  16  26
ENDBRANCH  13  14
ENDBRANCH   4  13
BRANCH   8  29
ATOM     29  C   UNL     1       5.813   4.288  18.417  0.00  0.00    +0.000 C 
BRANCH  29  30
ATOM     30  C   UNL     1       6.790   5.259  19.026  0.00  0.00    +0.000 C 
ATOM     31  O   UNL     1       7.061   5.291  20.222  0.00  0.00    +0.000 OA
BRANCH  30  32
ATOM     32  O   UNL     1       7.374   6.018  18.066  0.00  0.00    +0.000 OA
BRANCH  32  33
ATOM     33  C   UNL     1       8.128   7.142  18.533  0.00  0.00    +0.000 C 
ATOM     34  C   UNL     1       7.853   8.327  17.625  0.00  0.00    +0.000 C 
ENDBRANCH  32  33
ENDBRANCH  30  32
ENDBRANCH  29  30
ENDBRANCH   8  29
TORSDOF 13
ENDMDL
MODEL 4
REMARK VINA RESULT:      -6.3      2.801      8.147
REMARK  Name = 
REMARK  16 active torsions:
REMARK  status: ('A' for Active; 'I' for Inactive)
REMARK    1  A    between atoms: C_1  and  C_2
REMARK    2  A    between atoms: C_4  and  O_5
REMARK    3  A    between atoms: O_5  and  C_6
REMARK    4  A    between atoms: C_8  and  C_9
REMARK    5  A    between atoms: C_9  and  O_10
REMARK    6  A    between atoms: C_11  and  O_12
REMARK    7  A    between atoms: C_13  and  O_14
REMARK    8  A    between atoms: C_15  and  O_16
REMARK    9  A    between atoms: C_19  and  C_20
REMARK   10  A    between atoms: C_20  and  O_22
REMARK   11  A    between atoms: O_22  and  C_23
REMARK   12  A    between atoms: C_24  and  C_25
REMARK   13  A    between atoms: C_25  and  C_26
REMARK   14  A    between atoms: C_26  and  O_28
REMARK   15  A    between atoms: O_28  and  C_29
REMARK   16  A    between atoms: C_29  and  C_30
REMARK                            x       y       z     vdW  Elec       q    Type
REMARK                         _______ _______ _______ _____ _____    ______ ____
ROOT
ATOM      1  C   UNL     1       3.945   2.708  19.116  0.00  0.00    +0.000 C 
ATOM      2  C   UNL     1       3.765   4.197  19.114  0.00  0.00    +0.000 C 
ATOM      3  C   UNL     1       4.269   5.069  18.207  0.00  0.00    +0.000 C 
ATOM      4  C   UNL     1       3.766   6.511  18.173  0.00  0.00    +0.000 C 
ATOM      5  O   UNL     1       4.402   7.388  17.226  0.00  0.00    +0.000 OA
ATOM      6  C   UNL     1       5.040   6.863  16.143  0.00  0.00    +0.000 C 
ATOM      7  C   UNL     1       5.445   5.594  16.035  0.00  0.00    +0.000 C 
ATOM      8  C   UNL     1       5.262   4.616  17.154  0.00  0.00    +0.000 C 
ENDROOT
BRANCH   7   9
ATOM      9  C   UNL     1       6.122   5.051  14.828  0.00  0.00    +0.000 C 
ATOM     10  O   UNL     1       7.067   5.625  14.298  0.00  0.00    +0.000 OA
BRANCH   9  11
ATOM     11  O   UNL     1       5.564   3.904  14.368  0.00  0.00    +0.000 OA
ATOM     12  C   UNL     1       5.839   3.686  12.980  0.00  0.00    +0.000 C 
ENDBRANCH   9  11
ENDBRANCH   7   9
BRANCH   4  13
ATOM     13  O   UNL     1       2.351   6.419  17.937  0.00  0.00    +0.000 OA
BRANCH  13  14
ATOM     14  C   UNL     1       1.589   7.406  18.624  0.00  0.00    +0.000 C 
ATOM     15  O   UNL     1       1.787   8.702  18.058  0.00  0.00    +0.000 OA
ATOM     16  C   UNL     1       0.922   9.675  18.661  0.00  0.00    +0.000 C 
ATOM     17  C   UNL     1       1.336   9.887  20.121  0.00  0.00    +0.000 C 
ATOM     18  C   UNL     1       1.260   8.542  20.867  0.00  0.00    +0.000 C 
ATOM     19  C   UNL     1       2.016   7.426  20.118  0.00  0.00    +0.000 C 
BRANCH  17  20
ATOM     20  O   UNL     1       0.508  10.871  20.746  0.00  0.00    +0.000 OA
ATOM     21  H   UNL     1       1.016  11.697  20.838  0.00  0.00    +0.000 HD
ENDBRANCH  17  20
BRANCH  18  22
ATOM     22  O   UNL     1       1.742   8.686  22.210  0.00  0.00    +0.000 OA
ATOM     23  H   UNL     1       2.437   9.367  22.219  0.00  0.00    +0.000 HD
ENDBRANCH  18  22
BRANCH  19  24
ATOM     24  O   UNL     1       1.786   6.161  20.755  0.00  0.00    +0.000 OA
ATOM     25  H   UNL     1       2.635   5.783  21.032  0.00  0.00    +0.000 HD
ENDBRANCH  19  24
BRANCH  16  26
ATOM     26  C   UNL     1       0.970  10.985  17.865  0.00  0.00    +0.000 C 
BRANCH  26  27
ATOM     27  O   UNL     1      -0.244  11.708  18.079  0.00  0.00    +0.000 OA
ATOM     28  H   UNL     1      -0.976  11.094  17.897  0.00  0.00    +0.000 HD
ENDBRANCH  26  27
ENDBRANCH  16  26
ENDBRANCH  13  14
ENDBRANCH   4  13
BRANCH   8  29
ATOM     29  C   UNL     1       6.608   4.198  17.785  0.00  0.00    +0.000 C 
BRANCH  29  30
ATOM     30  C   UNL     1       7.229   5.245  18.672  0.00  0.00    +0.000 C 
ATOM     31  O   UNL     1       7.140   5.240  19.895  0.00  0.00    +0.000 OA
BRANCH  30  32
ATOM     32  O   UNL     1       7.954   6.127  17.939  0.00  0.00    +0.000 OA
BRANCH  32  33
ATOM     33  C   UNL     1       8.250   7.373  18.579  0.00  0.00    +0.000 C 
ATOM     34  C   UNL     1       7.898   8.505  17.629  0.00  0.00    +0.000 C 
ENDBRANCH  32  33
ENDBRANCH  30  32
ENDBRANCH  29  30
ENDBRANCH   8  29
TORSDOF 13
ENDMDL
MODEL 5
REMARK VINA RESULT:      -6.2      2.422      8.440
REMARK  Name = 
REMARK  16 active torsions:
REMARK  status: ('A' for Active; 'I' for Inactive)
REMARK    1  A    between atoms: C_1  and  C_2
REMARK    2  A    between atoms: C_4  and  O_5
REMARK    3  A    between atoms: O_5  and  C_6
REMARK    4  A    between atoms: C_8  and  C_9
REMARK    5  A    between atoms: C_9  and  O_10
REMARK    6  A    between atoms: C_11  and  O_12
REMARK    7  A    between atoms: C_13  and  O_14
REMARK    8  A    between atoms: C_15  and  O_16
REMARK    9  A    between atoms: C_19  and  C_20
REMARK   10  A    between atoms: C_20  and  O_22
REMARK   11  A    between atoms: O_22  and  C_23
REMARK   12  A    between atoms: C_24  and  C_25
REMARK   13  A    between atoms: C_25  and  C_26
REMARK   14  A    between atoms: C_26  and  O_28
REMARK   15  A    between atoms: O_28  and  C_29
REMARK   16  A    between atoms: C_29  and  C_30
REMARK                            x       y       z     vdW  Elec       q    Type
REMARK                         _______ _______ _______ _____ _____    ______ ____
ROOT
ATOM      1  C   UNL     1       6.914   7.440  17.325  0.00  0.00    +0.000 C 
ATOM      2  C   UNL     1       5.426   7.620  17.250  0.00  0.00    +0.000 C 
ATOM      3  C   UNL     1       4.486   6.714  17.612  0.00  0.00    +0.000 C 
ATOM      4  C   UNL     1       3.026   7.142  17.748  0.00  0.00    +0.000 C 
ATOM      5  O   UNL     1       2.081   6.104  18.068  0.00  0.00    +0.000 OA
ATOM      6  C   UNL     1       2.515   4.959  18.666  0.00  0.00    +0.000 C 
ATOM      7  C   UNL     1       3.783   4.536  18.680  0.00  0.00    +0.000 C 
ATOM      8  C   UNL     1       4.868   5.292  17.978  0.00  0.00    +0.000 C 
ENDROOT
BRANCH   7   9
ATOM      9  C   UNL     1       4.222   3.289  19.360  0.00  0.00    +0.000 C 
ATOM     10  O   UNL     1       5.324   3.190  19.888  0.00  0.00    +0.000 OA
BRANCH   9  11
ATOM     11  O   UNL     1       3.308   2.290  19.295  0.00  0.00    +0.000 OA
ATOM     12  C   UNL     1       3.522   1.432  18.169  0.00  0.00    +0.000 C 
ENDBRANCH   9  11
ENDBRANCH   7   9
BRANCH   4  13
ATOM     13  O   UNL     1       3.021   8.182  18.740  0.00  0.00    +0.000 OA
BRANCH  13  14
ATOM     14  C   UNL     1       1.722   8.672  19.054  0.00  0.00    +0.000 C 
ATOM     15  O   UNL     1       1.592  10.053  18.713  0.00  0.00    +0.000 OA
ATOM     16  C   UNL     1       0.247  10.515  18.905  0.00  0.00    +0.000 C 
ATOM     17  C   UNL     1      -0.080  10.515  20.402  0.00  0.00    +0.000 C 
ATOM     18  C   UNL     1       0.099   9.089  20.958  0.00  0.00    +0.000 C 
ATOM     19  C   UNL     1       1.469   8.494  20.577  0.00  0.00    +0.000 C 
BRANCH  17  20
ATOM     20  O   UNL     1      -1.407  10.995  20.632  0.00  0.00    +0.000 OA
ATOM     21  H   UNL     1      -1.356  11.872  21.053  0.00  0.00    +0.000 HD
ENDBRANCH  17  20
BRANCH  18  22
ATOM     22  O   UNL     1      -0.098   9.076  22.378  0.00  0.00    +0.000 OA
ATOM     23  H   UNL     1      -0.053   8.155  22.689  0.00  0.00    +0.000 HD
ENDBRANCH  18  22
BRANCH  19  24
ATOM     24  O   UNL     1       1.532   7.115  20.970  0.00  0.00    +0.000 OA
ATOM     25  H   UNL     1       1.141   6.565  20.273  0.00  0.00    +0.000 HD
ENDBRANCH  19  24
BRANCH  16  26
ATOM     26  C   UNL     1       0.079  11.910  18.291  0.00  0.00    +0.000 C 
BRANCH  26  27
ATOM     27  O   UNL     1      -1.216  12.006  17.695  0.00  0.00    +0.000 OA
ATOM     28  H   UNL     1      -1.081  12.122  16.739  0.00  0.00    +0.000 HD
ENDBRANCH  26  27
ENDBRANCH  16  26
ENDBRANCH  13  14
ENDBRANCH   4  13
BRANCH   8  29
ATOM     29  C   UNL     1       5.418   4.520  16.759  0.00  0.00    +0.000 C 
BRANCH  29  30
ATOM     30  C   UNL     1       6.919   4.387  16.735  0.00  0.00    +0.000 C 
ATOM     31  O   UNL     1       7.603   4.221  17.740  0.00  0.00    +0.000 OA
BRANCH  30  32
ATOM     32  O   UNL     1       7.381   4.396  15.460  0.00  0.00    +0.000 OA
BRANCH  32  33
ATOM     33  C   UNL     1       6.470   4.889  14.471  0.00  0.00    +0.000 C 
ATOM     34  C   UNL     1       6.378   3.875  13.345  0.00  0.00    +0.000 C 
ENDBRANCH  32  33
ENDBRANCH  30  32
ENDBRANCH  29  30
ENDBRANCH   8  29
TORSDOF 13
ENDMDL
MODEL 6
REMARK VINA RESULT:      -6.2      1.454      2.150
REMARK  Name = 
REMARK  16 active torsions:
REMARK  status: ('A' for Active; 'I' for Inactive)
REMARK    1  A    between atoms: C_1  and  C_2
REMARK    2  A    between atoms: C_4  and  O_5
REMARK    3  A    between atoms: O_5  and  C_6
REMARK    4  A    between atoms: C_8  and  C_9
REMARK    5  A    between atoms: C_9  and  O_10
REMARK    6  A    between atoms: C_11  and  O_12
REMARK    7  A    between atoms: C_13  and  O_14
REMARK    8  A    between atoms: C_15  and  O_16
REMARK    9  A    between atoms: C_19  and  C_20
REMARK   10  A    between atoms: C_20  and  O_22
REMARK   11  A    between atoms: O_22  and  C_23
REMARK   12  A    between atoms: C_24  and  C_25
REMARK   13  A    between atoms: C_25  and  C_26
REMARK   14  A    between atoms: C_26  and  O_28
REMARK   15  A    between atoms: O_28  and  C_29
REMARK   16  A    between atoms: C_29  and  C_30
REMARK                            x       y       z     vdW  Elec       q    Type
REMARK                         _______ _______ _______ _____ _____    ______ ____
ROOT
ATOM      1  C   UNL     1       0.274   9.267  22.868  0.00  0.00    +0.000 C 
ATOM      2  C   UNL     1       0.506   8.566  21.562  0.00  0.00    +0.000 C 
ATOM      3  C   UNL     1       0.834   9.147  20.382  0.00  0.00    +0.000 C 
ATOM      4  C   UNL     1       1.316   8.287  19.215  0.00  0.00    +0.000 C 
ATOM      5  O   UNL     1       1.578   8.973  17.978  0.00  0.00    +0.000 OA
ATOM      6  C   UNL     1       1.836  10.311  17.992  0.00  0.00    +0.000 C 
ATOM      7  C   UNL     1       1.535  11.139  18.997  0.00  0.00    +0.000 C 
ATOM      8  C   UNL     1       0.823  10.655  20.222  0.00  0.00    +0.000 C 
ENDROOT
BRANCH   7   9
ATOM      9  C   UNL     1       1.851  12.591  18.984  0.00  0.00    +0.000 C 
ATOM     10  O   UNL     1       1.523  13.320  18.054  0.00  0.00    +0.000 OA
BRANCH   9  11
ATOM     11  O   UNL     1       2.560  12.997  20.066  0.00  0.00    +0.000 OA
ATOM     12  C   UNL     1       3.266  14.219  19.824  0.00  0.00    +0.000 C 
ENDBRANCH   9  11
ENDBRANCH   7   9
BRANCH   4  13
ATOM     13  O   UNL     1       2.487   7.606  19.697  0.00  0.00    +0.000 OA
BRANCH  13  14
ATOM     14  C   UNL     1       2.523   6.221  19.372  0.00  0.00    +0.000 C 
ATOM     15  O   UNL     1       2.198   5.413  20.504  0.00  0.00    +0.000 OA
ATOM     16  C   UNL     1       2.104   4.026  20.148  0.00  0.00    +0.000 C 
ATOM     17  C   UNL     1       3.493   3.507  19.762  0.00  0.00    +0.000 C 
ATOM     18  C   UNL     1       4.037   4.343  18.588  0.00  0.00    +0.000 C 
ATOM     19  C   UNL     1       3.949   5.856  18.873  0.00  0.00    +0.000 C 
BRANCH  17  20
ATOM     20  O   UNL     1       3.441   2.119  19.425  0.00  0.00    +0.000 OA
ATOM     21  H   UNL     1       4.346   1.801  19.255  0.00  0.00    +0.000 HD
ENDBRANCH  17  20
BRANCH  18  22
ATOM     22  O   UNL     1       5.379   3.950  18.272  0.00  0.00    +0.000 OA
ATOM     23  H   UNL     1       5.911   3.982  19.086  0.00  0.00    +0.000 HD
ENDBRANCH  18  22
BRANCH  19  24
ATOM     24  O   UNL     1       4.309   6.599  17.700  0.00  0.00    +0.000 OA
ATOM     25  H   UNL     1       3.984   6.134  16.913  0.00  0.00    +0.000 HD
ENDBRANCH  19  24
BRANCH  16  26
ATOM     26  C   UNL     1       1.504   3.226  21.310  0.00  0.00    +0.000 C 
BRANCH  26  27
ATOM     27  O   UNL     1       2.564   2.694  22.107  0.00  0.00    +0.000 OA
ATOM     28  H   UNL     1       2.977   1.981  21.592  0.00  0.00    +0.000 HD
ENDBRANCH  26  27
ENDBRANCH  16  26
ENDBRANCH  13  14
ENDBRANCH   4  13
BRANCH   8  29
ATOM     29  C   UNL     1      -0.608  11.226  20.325  0.00  0.00    +0.000 C 
BRANCH  29  30
ATOM     30  C   UNL     1      -0.825  12.150  21.495  0.00  0.00    +0.000 C 
ATOM     31  O   UNL     1       0.074  12.785  22.036  0.00  0.00    +0.000 OA
BRANCH  30  32
ATOM     32  O   UNL     1      -2.144  12.235  21.801  0.00  0.00    +0.000 OA
BRANCH  32  33
ATOM     33  C   UNL     1      -2.482  11.998  23.172  0.00  0.00    +0.000 C 
ATOM     34  C   UNL     1      -3.847  12.602  23.449  0.00  0.00    +0.000 C 
ENDBRANCH  32  33
ENDBRANCH  30  32
ENDBRANCH  29  30
ENDBRANCH   8  29
TORSDOF 13
ENDMDL
MODEL 7
REMARK VINA RESULT:      -6.2      0.914      1.101
REMARK  Name = 
REMARK  16 active torsions:
REMARK  status: ('A' for Active; 'I' for Inactive)
REMARK    1  A    between atoms: C_1  and  C_2
REMARK    2  A    between atoms: C_4  and  O_5
REMARK    3  A    between atoms: O_5  and  C_6
REMARK    4  A    between atoms: C_8  and  C_9
REMARK    5  A    between atoms: C_9  and  O_10
REMARK    6  A    between atoms: C_11  and  O_12
REMARK    7  A    between atoms: C_13  and  O_14
REMARK    8  A    between atoms: C_15  and  O_16
REMARK    9  A    between atoms: C_19  and  C_20
REMARK   10  A    between atoms: C_20  and  O_22
REMARK   11  A    between atoms: O_22  and  C_23
REMARK   12  A    between atoms: C_24  and  C_25
REMARK   13  A    between atoms: C_25  and  C_26
REMARK   14  A    between atoms: C_26  and  O_28
REMARK   15  A    between atoms: O_28  and  C_29
REMARK   16  A    between atoms: C_29  and  C_30
REMARK                            x       y       z     vdW  Elec       q    Type
REMARK                         _______ _______ _______ _____ _____    ______ ____
ROOT
ATOM      1  C   UNL     1      -0.415   9.490  22.525  0.00  0.00    +0.000 C 
ATOM      2  C   UNL     1       0.000   8.936  21.194  0.00  0.00    +0.000 C 
ATOM      3  C   UNL     1       0.593   9.621  20.186  0.00  0.00    +0.000 C 
ATOM      4  C   UNL     1       1.213   8.865  19.012  0.00  0.00    +0.000 C 
ATOM      5  O   UNL     1       1.760   9.668  17.951  0.00  0.00    +0.000 OA
ATOM      6  C   UNL     1       2.122  10.958  18.200  0.00  0.00    +0.000 C 
ATOM      7  C   UNL     1       1.706  11.682  19.243  0.00  0.00    +0.000 C 
ATOM      8  C   UNL     1       0.737  11.129  20.242  0.00  0.00    +0.000 C 
ENDROOT
BRANCH   7   9
ATOM      9  C   UNL     1       2.139  13.082  19.493  0.00  0.00    +0.000 C 
ATOM     10  O   UNL     1       2.651  13.426  20.553  0.00  0.00    +0.000 OA
BRANCH   9  11
ATOM     11  O   UNL     1       1.874  13.920  18.461  0.00  0.00    +0.000 OA
ATOM     12  C   UNL     1       1.154  15.085  18.880  0.00  0.00    +0.000 C 
ENDBRANCH   9  11
ENDBRANCH   7   9
BRANCH   4  13
ATOM     13  O   UNL     1       2.211   8.008  19.590  0.00  0.00    +0.000 OA
BRANCH  13  14
ATOM     14  C   UNL     1       2.213   6.687  19.061  0.00  0.00    +0.000 C 
ATOM     15  O   UNL     1       1.964   5.718  20.081  0.00  0.00    +0.000 OA
ATOM     16  C   UNL     1       1.833   4.400  19.530  0.00  0.00    +0.000 C 
ATOM     17  C   UNL     1       3.188   3.948  18.971  0.00  0.00    +0.000 C 
ATOM     18  C   UNL     1       3.651   4.951  17.899  0.00  0.00    +0.000 C 
ATOM     19  C   UNL     1       3.596   6.405  18.411  0.00  0.00    +0.000 C 
BRANCH  17  20
ATOM     20  O   UNL     1       3.100   2.625  18.436  0.00  0.00    +0.000 OA
ATOM     21  H   UNL     1       2.205   2.491  18.075  0.00  0.00    +0.000 HD
ENDBRANCH  17  20
BRANCH  18  22
ATOM     22  O   UNL     1       4.964   4.614  17.430  0.00  0.00    +0.000 OA
ATOM     23  H   UNL     1       4.984   3.663  17.225  0.00  0.00    +0.000 HD
ENDBRANCH  18  22
BRANCH  19  24
ATOM     24  O   UNL     1       3.876   7.316  17.338  0.00  0.00    +0.000 OA
ATOM     25  H   UNL     1       4.460   8.020  17.661  0.00  0.00    +0.000 HD
ENDBRANCH  19  24
BRANCH  16  26
ATOM     26  C   UNL     1       1.314   3.433  20.601  0.00  0.00    +0.000 C 
BRANCH  26  27
ATOM     27  O   UNL     1       0.333   2.573  20.018  0.00  0.00    +0.000 OA
ATOM     28  H   UNL     1       0.744   2.160  19.239  0.00  0.00    +0.000 HD
ENDBRANCH  26  27
ENDBRANCH  16  26
ENDBRANCH  13  14
ENDBRANCH   4  13
BRANCH   8  29
ATOM     29  C   UNL     1      -0.635  11.834  20.171  0.00  0.00    +0.000 C 
BRANCH  29  30
ATOM     30  C   UNL     1      -1.295  11.772  18.819  0.00  0.00    +0.000 C 
ATOM     31  O   UNL     1      -1.167  12.637  17.959  0.00  0.00    +0.000 OA
BRANCH  30  32
ATOM     32  O   UNL     1      -1.970  10.605  18.668  0.00  0.00    +0.000 OA
BRANCH  32  33
ATOM     33  C   UNL     1      -1.895  10.006  17.369  0.00  0.00    +0.000 C 
ATOM     34  C   UNL     1      -3.281  10.006  16.751  0.00  0.00    +0.000 C 
ENDBRANCH  32  33
ENDBRANCH  30  32
ENDBRANCH  29  30
ENDBRANCH   8  29
TORSDOF 13
ENDMDL
MODEL 8
REMARK VINA RESULT:      -6.1      2.550      8.421
REMARK  Name = 
REMARK  16 active torsions:
REMARK  status: ('A' for Active; 'I' for Inactive)
REMARK    1  A    between atoms: C_1  and  C_2
REMARK    2  A    between atoms: C_4  and  O_5
REMARK    3  A    between atoms: O_5  and  C_6
REMARK    4  A    between atoms: C_8  and  C_9
REMARK    5  A    between atoms: C_9  and  O_10
REMARK    6  A    between atoms: C_11  and  O_12
REMARK    7  A    between atoms: C_13  and  O_14
REMARK    8  A    between atoms: C_15  and  O_16
REMARK    9  A    between atoms: C_19  and  C_20
REMARK   10  A    between atoms: C_20  and  O_22
REMARK   11  A    between atoms: O_22  and  C_23
REMARK   12  A    between atoms: C_24  and  C_25
REMARK   13  A    between atoms: C_25  and  C_26
REMARK   14  A    between atoms: C_26  and  O_28
REMARK   15  A    between atoms: O_28  and  C_29
REMARK   16  A    between atoms: C_29  and  C_30
REMARK                            x       y       z     vdW  Elec       q    Type
REMARK                         _______ _______ _______ _____ _____    ______ ____
ROOT
ATOM      1  C   UNL     1       6.602   7.298  17.158  0.00  0.00    +0.000 C 
ATOM      2  C   UNL     1       5.118   7.504  17.241  0.00  0.00    +0.000 C 
ATOM      3  C   UNL     1       4.183   6.549  17.464  0.00  0.00    +0.000 C 
ATOM      4  C   UNL     1       2.749   6.949  17.805  0.00  0.00    +0.000 C 
ATOM      5  O   UNL     1       1.803   5.876  17.958  0.00  0.00    +0.000 OA
ATOM      6  C   UNL     1       2.249   4.621  18.249  0.00  0.00    +0.000 C 
ATOM      7  C   UNL     1       3.502   4.193  18.069  0.00  0.00    +0.000 C 
ATOM      8  C   UNL     1       4.552   5.078  17.472  0.00  0.00    +0.000 C 
ENDROOT
BRANCH   7   9
ATOM      9  C   UNL     1       3.956   2.822  18.417  0.00  0.00    +0.000 C 
ATOM     10  O   UNL     1       3.512   1.827  17.854  0.00  0.00    +0.000 OA
BRANCH   9  11
ATOM     11  O   UNL     1       4.861   2.794  19.427  0.00  0.00    +0.000 OA
ATOM     12  C   UNL     1       4.335   2.178  20.608  0.00  0.00    +0.000 C 
ENDBRANCH   9  11
ENDBRANCH   7   9
BRANCH   4  13
ATOM     13  O   UNL     1       2.845   7.739  19.002  0.00  0.00    +0.000 OA
BRANCH  13  14
ATOM     14  C   UNL     1       1.626   8.372  19.374  0.00  0.00    +0.000 C 
ATOM     15  O   UNL     1       1.628   9.755  19.016  0.00  0.00    +0.000 OA
ATOM     16  C   UNL     1       0.354  10.364  19.268  0.00  0.00    +0.000 C 
ATOM     17  C   UNL     1       0.109  10.417  20.781  0.00  0.00    +0.000 C 
ATOM     18  C   UNL     1       0.161   8.987  21.351  0.00  0.00    +0.000 C 
ATOM     19  C   UNL     1       1.437   8.240  20.911  0.00  0.00    +0.000 C 
BRANCH  17  20
ATOM     20  O   UNL     1      -1.144  11.041  21.070  0.00  0.00    +0.000 OA
ATOM     21  H   UNL     1      -1.016  11.687  21.788  0.00  0.00    +0.000 HD
ENDBRANCH  17  20
BRANCH  18  22
ATOM     22  O   UNL     1       0.039   9.012  22.780  0.00  0.00    +0.000 OA
ATOM     23  H   UNL     1       0.925   9.133  23.164  0.00  0.00    +0.000 HD
ENDBRANCH  18  22
BRANCH  19  24
ATOM     24  O   UNL     1       1.371   6.868  21.324  0.00  0.00    +0.000 OA
ATOM     25  H   UNL     1       0.550   6.722  21.820  0.00  0.00    +0.000 HD
ENDBRANCH  19  24
BRANCH  16  26
ATOM     26  C   UNL     1       0.305  11.761  18.639  0.00  0.00    +0.000 C 
BRANCH  26  27
ATOM     27  O   UNL     1      -0.743  11.802  17.670  0.00  0.00    +0.000 OA
ATOM     28  H   UNL     1      -0.755  10.935  17.228  0.00  0.00    +0.000 HD
ENDBRANCH  26  27
ENDBRANCH  16  26
ENDBRANCH  13  14
ENDBRANCH   4  13
BRANCH   8  29
ATOM     29  C   UNL     1       4.991   4.594  16.072  0.00  0.00    +0.000 C 
BRANCH  29  30
ATOM     30  C   UNL     1       6.460   4.284  15.955  0.00  0.00    +0.000 C 
ATOM     31  O   UNL     1       7.200   4.126  16.920  0.00  0.00    +0.000 OA
BRANCH  30  32
ATOM     32  O   UNL     1       6.815   4.126  14.655  0.00  0.00    +0.000 OA
BRANCH  32  33
ATOM     33  C   UNL     1       5.735   4.066  13.717  0.00  0.00    +0.000 C 
ATOM     34  C   UNL     1       6.229   3.397  12.447  0.00  0.00    +0.000 C 
ENDBRANCH  32  33
ENDBRANCH  30  32
ENDBRANCH  29  30
ENDBRANCH   8  29
TORSDOF 13
ENDMDL
MODEL 9
REMARK VINA RESULT:      -6.1      0.943      1.405
REMARK  Name = 
REMARK  16 active torsions:
REMARK  status: ('A' for Active; 'I' for Inactive)
REMARK    1  A    between atoms: C_1  and  C_2
REMARK    2  A    between atoms: C_4  and  O_5
REMARK    3  A    between atoms: O_5  and  C_6
REMARK    4  A    between atoms: C_8  and  C_9
REMARK    5  A    between atoms: C_9  and  O_10
REMARK    6  A    between atoms: C_11  and  O_12
REMARK    7  A    between atoms: C_13  and  O_14
REMARK    8  A    between atoms: C_15  and  O_16
REMARK    9  A    between atoms: C_19  and  C_20
REMARK   10  A    between atoms: C_20  and  O_22
REMARK   11  A    between atoms: O_22  and  C_23
REMARK   12  A    between atoms: C_24  and  C_25
REMARK   13  A    between atoms: C_25  and  C_26
REMARK   14  A    between atoms: C_26  and  O_28
REMARK   15  A    between atoms: O_28  and  C_29
REMARK   16  A    between atoms: C_29  and  C_30
REMARK                            x       y       z     vdW  Elec       q    Type
REMARK                         _______ _______ _______ _____ _____    ______ ____
ROOT
ATOM      1  C   UNL     1       0.444   9.113  22.884  0.00  0.00    +0.000 C 
ATOM      2  C   UNL     1       0.668   8.416  21.575  0.00  0.00    +0.000 C 
ATOM      3  C   UNL     1       0.951   9.003  20.387  0.00  0.00    +0.000 C 
ATOM      4  C   UNL     1       1.433   8.155  19.212  0.00  0.00    +0.000 C 
ATOM      5  O   UNL     1       1.645   8.846  17.968  0.00  0.00    +0.000 OA
ATOM      6  C   UNL     1       1.861  10.191  17.972  0.00  0.00    +0.000 C 
ATOM      7  C   UNL     1       1.557  11.012  18.982  0.00  0.00    +0.000 C 
ATOM      8  C   UNL     1       0.888  10.510  20.224  0.00  0.00    +0.000 C 
ENDROOT
BRANCH   7   9
ATOM      9  C   UNL     1       1.826  12.474  18.959  0.00  0.00    +0.000 C 
ATOM     10  O   UNL     1       1.679  13.147  17.944  0.00  0.00    +0.000 OA
BRANCH   9  11
ATOM     11  O   UNL     1       2.281  12.956  20.141  0.00  0.00    +0.000 OA
ATOM     12  C   UNL     1       1.623  14.171  20.520  0.00  0.00    +0.000 C 
ENDBRANCH   9  11
ENDBRANCH   7   9
BRANCH   4  13
ATOM     13  O   UNL     1       2.636   7.514  19.668  0.00  0.00    +0.000 OA
BRANCH  13  14
ATOM     14  C   UNL     1       2.704   6.127  19.354  0.00  0.00    +0.000 C 
ATOM     15  O   UNL     1       2.272   5.324  20.454  0.00  0.00    +0.000 OA
ATOM     16  C   UNL     1       2.213   3.936  20.097  0.00  0.00    +0.000 C 
ATOM     17  C   UNL     1       3.634   3.416  19.849  0.00  0.00    +0.000 C 
ATOM     18  C   UNL     1       4.287   4.247  18.728  0.00  0.00    +0.000 C 
ATOM     19  C   UNL     1       4.171   5.761  18.996  0.00  0.00    +0.000 C 
BRANCH  17  20
ATOM     20  O   UNL     1       3.615   2.026  19.515  0.00  0.00    +0.000 OA
ATOM     21  H   UNL     1       4.452   1.621  19.804  0.00  0.00    +0.000 HD
ENDBRANCH  17  20
BRANCH  18  22
ATOM     22  O   UNL     1       5.653   3.854  18.544  0.00  0.00    +0.000 OA
ATOM     23  H   UNL     1       6.029   4.374  17.812  0.00  0.00    +0.000 HD
ENDBRANCH  18  22
BRANCH  19  24
ATOM     24  O   UNL     1       4.641   6.500  17.859  0.00  0.00    +0.000 OA
ATOM     25  H   UNL     1       5.525   6.182  17.614  0.00  0.00    +0.000 HD
ENDBRANCH  19  24
BRANCH  16  26
ATOM     26  C   UNL     1       1.506   3.140  21.201  0.00  0.00    +0.000 C 
BRANCH  26  27
ATOM     27  O   UNL     1       2.467   2.742  22.180  0.00  0.00    +0.000 OA
ATOM     28  H   UNL     1       3.121   3.459  22.244  0.00  0.00    +0.000 HD
ENDBRANCH  26  27
ENDBRANCH  16  26
ENDBRANCH  13  14
ENDBRANCH   4  13
BRANCH   8  29
ATOM     29  C   UNL     1      -0.558  11.036  20.358  0.00  0.00    +0.000 C 
BRANCH  29  30
ATOM     30  C   UNL     1      -1.346  11.017  19.074  0.00  0.00    +0.000 C 
ATOM     31  O   UNL     1      -1.587   9.996  18.439  0.00  0.00    +0.000 OA
BRANCH  30  32
ATOM     32  O   UNL     1      -1.809  12.257  18.778  0.00  0.00    +0.000 OA
BRANCH  32  33
ATOM     33  C   UNL     1      -2.248  13.042  19.893  0.00  0.00    +0.000 C 
ATOM     34  C   UNL     1      -3.720  12.761  20.137  0.00  0.00    +0.000 C 
ENDBRANCH  32  33
ENDBRANCH  30  32
ENDBRANCH  29  30
ENDBRANCH   8  29
TORSDOF 13
ENDMDL
