MODEL 1
REMARK VINA RESULT:      -7.0      0.000      0.000
REMARK  Name = 
REMARK  7 active torsions:
REMARK  status: ('A' for Active; 'I' for Inactive)
REMARK    1  A    between atoms: C_1  and  C_2
REMARK    2  A    between atoms: C_3  and  C_4
REMARK    3  A    between atoms: C_4  and  C_5
REMARK    4  A    between atoms: C_5  and  O_6
REMARK    5  A    between atoms: C_15  and  C_16
REMARK    6  A    between atoms: C_16  and  O_18
REMARK    7  A    between atoms: C_21  and  C_22
REMARK                            x       y       z     vdW  Elec       q    Type
REMARK                         _______ _______ _______ _____ _____    ______ ____
ROOT
ATOM      1  C   UNL     1       4.242   2.416  18.916  0.00  0.00    +0.000 C 
ATOM      2  C   UNL     1       3.796   3.861  18.813  0.00  0.00    +0.000 A 
ATOM      3  C   UNL     1       4.085   4.687  17.782  0.00  0.00    +0.000 A 
ATOM      4  C   UNL     1       3.584   6.123  17.803  0.00  0.00    +0.000 A 
ATOM      5  O   UNL     1       3.888   6.894  16.896  0.00  0.00    +0.000 OA
ATOM      6  N   UNL     1       2.800   6.451  18.891  0.00  0.00    +0.000 N 
ATOM      7  C   UNL     1       2.488   5.588  19.937  0.00  0.00    +0.000 A 
ATOM      8  N   UNL     1       1.679   6.223  20.862  0.00  0.00    +0.000 N 
ATOM      9  C   UNL     1       1.564   7.554  20.446  0.00  0.00    +0.000 A 
ATOM     10  C   UNL     1       0.858   8.581  21.023  0.00  0.00    +0.000 A 
ATOM     11  C   UNL     1       0.834   9.800  20.339  0.00  0.00    +0.000 A 
ATOM     12  C   UNL     1       1.490   9.959  19.090  0.00  0.00    +0.000 A 
ATOM     13  C   UNL     1       2.207   8.901  18.508  0.00  0.00    +0.000 A 
ATOM     14  C   UNL     1       2.211   7.705  19.193  0.00  0.00    +0.000 A 
ATOM     15  C   UNL     1       2.983   4.348  19.930  0.00  0.00    +0.000 A 
ATOM     16  H   UNL     1       1.588   5.920  21.822  0.00  0.00    +0.000 HD
ENDROOT
BRANCH  12  17
ATOM     17  C   UNL     1       1.406  11.296  18.449  0.00  0.00    +0.000 C 
ATOM     18  O   UNL     1       2.397  11.948  18.166  0.00  0.00    +0.000 OA
BRANCH  17  19
ATOM     19  O   UNL     1       0.150  11.745  18.258  0.00  0.00    +0.000 OA
ATOM     20  H   UNL     1      -0.011  12.220  17.423  0.00  0.00    +0.000 HD
ENDBRANCH  17  19
ENDBRANCH  12  17
BRANCH  15  21
ATOM     21  C   UNL     1       2.674   3.408  21.084  0.00  0.00    +0.000 C 
ATOM     22  N   UNL     1       2.418   2.630  22.043  0.00  0.00    +0.000 NA
ENDBRANCH  15  21
BRANCH   3  23
ATOM     23  C   UNL     1       4.848   4.283  16.537  0.00  0.00    +0.000 C 
BRANCH  23  24
ATOM     24  C   UNL     1       6.335   4.629  16.592  0.00  0.00    +0.000 C 
BRANCH  24  25
ATOM     25  O   UNL     1       6.599   5.844  15.896  0.00  0.00    +0.000 OA
ATOM     26  H   UNL     1       5.823   6.033  15.339  0.00  0.00    +0.000 HD
ENDBRANCH  24  25
ENDBRANCH  23  24
ENDBRANCH   3  23
TORSDOF 6
ENDMDL
MODEL 2
REMARK VINA RESULT:      -6.7      2.581      3.999
REMARK  Name = 
REMARK  7 active torsions:
REMARK  status: ('A' for Active; 'I' for Inactive)
REMARK    1  A    between atoms: C_1  and  C_2
REMARK    2  A    between atoms: C_3  and  C_4
REMARK    3  A    between atoms: C_4  and  C_5
REMARK    4  A    between atoms: C_5  and  O_6
REMARK    5  A    between atoms: C_15  and  C_16
REMARK    6  A    between atoms: C_16  and  O_18
REMARK    7  A    between atoms: C_21  and  C_22
REMARK                            x       y       z     vdW  Elec       q    Type
REMARK                         _______ _______ _______ _____ _____    ______ ____
ROOT
ATOM      1  C   UNL     1       5.169   3.882  17.151  0.00  0.00    +0.000 C 
ATOM      2  C   UNL     1       4.260   4.761  17.986  0.00  0.00    +0.000 A 
ATOM      3  C   UNL     1       3.675   4.385  19.147  0.00  0.00    +0.000 A 
ATOM      4  C   UNL     1       2.774   5.361  19.887  0.00  0.00    +0.000 A 
ATOM      5  O   UNL     1       2.197   5.009  20.913  0.00  0.00    +0.000 OA
ATOM      6  N   UNL     1       2.674   6.613  19.313  0.00  0.00    +0.000 N 
ATOM      7  C   UNL     1       3.298   6.999  18.130  0.00  0.00    +0.000 A 
ATOM      8  N   UNL     1       3.000   8.317  17.835  0.00  0.00    +0.000 N 
ATOM      9  C   UNL     1       2.079   8.744  18.797  0.00  0.00    +0.000 A 
ATOM     10  C   UNL     1       1.490   9.977  18.942  0.00  0.00    +0.000 A 
ATOM     11  C   UNL     1       0.673  10.165  20.061  0.00  0.00    +0.000 A 
ATOM     12  C   UNL     1       0.484   9.134  21.018  0.00  0.00    +0.000 A 
ATOM     13  C   UNL     1       1.094   7.879  20.862  0.00  0.00    +0.000 A 
ATOM     14  C   UNL     1       1.902   7.716  19.758  0.00  0.00    +0.000 A 
ATOM     15  C   UNL     1       4.040   6.111  17.464  0.00  0.00    +0.000 A 
ATOM     16  H   UNL     1       3.071   8.709  16.907  0.00  0.00    +0.000 HD
ENDROOT
BRANCH  12  17
ATOM     17  C   UNL     1      -0.406   9.436  22.168  0.00  0.00    +0.000 C 
ATOM     18  O   UNL     1      -0.662  10.577  22.515  0.00  0.00    +0.000 OA
BRANCH  17  19
ATOM     19  O   UNL     1      -0.857   8.349  22.824  0.00  0.00    +0.000 OA
ATOM     20  H   UNL     1      -0.893   8.420  23.795  0.00  0.00    +0.000 HD
ENDBRANCH  17  19
ENDBRANCH  12  17
BRANCH  15  21
ATOM     21  C   UNL     1       4.699   6.514  16.154  0.00  0.00    +0.000 C 
ATOM     22  N   UNL     1       5.245   6.849  15.068  0.00  0.00    +0.000 NA
ENDBRANCH  15  21
BRANCH   3  23
ATOM     23  C   UNL     1       3.885   3.049  19.829  0.00  0.00    +0.000 C 
BRANCH  23  24
ATOM     24  C   UNL     1       2.989   1.938  19.283  0.00  0.00    +0.000 C 
BRANCH  24  25
ATOM     25  O   UNL     1       3.721   1.074  18.419  0.00  0.00    +0.000 OA
ATOM     26  H   UNL     1       3.912   0.260  18.917  0.00  0.00    +0.000 HD
ENDBRANCH  24  25
ENDBRANCH  23  24
ENDBRANCH   3  23
TORSDOF 6
ENDMDL
MODEL 3
REMARK VINA RESULT:      -6.5      2.553      3.989
REMARK  Name = 
REMARK  7 active torsions:
REMARK  status: ('A' for Active; 'I' for Inactive)
REMARK    1  A    between atoms: C_1  and  C_2
REMARK    2  A    between atoms: C_3  and  C_4
REMARK    3  A    between atoms: C_4  and  C_5
REMARK    4  A    between atoms: C_5  and  O_6
REMARK    5  A    between atoms: C_15  and  C_16
REMARK    6  A    between atoms: C_16  and  O_18
REMARK    7  A    between atoms: C_21  and  C_22
REMARK                            x       y       z     vdW  Elec       q    Type
REMARK                         _______ _______ _______ _____ _____    ______ ____
ROOT
ATOM      1  C   UNL     1       4.646   3.573  17.911  0.00  0.00    +0.000 C 
ATOM      2  C   UNL     1       3.813   4.726  18.435  0.00  0.00    +0.000 A 
ATOM      3  C   UNL     1       3.040   4.679  19.544  0.00  0.00    +0.000 A 
ATOM      4  C   UNL     1       2.243   5.907  19.959  0.00  0.00    +0.000 A 
ATOM      5  O   UNL     1       1.497   5.855  20.934  0.00  0.00    +0.000 OA
ATOM      6  N   UNL     1       2.431   7.021  19.165  0.00  0.00    +0.000 N 
ATOM      7  C   UNL     1       3.247   7.067  18.038  0.00  0.00    +0.000 A 
ATOM      8  N   UNL     1       3.221   8.330  17.475  0.00  0.00    +0.000 N 
ATOM      9  C   UNL     1       2.283   9.072  18.200  0.00  0.00    +0.000 A 
ATOM     10  C   UNL     1       1.906  10.383  18.037  0.00  0.00    +0.000 A 
ATOM     11  C   UNL     1       1.010  10.909  18.971  0.00  0.00    +0.000 A 
ATOM     12  C   UNL     1       0.532  10.128  20.056  0.00  0.00    +0.000 A 
ATOM     13  C   UNL     1       0.927   8.790  20.216  0.00  0.00    +0.000 A 
ATOM     14  C   UNL     1       1.817   8.293  19.290  0.00  0.00    +0.000 A 
ATOM     15  C   UNL     1       3.896   5.963  17.656  0.00  0.00    +0.000 A 
ATOM     16  H   UNL     1       3.468   8.515  16.513  0.00  0.00    +0.000 HD
ENDROOT
BRANCH  12  17
ATOM     17  C   UNL     1      -0.420  10.782  20.991  0.00  0.00    +0.000 C 
ATOM     18  O   UNL     1      -0.369  10.615  22.198  0.00  0.00    +0.000 OA
BRANCH  17  19
ATOM     19  O   UNL     1      -1.370  11.523  20.390  0.00  0.00    +0.000 OA
ATOM     20  H   UNL     1      -2.222  11.588  20.859  0.00  0.00    +0.000 HD
ENDBRANCH  17  19
ENDBRANCH  12  17
BRANCH  15  21
ATOM     21  C   UNL     1       4.763   5.996  16.408  0.00  0.00    +0.000 C 
ATOM     22  N   UNL     1       5.482   6.023  15.372  0.00  0.00    +0.000 NA
ENDBRANCH  15  21
BRANCH   3  23
ATOM     23  C   UNL     1       2.931   3.489  20.474  0.00  0.00    +0.000 C 
BRANCH  23  24
ATOM     24  C   UNL     1       1.809   2.522  20.100  0.00  0.00    +0.000 C 
BRANCH  24  25
ATOM     25  O   UNL     1       0.542   3.033  20.506  0.00  0.00    +0.000 OA
ATOM     26  H   UNL     1       0.554   3.096  21.477  0.00  0.00    +0.000 HD
ENDBRANCH  24  25
ENDBRANCH  23  24
ENDBRANCH   3  23
TORSDOF 6
ENDMDL
MODEL 4
REMARK VINA RESULT:      -6.4      1.970      6.304
REMARK  Name = 
REMARK  7 active torsions:
REMARK  status: ('A' for Active; 'I' for Inactive)
REMARK    1  A    between atoms: C_1  and  C_2
REMARK    2  A    between atoms: C_3  and  C_4
REMARK    3  A    between atoms: C_4  and  C_5
REMARK    4  A    between atoms: C_5  and  O_6
REMARK    5  A    between atoms: C_15  and  C_16
REMARK    6  A    between atoms: C_16  and  O_18
REMARK    7  A    between atoms: C_21  and  C_22
REMARK                            x       y       z     vdW  Elec       q    Type
REMARK                         _______ _______ _______ _____ _____    ______ ____
ROOT
ATOM      1  C   UNL     1       0.413  11.920  20.984  0.00  0.00    +0.000 C 
ATOM      2  C   UNL     1       0.897  10.634  20.345  0.00  0.00    +0.000 A 
ATOM      3  C   UNL     1       1.308  10.515  19.062  0.00  0.00    +0.000 A 
ATOM      4  C   UNL     1       1.762   9.161  18.538  0.00  0.00    +0.000 A 
ATOM      5  O   UNL     1       2.086   9.035  17.360  0.00  0.00    +0.000 OA
ATOM      6  N   UNL     1       1.765   8.145  19.473  0.00  0.00    +0.000 N 
ATOM      7  C   UNL     1       1.362   8.280  20.798  0.00  0.00    +0.000 A 
ATOM      8  N   UNL     1       1.495   7.078  21.468  0.00  0.00    +0.000 N 
ATOM      9  C   UNL     1       1.890   6.132  20.518  0.00  0.00    +0.000 A 
ATOM     10  C   UNL     1       2.164   4.797  20.690  0.00  0.00    +0.000 A 
ATOM     11  C   UNL     1       2.640   4.096  19.578  0.00  0.00    +0.000 A 
ATOM     12  C   UNL     1       2.856   4.743  18.334  0.00  0.00    +0.000 A 
ATOM     13  C   UNL     1       2.576   6.110  18.169  0.00  0.00    +0.000 A 
ATOM     14  C   UNL     1       2.116   6.785  19.279  0.00  0.00    +0.000 A 
ATOM     15  C   UNL     1       0.913   9.464  21.226  0.00  0.00    +0.000 A 
ATOM     16  H   UNL     1       0.988   6.854  22.313  0.00  0.00    +0.000 HD
ENDROOT
BRANCH  12  17
ATOM     17  C   UNL     1       3.361   3.907  17.215  0.00  0.00    +0.000 C 
ATOM     18  O   UNL     1       4.478   4.046  16.747  0.00  0.00    +0.000 OA
BRANCH  17  19
ATOM     19  O   UNL     1       2.465   3.025  16.731  0.00  0.00    +0.000 OA
ATOM     20  H   UNL     1       1.557   3.104  17.077  0.00  0.00    +0.000 HD
ENDBRANCH  17  19
ENDBRANCH  12  17
BRANCH  15  21
ATOM     21  C   UNL     1       0.439   9.613  22.663  0.00  0.00    +0.000 C 
ATOM     22  N   UNL     1       0.047   9.736  23.855  0.00  0.00    +0.000 NA
ENDBRANCH  15  21
BRANCH   3  23
ATOM     23  C   UNL     1       1.411  11.661  18.077  0.00  0.00    +0.000 C 
BRANCH  23  24
ATOM     24  C   UNL     1       2.659  12.522  18.271  0.00  0.00    +0.000 C 
BRANCH  24  25
ATOM     25  O   UNL     1       2.651  13.634  17.380  0.00  0.00    +0.000 OA
ATOM     26  H   UNL     1       2.691  14.441  17.924  0.00  0.00    +0.000 HD
ENDBRANCH  24  25
ENDBRANCH  23  24
ENDBRANCH   3  23
TORSDOF 6
ENDMDL
MODEL 5
REMARK VINA RESULT:      -6.3      1.745      6.290
REMARK  Name = 
REMARK  7 active torsions:
REMARK  status: ('A' for Active; 'I' for Inactive)
REMARK    1  A    between atoms: C_1  and  C_2
REMARK    2  A    between atoms: C_3  and  C_4
REMARK    3  A    between atoms: C_4  and  C_5
REMARK    4  A    between atoms: C_5  and  O_6
REMARK    5  A    between atoms: C_15  and  C_16
REMARK    6  A    between atoms: C_16  and  O_18
REMARK    7  A    between atoms: C_21  and  C_22
REMARK                            x       y       z     vdW  Elec       q    Type
REMARK                         _______ _______ _______ _____ _____    ______ ____
ROOT
ATOM      1  C   UNL     1      -0.440  11.856  20.993  0.00  0.00    +0.000 C 
ATOM      2  C   UNL     1       0.360  10.782  20.284  0.00  0.00    +0.000 A 
ATOM      3  C   UNL     1       0.915  10.913  19.057  0.00  0.00    +0.000 A 
ATOM      4  C   UNL     1       1.688   9.752  18.451  0.00  0.00    +0.000 A 
ATOM      5  O   UNL     1       2.148   9.846  17.316  0.00  0.00    +0.000 OA
ATOM      6  N   UNL     1       1.805   8.642  19.264  0.00  0.00    +0.000 N 
ATOM      7  C   UNL     1       1.251   8.522  20.535  0.00  0.00    +0.000 A 
ATOM      8  N   UNL     1       1.560   7.291  21.082  0.00  0.00    +0.000 N 
ATOM      9  C   UNL     1       2.236   6.571  20.092  0.00  0.00    +0.000 A 
ATOM     10  C   UNL     1       2.759   5.302  20.152  0.00  0.00    +0.000 A 
ATOM     11  C   UNL     1       3.479   4.857  19.039  0.00  0.00    +0.000 A 
ATOM     12  C   UNL     1       3.682   5.691  17.909  0.00  0.00    +0.000 A 
ATOM     13  C   UNL     1       3.145   6.988  17.859  0.00  0.00    +0.000 A 
ATOM     14  C   UNL     1       2.446   7.412  18.969  0.00  0.00    +0.000 A 
ATOM     15  C   UNL     1       0.527   9.531  21.028  0.00  0.00    +0.000 A 
ATOM     16  H   UNL     1       1.027   6.865  21.828  0.00  0.00    +0.000 HD
ENDROOT
BRANCH  12  17
ATOM     17  C   UNL     1       4.458   5.121  16.779  0.00  0.00    +0.000 C 
ATOM     18  O   UNL     1       4.606   3.920  16.629  0.00  0.00    +0.000 OA
BRANCH  17  19
ATOM     19  O   UNL     1       5.025   6.039  15.973  0.00  0.00    +0.000 OA
ATOM     20  H   UNL     1       5.437   6.802  16.417  0.00  0.00    +0.000 HD
ENDBRANCH  17  19
ENDBRANCH  12  17
BRANCH  15  21
ATOM     21  C   UNL     1      -0.110   9.397  22.402  0.00  0.00    +0.000 C 
ATOM     22  N   UNL     1      -0.637   9.285  23.542  0.00  0.00    +0.000 NA
ENDBRANCH  15  21
BRANCH   3  23
ATOM     23  C   UNL     1       0.879  12.177  18.223  0.00  0.00    +0.000 C 
BRANCH  23  24
ATOM     24  C   UNL     1       2.073  13.100  18.462  0.00  0.00    +0.000 C 
BRANCH  24  25
ATOM     25  O   UNL     1       3.131  12.808  17.553  0.00  0.00    +0.000 OA
ATOM     26  H   UNL     1       3.777  12.256  18.029  0.00  0.00    +0.000 HD
ENDBRANCH  24  25
ENDBRANCH  23  24
ENDBRANCH   3  23
TORSDOF 6
ENDMDL
MODEL 6
REMARK VINA RESULT:      -6.3      4.437      6.246
REMARK  Name = 
REMARK  7 active torsions:
REMARK  status: ('A' for Active; 'I' for Inactive)
REMARK    1  A    between atoms: C_1  and  C_2
REMARK    2  A    between atoms: C_3  and  C_4
REMARK    3  A    between atoms: C_4  and  C_5
REMARK    4  A    between atoms: C_5  and  O_6
REMARK    5  A    between atoms: C_15  and  C_16
REMARK    6  A    between atoms: C_16  and  O_18
REMARK    7  A    between atoms: C_21  and  C_22
REMARK                            x       y       z     vdW  Elec       q    Type
REMARK                         _______ _______ _______ _____ _____    ______ ____
ROOT
ATOM      1  C   UNL     1       7.706   5.819  15.021  0.00  0.00    +0.000 C 
ATOM      2  C   UNL     1       6.783   5.365  16.135  0.00  0.00    +0.000 A 
ATOM      3  C   UNL     1       6.878   5.757  17.426  0.00  0.00    +0.000 A 
ATOM      4  C   UNL     1       5.893   5.219  18.452  0.00  0.00    +0.000 A 
ATOM      5  O   UNL     1       6.006   5.529  19.635  0.00  0.00    +0.000 OA
ATOM      6  N   UNL     1       4.915   4.387  17.942  0.00  0.00    +0.000 N 
ATOM      7  C   UNL     1       4.810   4.007  16.607  0.00  0.00    +0.000 A 
ATOM      8  N   UNL     1       3.719   3.176  16.426  0.00  0.00    +0.000 N 
ATOM      9  C   UNL     1       3.183   2.939  17.696  0.00  0.00    +0.000 A 
ATOM     10  C   UNL     1       2.086   2.187  18.044  0.00  0.00    +0.000 A 
ATOM     11  C   UNL     1       1.707   2.199  19.389  0.00  0.00    +0.000 A 
ATOM     12  C   UNL     1       2.410   2.975  20.347  0.00  0.00    +0.000 A 
ATOM     13  C   UNL     1       3.527   3.743  19.980  0.00  0.00    +0.000 A 
ATOM     14  C   UNL     1       3.880   3.725  18.648  0.00  0.00    +0.000 A 
ATOM     15  C   UNL     1       5.718   4.444  15.730  0.00  0.00    +0.000 A 
ATOM     16  H   UNL     1       3.627   2.543  15.645  0.00  0.00    +0.000 HD
ENDROOT
BRANCH  12  17
ATOM     17  C   UNL     1       1.927   2.914  21.750  0.00  0.00    +0.000 C 
ATOM     18  O   UNL     1       1.022   2.174  22.099  0.00  0.00    +0.000 OA
BRANCH  17  19
ATOM     19  O   UNL     1       2.533   3.780  22.586  0.00  0.00    +0.000 OA
ATOM     20  H   UNL     1       3.402   4.113  22.299  0.00  0.00    +0.000 HD
ENDBRANCH  17  19
ENDBRANCH  12  17
BRANCH  15  21
ATOM     21  C   UNL     1       5.631   4.007  14.277  0.00  0.00    +0.000 C 
ATOM     22  N   UNL     1       5.558   3.646  13.071  0.00  0.00    +0.000 NA
ENDBRANCH  15  21
BRANCH   3  23
ATOM     23  C   UNL     1       7.882   6.761  17.954  0.00  0.00    +0.000 C 
BRANCH  23  24
ATOM     24  C   UNL     1       7.538   8.208  17.608  0.00  0.00    +0.000 C 
BRANCH  24  25
ATOM     25  O   UNL     1       8.485   9.106  18.179  0.00  0.00    +0.000 OA
ATOM     26  H   UNL     1       9.086   9.386  17.466  0.00  0.00    +0.000 HD
ENDBRANCH  24  25
ENDBRANCH  23  24
ENDBRANCH   3  23
TORSDOF 6
ENDMDL
MODEL 7
REMARK VINA RESULT:      -6.2      0.976      1.188
REMARK  Name = 
REMARK  7 active torsions:
REMARK  status: ('A' for Active; 'I' for Inactive)
REMARK    1  A    between atoms: C_1  and  C_2
REMARK    2  A    between atoms: C_3  and  C_4
REMARK    3  A    between atoms: C_4  and  C_5
REMARK    4  A    between atoms: C_5  and  O_6
REMARK    5  A    between atoms: C_15  and  C_16
REMARK    6  A    between atoms: C_16  and  O_18
REMARK    7  A    between atoms: C_21  and  C_22
REMARK                            x       y       z     vdW  Elec       q    Type
REMARK                         _______ _______ _______ _____ _____    ______ ____
ROOT
ATOM      1  C   UNL     1       4.480   3.129  19.248  0.00  0.00    +0.000 C 
ATOM      2  C   UNL     1       3.872   4.516  19.177  0.00  0.00    +0.000 A 
ATOM      3  C   UNL     1       4.160   5.439  18.231  0.00  0.00    +0.000 A 
ATOM      4  C   UNL     1       3.485   6.801  18.278  0.00  0.00    +0.000 A 
ATOM      5  O   UNL     1       3.781   7.663  17.453  0.00  0.00    +0.000 OA
ATOM      6  N   UNL     1       2.561   6.961  19.291  0.00  0.00    +0.000 N 
ATOM      7  C   UNL     1       2.254   5.997  20.248  0.00  0.00    +0.000 A 
ATOM      8  N   UNL     1       1.284   6.469  21.113  0.00  0.00    +0.000 N 
ATOM      9  C   UNL     1       1.048   7.802  20.762  0.00  0.00    +0.000 A 
ATOM     10  C   UNL     1       0.165   8.698  21.315  0.00  0.00    +0.000 A 
ATOM     11  C   UNL     1       0.060   9.949  20.702  0.00  0.00    +0.000 A 
ATOM     12  C   UNL     1       0.814  10.269  19.542  0.00  0.00    +0.000 A 
ATOM     13  C   UNL     1       1.711   9.345  18.983  0.00  0.00    +0.000 A 
ATOM     14  C   UNL     1       1.794   8.114  19.597  0.00  0.00    +0.000 A 
ATOM     15  C   UNL     1       2.897   4.827  20.225  0.00  0.00    +0.000 A 
ATOM     16  H   UNL     1       1.135   6.093  22.039  0.00  0.00    +0.000 HD
ENDROOT
BRANCH  12  17
ATOM     17  C   UNL     1       0.631  11.627  18.971  0.00  0.00    +0.000 C 
ATOM     18  O   UNL     1      -0.288  12.358  19.303  0.00  0.00    +0.000 OA
BRANCH  17  19
ATOM     19  O   UNL     1       1.528  11.958  18.021  0.00  0.00    +0.000 OA
ATOM     20  H   UNL     1       2.445  11.673  18.183  0.00  0.00    +0.000 HD
ENDBRANCH  17  19
ENDBRANCH  12  17
BRANCH  15  21
ATOM     21  C   UNL     1       2.591   3.781  21.285  0.00  0.00    +0.000 C 
ATOM     22  N   UNL     1       2.339   2.913  22.165  0.00  0.00    +0.000 NA
ENDBRANCH  15  21
BRANCH   3  23
ATOM     23  C   UNL     1       5.087   5.213  17.056  0.00  0.00    +0.000 C 
BRANCH  23  24
ATOM     24  C   UNL     1       4.718   3.994  16.212  0.00  0.00    +0.000 C 
BRANCH  24  25
ATOM     25  O   UNL     1       5.870   3.207  15.924  0.00  0.00    +0.000 OA
ATOM     26  H   UNL     1       6.504   3.782  15.460  0.00  0.00    +0.000 HD
ENDBRANCH  24  25
ENDBRANCH  23  24
ENDBRANCH   3  23
TORSDOF 6
ENDMDL
MODEL 8
REMARK VINA RESULT:      -6.2      2.511      3.874
REMARK  Name = 
REMARK  7 active torsions:
REMARK  status: ('A' for Active; 'I' for Inactive)
REMARK    1  A    between atoms: C_1  and  C_2
REMARK    2  A    between atoms: C_3  and  C_4
REMARK    3  A    between atoms: C_4  and  C_5
REMARK    4  A    between atoms: C_5  and  O_6
REMARK    5  A    between atoms: C_15  and  C_16
REMARK    6  A    between atoms: C_16  and  O_18
REMARK    7  A    between atoms: C_21  and  C_22
REMARK                            x       y       z     vdW  Elec       q    Type
REMARK                         _______ _______ _______ _____ _____    ______ ____
ROOT
ATOM      1  C   UNL     1       4.734   3.394  17.203  0.00  0.00    +0.000 C 
ATOM      2  C   UNL     1       3.900   4.399  17.972  0.00  0.00    +0.000 A 
ATOM      3  C   UNL     1       3.182   4.117  19.084  0.00  0.00    +0.000 A 
ATOM      4  C   UNL     1       2.376   5.217  19.759  0.00  0.00    +0.000 A 
ATOM      5  O   UNL     1       1.680   4.957  20.737  0.00  0.00    +0.000 OA
ATOM      6  N   UNL     1       2.499   6.467  19.184  0.00  0.00    +0.000 N 
ATOM      7  C   UNL     1       3.259   6.753  18.053  0.00  0.00    +0.000 A 
ATOM      8  N   UNL     1       3.175   8.097  17.743  0.00  0.00    +0.000 N 
ATOM      9  C   UNL     1       2.255   8.658  18.635  0.00  0.00    +0.000 A 
ATOM     10  C   UNL     1       1.838   9.962  18.741  0.00  0.00    +0.000 A 
ATOM     11  C   UNL     1       0.976  10.272  19.796  0.00  0.00    +0.000 A 
ATOM     12  C   UNL     1       0.570   9.285  20.732  0.00  0.00    +0.000 A 
ATOM     13  C   UNL     1       1.004   7.954  20.617  0.00  0.00    +0.000 A 
ATOM     14  C   UNL     1       1.861   7.671  19.575  0.00  0.00    +0.000 A 
ATOM     15  C   UNL     1       3.915   5.763  17.441  0.00  0.00    +0.000 A 
ATOM     16  H   UNL     1       3.370   8.469  16.824  0.00  0.00    +0.000 HD
ENDROOT
BRANCH  12  17
ATOM     17  C   UNL     1      -0.351   9.717  21.814  0.00  0.00    +0.000 C 
ATOM     18  O   UNL     1      -0.670   8.983  22.734  0.00  0.00    +0.000 OA
BRANCH  17  19
ATOM     19  O   UNL     1      -0.844  10.962  21.661  0.00  0.00    +0.000 OA
ATOM     20  H   UNL     1      -1.203  11.175  20.781  0.00  0.00    +0.000 HD
ENDBRANCH  17  19
ENDBRANCH  12  17
BRANCH  15  21
ATOM     21  C   UNL     1       4.720   6.060  16.186  0.00  0.00    +0.000 C 
ATOM     22  N   UNL     1       5.388   6.307  15.146  0.00  0.00    +0.000 NA
ENDBRANCH  15  21
BRANCH   3  23
ATOM     23  C   UNL     1       3.147   2.770  19.774  0.00  0.00    +0.000 C 
BRANCH  23  24
ATOM     24  C   UNL     1       4.373   2.497  20.643  0.00  0.00    +0.000 C 
BRANCH  24  25
ATOM     25  O   UNL     1       5.202   1.499  20.053  0.00  0.00    +0.000 OA
ATOM     26  H   UNL     1       6.104   1.863  20.006  0.00  0.00    +0.000 HD
ENDBRANCH  24  25
ENDBRANCH  23  24
ENDBRANCH   3  23
TORSDOF 6
ENDMDL
MODEL 9
REMARK VINA RESULT:      -5.9      1.858      6.579
REMARK  Name = 
REMARK  7 active torsions:
REMARK  status: ('A' for Active; 'I' for Inactive)
REMARK    1  A    between atoms: C_1  and  C_2
REMARK    2  A    between atoms: C_3  and  C_4
REMARK    3  A    between atoms: C_4  and  C_5
REMARK    4  A    between atoms: C_5  and  O_6
REMARK    5  A    between atoms: C_15  and  C_16
REMARK    6  A    between atoms: C_16  and  O_18
REMARK    7  A    between atoms: C_21  and  C_22
REMARK                            x       y       z     vdW  Elec       q    Type
REMARK                         _______ _______ _______ _____ _____    ______ ____
ROOT
ATOM      1  C   UNL     1      -0.437  12.106  21.106  0.00  0.00    +0.000 C 
ATOM      2  C   UNL     1       0.371  11.069  20.352  0.00  0.00    +0.000 A 
ATOM      3  C   UNL     1       0.954  11.270  19.148  0.00  0.00    +0.000 A 
ATOM      4  C   UNL     1       1.732  10.141  18.490  0.00  0.00    +0.000 A 
ATOM      5  O   UNL     1       2.219  10.299  17.373  0.00  0.00    +0.000 OA
ATOM      6  N   UNL     1       1.825   8.983  19.236  0.00  0.00    +0.000 N 
ATOM      7  C   UNL     1       1.241   8.792  20.486  0.00  0.00    +0.000 A 
ATOM      8  N   UNL     1       1.530   7.528  20.965  0.00  0.00    +0.000 N 
ATOM      9  C   UNL     1       2.223   6.863  19.948  0.00  0.00    +0.000 A 
ATOM     10  C   UNL     1       2.737   5.589  19.943  0.00  0.00    +0.000 A 
ATOM     11  C   UNL     1       3.478   5.206  18.822  0.00  0.00    +0.000 A 
ATOM     12  C   UNL     1       3.711   6.105  17.749  0.00  0.00    +0.000 A 
ATOM     13  C   UNL     1       3.184   7.407  17.765  0.00  0.00    +0.000 A 
ATOM     14  C   UNL     1       2.464   7.768  18.883  0.00  0.00    +0.000 A 
ATOM     15  C   UNL     1       0.513   9.776  21.023  0.00  0.00    +0.000 A 
ATOM     16  H   UNL     1       0.978   7.062  21.672  0.00  0.00    +0.000 HD
ENDROOT
BRANCH  12  17
ATOM     17  C   UNL     1       4.509   5.597  16.603  0.00  0.00    +0.000 C 
ATOM     18  O   UNL     1       5.076   6.342  15.820  0.00  0.00    +0.000 OA
BRANCH  17  19
ATOM     19  O   UNL     1       4.507   4.256  16.473  0.00  0.00    +0.000 OA
ATOM     20  H   UNL     1       4.933   3.757  17.193  0.00  0.00    +0.000 HD
ENDBRANCH  17  19
ENDBRANCH  12  17
BRANCH  15  21
ATOM     21  C   UNL     1      -0.155   9.564  22.372  0.00  0.00    +0.000 C 
ATOM     22  N   UNL     1      -0.709   9.388  23.491  0.00  0.00    +0.000 NA
ENDBRANCH  15  21
BRANCH   3  23
ATOM     23  C   UNL     1       0.945  12.582  18.390  0.00  0.00    +0.000 C 
BRANCH  23  24
ATOM     24  C   UNL     1      -0.444  13.206  18.266  0.00  0.00    +0.000 C 
BRANCH  24  25
ATOM     25  O   UNL     1      -1.256  12.461  17.363  0.00  0.00    +0.000 OA
ATOM     26  H   UNL     1      -1.015  11.523  17.463  0.00  0.00    +0.000 HD
ENDBRANCH  24  25
ENDBRANCH  23  24
ENDBRANCH   3  23
TORSDOF 6
ENDMDL
