MODEL 1
REMARK VINA RESULT:      -8.3      0.000      0.000
REMARK  Name = 
REMARK  8 active torsions:
REMARK  status: ('A' for Active; 'I' for Inactive)
REMARK    1  A    between atoms: C_1  and  O_2
REMARK    2  A    between atoms: O_2  and  C_3
REMARK    3  A    between atoms: C_3  and  C_5
REMARK    4  A    between atoms: C_9  and  N_10
REMARK    5  A    between atoms: C_11  and  C_13
REMARK    6  A    between atoms: C_17  and  N_18
REMARK    7  A    between atoms: C_20  and  C_21
REMARK    8  A    between atoms: N_25  and  C_26
REMARK                            x       y       z     vdW  Elec       q    Type
REMARK                         _______ _______ _______ _____ _____    ______ ____
ROOT
ATOM      1  C   UNL     1       1.691   8.964  19.078  0.00  0.00    +0.000 A 
ATOM      2  C   UNL     1       2.052   9.926  18.120  0.00  0.00    +0.000 A 
ATOM      3  C   UNL     1       1.566  11.225  18.199  0.00  0.00    +0.000 A 
ATOM      4  C   UNL     1       0.727  11.582  19.247  0.00  0.00    +0.000 A 
ATOM      5  C   UNL     1       0.382  10.637  20.228  0.00  0.00    +0.000 A 
ATOM      6  C   UNL     1       0.857   9.314  20.140  0.00  0.00    +0.000 A 
ENDROOT
BRANCH   5   7
ATOM      7  N   UNL     1      -0.398  11.036  21.341  0.00  0.00    +0.000 N 
ATOM      8  C   UNL     1      -1.432  11.940  21.371  0.00  0.00    +0.000 A 
ATOM      9  C   UNL     1      -1.768  12.034  22.696  0.00  0.00    +0.000 A 
ATOM     10  N   UNL     1      -0.987  11.188  23.426  0.00  0.00    +0.000 NA
ATOM     11  N   UNL     1      -0.166  10.567  22.592  0.00  0.00    +0.000 NA
BRANCH   9  12
ATOM     12  C   UNL     1      -2.809  12.915  23.250  0.00  0.00    +0.000 A 
ATOM     13  C   UNL     1      -4.176  12.756  23.192  0.00  0.00    +0.000 A 
ATOM     14  N   UNL     1      -4.816  13.780  23.843  0.00  0.00    +0.000 NA
ATOM     15  C   UNL     1      -3.855  14.561  24.283  0.00  0.00    +0.000 A 
ATOM     16  N   UNL     1      -2.622  14.086  23.934  0.00  0.00    +0.000 N 
ATOM     17  C   UNL     1      -1.361  14.730  24.209  0.00  0.00    +0.000 C 
ENDBRANCH   9  12
ENDBRANCH   5   7
BRANCH   1  19
ATOM     18  N   UNL     1       3.034   7.340  17.802  0.00  0.00    +0.000 N 
ATOM     19  C   UNL     1       2.344   7.637  18.967  0.00  0.00    +0.000 C 
ATOM     20  O   UNL     1       2.263   6.913  19.957  0.00  0.00    +0.000 OA
ATOM     21  H   UNL     1       3.205   8.090  17.145  0.00  0.00    +0.000 HD
BRANCH  18  26
ATOM     22  C   UNL     1       5.681   4.855  16.949  0.00  0.00    +0.000 A 
ATOM     23  C   UNL     1       4.970   3.651  17.045  0.00  0.00    +0.000 A 
ATOM     24  C   UNL     1       3.621   3.665  17.369  0.00  0.00    +0.000 A 
ATOM     25  C   UNL     1       2.979   4.879  17.606  0.00  0.00    +0.000 A 
ATOM     26  C   UNL     1       3.668   6.096  17.544  0.00  0.00    +0.000 A 
ATOM     27  C   UNL     1       5.027   6.078  17.200  0.00  0.00    +0.000 A 
BRANCH  22  28
ATOM     28  C   UNL     1       7.123   4.863  16.575  0.00  0.00    +0.000 C 
ATOM     29  O   UNL     1       7.999   4.325  17.232  0.00  0.00    +0.000 OA
BRANCH  28  31
ATOM     30  C   UNL     1       6.926   4.891  14.232  0.00  0.00    +0.000 C 
ATOM     31  O   UNL     1       7.301   5.570  15.430  0.00  0.00    +0.000 OA
ENDBRANCH  28  31
ENDBRANCH  22  28
ENDBRANCH  18  26
ENDBRANCH   1  19
TORSDOF 6
ENDMDL
MODEL 2
REMARK VINA RESULT:      -8.1      2.623      5.271
REMARK  Name = 
REMARK  8 active torsions:
REMARK  status: ('A' for Active; 'I' for Inactive)
REMARK    1  A    between atoms: C_1  and  O_2
REMARK    2  A    between atoms: O_2  and  C_3
REMARK    3  A    between atoms: C_3  and  C_5
REMARK    4  A    between atoms: C_9  and  N_10
REMARK    5  A    between atoms: C_11  and  C_13
REMARK    6  A    between atoms: C_17  and  N_18
REMARK    7  A    between atoms: C_20  and  C_21
REMARK    8  A    between atoms: N_25  and  C_26
REMARK                            x       y       z     vdW  Elec       q    Type
REMARK                         _______ _______ _______ _____ _____    ______ ____
ROOT
ATOM      1  C   UNL     1       3.962   5.103  17.963  0.00  0.00    +0.000 A 
ATOM      2  C   UNL     1       3.648   4.244  19.029  0.00  0.00    +0.000 A 
ATOM      3  C   UNL     1       2.869   4.683  20.092  0.00  0.00    +0.000 A 
ATOM      4  C   UNL     1       2.381   5.983  20.093  0.00  0.00    +0.000 A 
ATOM      5  C   UNL     1       2.661   6.845  19.019  0.00  0.00    +0.000 A 
ATOM      6  C   UNL     1       3.467   6.408  17.950  0.00  0.00    +0.000 A 
ENDROOT
BRANCH   5   7
ATOM      7  N   UNL     1       2.082   8.136  18.987  0.00  0.00    +0.000 N 
ATOM      8  C   UNL     1       1.295   8.736  19.939  0.00  0.00    +0.000 A 
ATOM      9  C   UNL     1       0.919   9.926  19.375  0.00  0.00    +0.000 A 
ATOM     10  N   UNL     1       1.492  10.049  18.144  0.00  0.00    +0.000 NA
ATOM     11  N   UNL     1       2.216   8.962  17.920  0.00  0.00    +0.000 NA
BRANCH   9  12
ATOM     12  C   UNL     1       0.030  10.922  19.997  0.00  0.00    +0.000 A 
ATOM     13  C   UNL     1       0.257  11.673  21.128  0.00  0.00    +0.000 A 
ATOM     14  N   UNL     1      -0.804  12.507  21.383  0.00  0.00    +0.000 NA
ATOM     15  C   UNL     1      -1.672  12.259  20.428  0.00  0.00    +0.000 A 
ATOM     16  N   UNL     1      -1.218  11.294  19.573  0.00  0.00    +0.000 N 
ATOM     17  C   UNL     1      -1.945  10.748  18.454  0.00  0.00    +0.000 C 
ENDBRANCH   9  12
ENDBRANCH   5   7
BRANCH   1  19
ATOM     18  N   UNL     1       5.127   5.352  15.807  0.00  0.00    +0.000 N 
ATOM     19  C   UNL     1       4.708   4.511  16.827  0.00  0.00    +0.000 C 
ATOM     20  O   UNL     1       4.944   3.307  16.906  0.00  0.00    +0.000 OA
ATOM     21  H   UNL     1       5.054   6.350  15.953  0.00  0.00    +0.000 HD
BRANCH  18  26
ATOM     22  C   UNL     1       5.819   3.605  12.585  0.00  0.00    +0.000 A 
ATOM     23  C   UNL     1       7.121   4.043  12.309  0.00  0.00    +0.000 A 
ATOM     24  C   UNL     1       7.771   4.892  13.193  0.00  0.00    +0.000 A 
ATOM     25  C   UNL     1       7.121   5.314  14.351  0.00  0.00    +0.000 A 
ATOM     26  C   UNL     1       5.811   4.915  14.642  0.00  0.00    +0.000 A 
ATOM     27  C   UNL     1       5.164   4.045  13.754  0.00  0.00    +0.000 A 
BRANCH  22  28
ATOM     28  C   UNL     1       5.114   2.672  11.663  0.00  0.00    +0.000 C 
ATOM     29  O   UNL     1       5.645   1.709  11.132  0.00  0.00    +0.000 OA
BRANCH  28  31
ATOM     30  C   UNL     1       3.518   3.579  10.193  0.00  0.00    +0.000 C 
ATOM     31  O   UNL     1       3.829   3.072  11.491  0.00  0.00    +0.000 OA
ENDBRANCH  28  31
ENDBRANCH  22  28
ENDBRANCH  18  26
ENDBRANCH   1  19
TORSDOF 6
ENDMDL
MODEL 3
REMARK VINA RESULT:      -8.0      3.314      5.302
REMARK  Name = 
REMARK  8 active torsions:
REMARK  status: ('A' for Active; 'I' for Inactive)
REMARK    1  A    between atoms: C_1  and  O_2
REMARK    2  A    between atoms: O_2  and  C_3
REMARK    3  A    between atoms: C_3  and  C_5
REMARK    4  A    between atoms: C_9  and  N_10
REMARK    5  A    between atoms: C_11  and  C_13
REMARK    6  A    between atoms: C_17  and  N_18
REMARK    7  A    between atoms: C_20  and  C_21
REMARK    8  A    between atoms: N_25  and  C_26
REMARK                            x       y       z     vdW  Elec       q    Type
REMARK                         _______ _______ _______ _____ _____    ______ ____
ROOT
ATOM      1  C   UNL     1       4.290   6.052  17.481  0.00  0.00    +0.000 A 
ATOM      2  C   UNL     1       4.407   4.928  18.315  0.00  0.00    +0.000 A 
ATOM      3  C   UNL     1       3.749   4.877  19.537  0.00  0.00    +0.000 A 
ATOM      4  C   UNL     1       2.951   5.943  19.932  0.00  0.00    +0.000 A 
ATOM      5  C   UNL     1       2.800   7.061  19.094  0.00  0.00    +0.000 A 
ATOM      6  C   UNL     1       3.483   7.125  17.864  0.00  0.00    +0.000 A 
ENDROOT
BRANCH   5   7
ATOM      7  N   UNL     1       1.912   8.100  19.465  0.00  0.00    +0.000 N 
ATOM      8  C   UNL     1       1.402   9.101  18.675  0.00  0.00    +0.000 A 
ATOM      9  C   UNL     1       0.687   9.889  19.538  0.00  0.00    +0.000 A 
ATOM     10  N   UNL     1       0.737   9.356  20.791  0.00  0.00    +0.000 NA
ATOM     11  N   UNL     1       1.470   8.253  20.738  0.00  0.00    +0.000 NA
BRANCH   9  12
ATOM     12  C   UNL     1      -0.025  11.125  19.172  0.00  0.00    +0.000 A 
ATOM     13  C   UNL     1      -1.366  11.283  18.901  0.00  0.00    +0.000 A 
ATOM     14  N   UNL     1      -1.656  12.594  18.617  0.00  0.00    +0.000 NA
ATOM     15  C   UNL     1      -0.507  13.226  18.700  0.00  0.00    +0.000 A 
ATOM     16  N   UNL     1       0.513  12.374  19.019  0.00  0.00    +0.000 N 
ATOM     17  C   UNL     1       1.906  12.730  19.132  0.00  0.00    +0.000 C 
ENDBRANCH   9  12
ENDBRANCH   5   7
BRANCH   1  19
ATOM     18  N   UNL     1       5.320   4.718  15.685  0.00  0.00    +0.000 N 
ATOM     19  C   UNL     1       4.945   5.968  16.153  0.00  0.00    +0.000 C 
ATOM     20  O   UNL     1       5.058   7.027  15.540  0.00  0.00    +0.000 OA
ATOM     21  H   UNL     1       4.990   3.902  16.185  0.00  0.00    +0.000 HD
BRANCH  18  26
ATOM     22  C   UNL     1       6.137   3.299  12.334  0.00  0.00    +0.000 A 
ATOM     23  C   UNL     1       7.281   4.034  11.995  0.00  0.00    +0.000 A 
ATOM     24  C   UNL     1       7.788   4.976  12.878  0.00  0.00    +0.000 A 
ATOM     25  C   UNL     1       7.152   5.193  14.099  0.00  0.00    +0.000 A 
ATOM     26  C   UNL     1       5.992   4.494  14.454  0.00  0.00    +0.000 A 
ATOM     27  C   UNL     1       5.493   3.532  13.566  0.00  0.00    +0.000 A 
BRANCH  22  28
ATOM     28  C   UNL     1       5.592   2.264  11.411  0.00  0.00    +0.000 C 
ATOM     29  O   UNL     1       6.269   1.393  10.890  0.00  0.00    +0.000 OA
BRANCH  28  31
ATOM     30  C   UNL     1       3.917   3.630  10.486  0.00  0.00    +0.000 C 
ATOM     31  O   UNL     1       4.262   2.460  11.228  0.00  0.00    +0.000 OA
ENDBRANCH  28  31
ENDBRANCH  22  28
ENDBRANCH  18  26
ENDBRANCH   1  19
TORSDOF 6
ENDMDL
MODEL 4
REMARK VINA RESULT:      -7.9      2.636      4.859
REMARK  Name = 
REMARK  8 active torsions:
REMARK  status: ('A' for Active; 'I' for Inactive)
REMARK    1  A    between atoms: C_1  and  O_2
REMARK    2  A    between atoms: O_2  and  C_3
REMARK    3  A    between atoms: C_3  and  C_5
REMARK    4  A    between atoms: C_9  and  N_10
REMARK    5  A    between atoms: C_11  and  C_13
REMARK    6  A    between atoms: C_17  and  N_18
REMARK    7  A    between atoms: C_20  and  C_21
REMARK    8  A    between atoms: N_25  and  C_26
REMARK                            x       y       z     vdW  Elec       q    Type
REMARK                         _______ _______ _______ _____ _____    ______ ____
ROOT
ATOM      1  C   UNL     1       4.124   6.401  17.471  0.00  0.00    +0.000 A 
ATOM      2  C   UNL     1       4.159   5.312  18.356  0.00  0.00    +0.000 A 
ATOM      3  C   UNL     1       3.422   5.327  19.533  0.00  0.00    +0.000 A 
ATOM      4  C   UNL     1       2.626   6.427  19.830  0.00  0.00    +0.000 A 
ATOM      5  C   UNL     1       2.558   7.511  18.939  0.00  0.00    +0.000 A 
ATOM      6  C   UNL     1       3.320   7.507  17.754  0.00  0.00    +0.000 A 
ENDROOT
BRANCH   5   7
ATOM      7  N   UNL     1       1.674   8.584  19.207  0.00  0.00    +0.000 N 
ATOM      8  C   UNL     1       1.184   8.995  20.422  0.00  0.00    +0.000 A 
ATOM      9  C   UNL     1       0.300   9.996  20.117  0.00  0.00    +0.000 A 
ATOM     10  N   UNL     1       0.290  10.200  18.769  0.00  0.00    +0.000 NA
ATOM     11  N   UNL     1       1.145   9.348  18.220  0.00  0.00    +0.000 NA
BRANCH   9  12
ATOM     12  C   UNL     1      -0.518  10.738  21.090  0.00  0.00    +0.000 A 
ATOM     13  C   UNL     1      -1.320  11.834  20.865  0.00  0.00    +0.000 A 
ATOM     14  N   UNL     1      -1.940  12.233  22.022  0.00  0.00    +0.000 NA
ATOM     15  C   UNL     1      -1.514  11.400  22.945  0.00  0.00    +0.000 A 
ATOM     16  N   UNL     1      -0.638  10.486  22.431  0.00  0.00    +0.000 N 
ATOM     17  C   UNL     1       0.057   9.469  23.181  0.00  0.00    +0.000 C 
ENDBRANCH   9  12
ENDBRANCH   5   7
BRANCH   1  19
ATOM     18  N   UNL     1       5.157   4.962  15.759  0.00  0.00    +0.000 N 
ATOM     19  C   UNL     1       4.860   6.245  16.193  0.00  0.00    +0.000 C 
ATOM     20  O   UNL     1       5.109   7.284  15.584  0.00  0.00    +0.000 OA
ATOM     21  H   UNL     1       4.722   4.185  16.238  0.00  0.00    +0.000 HD
BRANCH  18  26
ATOM     22  C   UNL     1       6.065   3.465  12.466  0.00  0.00    +0.000 A 
ATOM     23  C   UNL     1       7.305   4.071  12.220  0.00  0.00    +0.000 A 
ATOM     24  C   UNL     1       7.843   4.952  13.147  0.00  0.00    +0.000 A 
ATOM     25  C   UNL     1       7.144   5.236  14.318  0.00  0.00    +0.000 A 
ATOM     26  C   UNL     1       5.892   4.668  14.580  0.00  0.00    +0.000 A 
ATOM     27  C   UNL     1       5.359   3.767  13.648  0.00  0.00    +0.000 A 
BRANCH  22  28
ATOM     28  C   UNL     1       5.483   2.496  11.496  0.00  0.00    +0.000 C 
ATOM     29  O   UNL     1       4.311   2.492  11.157  0.00  0.00    +0.000 OA
BRANCH  28  31
ATOM     30  C   UNL     1       6.114   0.244  11.247  0.00  0.00    +0.000 C 
ATOM     31  O   UNL     1       6.438   1.625  11.082  0.00  0.00    +0.000 OA
ENDBRANCH  28  31
ENDBRANCH  22  28
ENDBRANCH  18  26
ENDBRANCH   1  19
TORSDOF 6
ENDMDL
MODEL 5
REMARK VINA RESULT:      -7.9      2.982      4.298
REMARK  Name = 
REMARK  8 active torsions:
REMARK  status: ('A' for Active; 'I' for Inactive)
REMARK    1  A    between atoms: C_1  and  O_2
REMARK    2  A    between atoms: O_2  and  C_3
REMARK    3  A    between atoms: C_3  and  C_5
REMARK    4  A    between atoms: C_9  and  N_10
REMARK    5  A    between atoms: C_11  and  C_13
REMARK    6  A    between atoms: C_17  and  N_18
REMARK    7  A    between atoms: C_20  and  C_21
REMARK    8  A    between atoms: N_25  and  C_26
REMARK                            x       y       z     vdW  Elec       q    Type
REMARK                         _______ _______ _______ _____ _____    ______ ____
ROOT
ATOM      1  C   UNL     1       1.309   8.285  20.544  0.00  0.00    +0.000 A 
ATOM      2  C   UNL     1       0.512   8.181  21.695  0.00  0.00    +0.000 A 
ATOM      3  C   UNL     1      -0.188   9.280  22.178  0.00  0.00    +0.000 A 
ATOM      4  C   UNL     1      -0.112  10.492  21.503  0.00  0.00    +0.000 A 
ATOM      5  C   UNL     1       0.657  10.602  20.333  0.00  0.00    +0.000 A 
ATOM      6  C   UNL     1       1.385   9.496  19.853  0.00  0.00    +0.000 A 
ENDROOT
BRANCH   5   7
ATOM      7  N   UNL     1       0.653  11.816  19.604  0.00  0.00    +0.000 N 
ATOM      8  C   UNL     1       1.473  12.906  19.765  0.00  0.00    +0.000 A 
ATOM      9  C   UNL     1       0.986  13.837  18.887  0.00  0.00    +0.000 A 
ATOM     10  N   UNL     1      -0.065  13.309  18.198  0.00  0.00    +0.000 NA
ATOM     11  N   UNL     1      -0.252  12.068  18.626  0.00  0.00    +0.000 NA
BRANCH   9  12
ATOM     12  C   UNL     1       1.512  15.201  18.712  0.00  0.00    +0.000 A 
ATOM     13  C   UNL     1       2.746  15.581  18.233  0.00  0.00    +0.000 A 
ATOM     14  N   UNL     1       2.859  16.948  18.202  0.00  0.00    +0.000 NA
ATOM     15  C   UNL     1       1.715  17.398  18.667  0.00  0.00    +0.000 A 
ATOM     16  N   UNL     1       0.873  16.376  19.005  0.00  0.00    +0.000 N 
ATOM     17  C   UNL     1      -0.434  16.521  19.597  0.00  0.00    +0.000 C 
ENDBRANCH   9  12
ENDBRANCH   5   7
BRANCH   1  19
ATOM     18  N   UNL     1       2.638   7.079  18.856  0.00  0.00    +0.000 N 
ATOM     19  C   UNL     1       1.932   7.033  20.049  0.00  0.00    +0.000 C 
ATOM     20  O   UNL     1       1.811   6.048  20.774  0.00  0.00    +0.000 OA
ATOM     21  H   UNL     1       2.841   7.986  18.457  0.00  0.00    +0.000 HD
BRANCH  18  26
ATOM     22  C   UNL     1       5.269   4.804  17.509  0.00  0.00    +0.000 A 
ATOM     23  C   UNL     1       4.496   3.726  17.058  0.00  0.00    +0.000 A 
ATOM     24  C   UNL     1       3.114   3.762  17.181  0.00  0.00    +0.000 A 
ATOM     25  C   UNL     1       2.500   4.870  17.760  0.00  0.00    +0.000 A 
ATOM     26  C   UNL     1       3.246   5.951  18.245  0.00  0.00    +0.000 A 
ATOM     27  C   UNL     1       4.640   5.917  18.105  0.00  0.00    +0.000 A 
BRANCH  22  28
ATOM     28  C   UNL     1       6.751   4.795  17.362  0.00  0.00    +0.000 C 
ATOM     29  O   UNL     1       7.330   4.929  16.296  0.00  0.00    +0.000 OA
BRANCH  28  31
ATOM     30  C   UNL     1       7.940   5.747  19.154  0.00  0.00    +0.000 C 
ATOM     31  O   UNL     1       7.335   4.593  18.570  0.00  0.00    +0.000 OA
ENDBRANCH  28  31
ENDBRANCH  22  28
ENDBRANCH  18  26
ENDBRANCH   1  19
TORSDOF 6
ENDMDL
MODEL 6
REMARK VINA RESULT:      -7.7      0.806      1.384
REMARK  Name = 
REMARK  8 active torsions:
REMARK  status: ('A' for Active; 'I' for Inactive)
REMARK    1  A    between atoms: C_1  and  O_2
REMARK    2  A    between atoms: O_2  and  C_3
REMARK    3  A    between atoms: C_3  and  C_5
REMARK    4  A    between atoms: C_9  and  N_10
REMARK    5  A    between atoms: C_11  and  C_13
REMARK    6  A    between atoms: C_17  and  N_18
REMARK    7  A    between atoms: C_20  and  C_21
REMARK    8  A    between atoms: N_25  and  C_26
REMARK                            x       y       z     vdW  Elec       q    Type
REMARK                         _______ _______ _______ _____ _____    ______ ____
ROOT
ATOM      1  C   UNL     1       1.772   9.052  18.915  0.00  0.00    +0.000 A 
ATOM      2  C   UNL     1       2.134   9.983  17.928  0.00  0.00    +0.000 A 
ATOM      3  C   UNL     1       1.744  11.313  18.026  0.00  0.00    +0.000 A 
ATOM      4  C   UNL     1       1.002  11.730  19.123  0.00  0.00    +0.000 A 
ATOM      5  C   UNL     1       0.658  10.816  20.133  0.00  0.00    +0.000 A 
ATOM      6  C   UNL     1       1.034   9.463  20.026  0.00  0.00    +0.000 A 
ENDROOT
BRANCH   5   7
ATOM      7  N   UNL     1      -0.019  11.272  21.290  0.00  0.00    +0.000 N 
ATOM      8  C   UNL     1      -0.602  12.497  21.504  0.00  0.00    +0.000 A 
ATOM      9  C   UNL     1      -1.021  12.456  22.807  0.00  0.00    +0.000 A 
ATOM     10  N   UNL     1      -0.733  11.236  23.342  0.00  0.00    +0.000 NA
ATOM     11  N   UNL     1      -0.139  10.509  22.405  0.00  0.00    +0.000 NA
BRANCH   9  12
ATOM     12  C   UNL     1      -1.679  13.560  23.526  0.00  0.00    +0.000 A 
ATOM     13  C   UNL     1      -1.142  14.773  23.894  0.00  0.00    +0.000 A 
ATOM     14  N   UNL     1      -2.076  15.548  24.535  0.00  0.00    +0.000 NA
ATOM     15  C   UNL     1      -3.165  14.814  24.571  0.00  0.00    +0.000 A 
ATOM     16  N   UNL     1      -2.968  13.594  23.986  0.00  0.00    +0.000 N 
ATOM     17  C   UNL     1      -3.939  12.530  23.907  0.00  0.00    +0.000 C 
ENDBRANCH   9  12
ENDBRANCH   5   7
BRANCH   1  19
ATOM     18  N   UNL     1       3.135   7.411  17.682  0.00  0.00    +0.000 N 
ATOM     19  C   UNL     1       2.325   7.683  18.774  0.00  0.00    +0.000 C 
ATOM     20  O   UNL     1       2.056   6.897  19.681  0.00  0.00    +0.000 OA
ATOM     21  H   UNL     1       3.450   8.189  17.117  0.00  0.00    +0.000 HD
BRANCH  18  26
ATOM     22  C   UNL     1       5.411   4.802  16.298  0.00  0.00    +0.000 A 
ATOM     23  C   UNL     1       4.850   3.634  16.831  0.00  0.00    +0.000 A 
ATOM     24  C   UNL     1       3.714   3.710  17.626  0.00  0.00    +0.000 A 
ATOM     25  C   UNL     1       3.141   4.951  17.896  0.00  0.00    +0.000 A 
ATOM     26  C   UNL     1       3.695   6.137  17.399  0.00  0.00    +0.000 A 
ATOM     27  C   UNL     1       4.832   6.054  16.585  0.00  0.00    +0.000 A 
BRANCH  22  28
ATOM     28  C   UNL     1       6.614   4.739  15.420  0.00  0.00    +0.000 C 
ATOM     29  O   UNL     1       7.504   5.573  15.423  0.00  0.00    +0.000 OA
BRANCH  28  31
ATOM     30  C   UNL     1       5.999   3.875  13.321  0.00  0.00    +0.000 C 
ATOM     31  O   UNL     1       6.546   3.645  14.620  0.00  0.00    +0.000 OA
ENDBRANCH  28  31
ENDBRANCH  22  28
ENDBRANCH  18  26
ENDBRANCH   1  19
TORSDOF 6
ENDMDL
MODEL 7
REMARK VINA RESULT:      -7.7      2.976      4.058
REMARK  Name = 
REMARK  8 active torsions:
REMARK  status: ('A' for Active; 'I' for Inactive)
REMARK    1  A    between atoms: C_1  and  O_2
REMARK    2  A    between atoms: O_2  and  C_3
REMARK    3  A    between atoms: C_3  and  C_5
REMARK    4  A    between atoms: C_9  and  N_10
REMARK    5  A    between atoms: C_11  and  C_13
REMARK    6  A    between atoms: C_17  and  N_18
REMARK    7  A    between atoms: C_20  and  C_21
REMARK    8  A    between atoms: N_25  and  C_26
REMARK                            x       y       z     vdW  Elec       q    Type
REMARK                         _______ _______ _______ _____ _____    ______ ____
ROOT
ATOM      1  C   UNL     1       1.197   8.669  20.578  0.00  0.00    +0.000 A 
ATOM      2  C   UNL     1       0.456   8.541  21.764  0.00  0.00    +0.000 A 
ATOM      3  C   UNL     1      -0.244   9.622  22.287  0.00  0.00    +0.000 A 
ATOM      4  C   UNL     1      -0.224  10.839  21.619  0.00  0.00    +0.000 A 
ATOM      5  C   UNL     1       0.489  10.974  20.415  0.00  0.00    +0.000 A 
ATOM      6  C   UNL     1       1.215   9.886  19.894  0.00  0.00    +0.000 A 
ENDROOT
BRANCH   5   7
ATOM      7  N   UNL     1       0.426  12.192  19.696  0.00  0.00    +0.000 N 
ATOM      8  C   UNL     1       1.150  13.340  19.909  0.00  0.00    +0.000 A 
ATOM      9  C   UNL     1       0.637  14.241  19.013  0.00  0.00    +0.000 A 
ATOM     10  N   UNL     1      -0.333  13.641  18.267  0.00  0.00    +0.000 NA
ATOM     11  N   UNL     1      -0.445  12.384  18.675  0.00  0.00    +0.000 NA
BRANCH   9  12
ATOM     12  C   UNL     1       1.062  15.644  18.877  0.00  0.00    +0.000 A 
ATOM     13  C   UNL     1       2.261  16.125  18.400  0.00  0.00    +0.000 A 
ATOM     14  N   UNL     1       2.276  17.497  18.410  0.00  0.00    +0.000 NA
ATOM     15  C   UNL     1       1.109  17.850  18.898  0.00  0.00    +0.000 A 
ATOM     16  N   UNL     1       0.344  16.761  19.210  0.00  0.00    +0.000 N 
ATOM     17  C   UNL     1      -0.964  16.794  19.816  0.00  0.00    +0.000 C 
ENDBRANCH   9  12
ENDBRANCH   5   7
BRANCH   1  19
ATOM     18  N   UNL     1       2.449   7.496  18.811  0.00  0.00    +0.000 N 
ATOM     19  C   UNL     1       1.821   7.434  20.046  0.00  0.00    +0.000 C 
ATOM     20  O   UNL     1       1.773   6.448  20.778  0.00  0.00    +0.000 OA
ATOM     21  H   UNL     1       2.602   8.407  18.399  0.00  0.00    +0.000 HD
BRANCH  18  26
ATOM     22  C   UNL     1       4.919   5.448  16.911  0.00  0.00    +0.000 A 
ATOM     23  C   UNL     1       4.283   4.200  16.886  0.00  0.00    +0.000 A 
ATOM     24  C   UNL     1       3.036   4.044  17.476  0.00  0.00    +0.000 A 
ATOM     25  C   UNL     1       2.426   5.131  18.099  0.00  0.00    +0.000 A 
ATOM     26  C   UNL     1       3.048   6.383  18.163  0.00  0.00    +0.000 A 
ATOM     27  C   UNL     1       4.300   6.540  17.552  0.00  0.00    +0.000 A 
BRANCH  22  28
ATOM     28  C   UNL     1       6.245   5.642  16.259  0.00  0.00    +0.000 C 
ATOM     29  O   UNL     1       7.294   5.762  16.871  0.00  0.00    +0.000 OA
BRANCH  28  31
ATOM     30  C   UNL     1       6.940   4.804  14.174  0.00  0.00    +0.000 C 
ATOM     31  O   UNL     1       6.096   5.688  14.911  0.00  0.00    +0.000 OA
ENDBRANCH  28  31
ENDBRANCH  22  28
ENDBRANCH  18  26
ENDBRANCH   1  19
TORSDOF 6
ENDMDL
MODEL 8
REMARK VINA RESULT:      -7.7      2.172      2.960
REMARK  Name = 
REMARK  8 active torsions:
REMARK  status: ('A' for Active; 'I' for Inactive)
REMARK    1  A    between atoms: C_1  and  O_2
REMARK    2  A    between atoms: O_2  and  C_3
REMARK    3  A    between atoms: C_3  and  C_5
REMARK    4  A    between atoms: C_9  and  N_10
REMARK    5  A    between atoms: C_11  and  C_13
REMARK    6  A    between atoms: C_17  and  N_18
REMARK    7  A    between atoms: C_20  and  C_21
REMARK    8  A    between atoms: N_25  and  C_26
REMARK                            x       y       z     vdW  Elec       q    Type
REMARK                         _______ _______ _______ _____ _____    ______ ____
ROOT
ATOM      1  C   UNL     1       1.017   8.976  20.718  0.00  0.00    +0.000 A 
ATOM      2  C   UNL     1       1.179   8.730  22.091  0.00  0.00    +0.000 A 
ATOM      3  C   UNL     1       0.466   9.461  23.033  0.00  0.00    +0.000 A 
ATOM      4  C   UNL     1      -0.430  10.435  22.612  0.00  0.00    +0.000 A 
ATOM      5  C   UNL     1      -0.625  10.671  21.241  0.00  0.00    +0.000 A 
ATOM      6  C   UNL     1       0.111   9.946  20.283  0.00  0.00    +0.000 A 
ENDROOT
BRANCH   5   7
ATOM      7  N   UNL     1      -1.607  11.600  20.822  0.00  0.00    +0.000 N 
ATOM      8  C   UNL     1      -2.336  12.470  21.596  0.00  0.00    +0.000 A 
ATOM      9  C   UNL     1      -3.208  13.061  20.721  0.00  0.00    +0.000 A 
ATOM     10  N   UNL     1      -2.984  12.588  19.463  0.00  0.00    +0.000 NA
ATOM     11  N   UNL     1      -1.992  11.710  19.526  0.00  0.00    +0.000 NA
BRANCH   9  12
ATOM     12  C   UNL     1      -4.235  14.053  21.081  0.00  0.00    +0.000 A 
ATOM     13  C   UNL     1      -4.096  15.419  21.186  0.00  0.00    +0.000 A 
ATOM     14  N   UNL     1      -5.289  16.007  21.526  0.00  0.00    +0.000 NA
ATOM     15  C   UNL     1      -6.141  15.014  21.640  0.00  0.00    +0.000 A 
ATOM     16  N   UNL     1      -5.545  13.809  21.395  0.00  0.00    +0.000 N 
ATOM     17  C   UNL     1      -6.181  12.518  21.491  0.00  0.00    +0.000 C 
ENDBRANCH   9  12
ENDBRANCH   5   7
BRANCH   1  19
ATOM     18  N   UNL     1       1.986   6.772  20.198  0.00  0.00    +0.000 N 
ATOM     19  C   UNL     1       1.740   8.074  19.789  0.00  0.00    +0.000 C 
ATOM     20  O   UNL     1       2.026   8.547  18.691  0.00  0.00    +0.000 OA
ATOM     21  H   UNL     1       1.524   6.440  21.035  0.00  0.00    +0.000 HD
BRANCH  18  26
ATOM     22  C   UNL     1       4.839   4.867  18.735  0.00  0.00    +0.000 A 
ATOM     23  C   UNL     1       4.166   3.925  17.946  0.00  0.00    +0.000 A 
ATOM     24  C   UNL     1       2.779   3.934  17.883  0.00  0.00    +0.000 A 
ATOM     25  C   UNL     1       2.061   4.879  18.614  0.00  0.00    +0.000 A 
ATOM     26  C   UNL     1       2.704   5.816  19.431  0.00  0.00    +0.000 A 
ATOM     27  C   UNL     1       4.104   5.812  19.479  0.00  0.00    +0.000 A 
BRANCH  22  28
ATOM     28  C   UNL     1       6.327   4.890  18.793  0.00  0.00    +0.000 C 
ATOM     29  O   UNL     1       6.966   5.133  19.804  0.00  0.00    +0.000 OA
BRANCH  28  31
ATOM     30  C   UNL     1       7.079   5.780  16.750  0.00  0.00    +0.000 C 
ATOM     31  O   UNL     1       6.843   4.631  17.565  0.00  0.00    +0.000 OA
ENDBRANCH  28  31
ENDBRANCH  22  28
ENDBRANCH  18  26
ENDBRANCH   1  19
TORSDOF 6
ENDMDL
MODEL 9
REMARK VINA RESULT:      -7.7      2.738      5.285
REMARK  Name = 
REMARK  8 active torsions:
REMARK  status: ('A' for Active; 'I' for Inactive)
REMARK    1  A    between atoms: C_1  and  O_2
REMARK    2  A    between atoms: O_2  and  C_3
REMARK    3  A    between atoms: C_3  and  C_5
REMARK    4  A    between atoms: C_9  and  N_10
REMARK    5  A    between atoms: C_11  and  C_13
REMARK    6  A    between atoms: C_17  and  N_18
REMARK    7  A    between atoms: C_20  and  C_21
REMARK    8  A    between atoms: N_25  and  C_26
REMARK                            x       y       z     vdW  Elec       q    Type
REMARK                         _______ _______ _______ _____ _____    ______ ____
ROOT
ATOM      1  C   UNL     1       4.152   5.301  17.830  0.00  0.00    +0.000 A 
ATOM      2  C   UNL     1       3.905   4.518  18.969  0.00  0.00    +0.000 A 
ATOM      3  C   UNL     1       3.126   5.005  20.012  0.00  0.00    +0.000 A 
ATOM      4  C   UNL     1       2.571   6.275  19.919  0.00  0.00    +0.000 A 
ATOM      5  C   UNL     1       2.786   7.058  18.772  0.00  0.00    +0.000 A 
ATOM      6  C   UNL     1       3.591   6.575  17.722  0.00  0.00    +0.000 A 
ENDROOT
BRANCH   5   7
ATOM      7  N   UNL     1       2.140   8.312  18.649  0.00  0.00    +0.000 N 
ATOM      8  C   UNL     1       1.073   8.790  19.369  0.00  0.00    +0.000 A 
ATOM      9  C   UNL     1       0.780   9.996  18.789  0.00  0.00    +0.000 A 
ATOM     10  N   UNL     1       1.663  10.246  17.782  0.00  0.00    +0.000 NA
ATOM     11  N   UNL     1       2.504   9.223  17.713  0.00  0.00    +0.000 NA
BRANCH   9  12
ATOM     12  C   UNL     1      -0.323  10.887  19.187  0.00  0.00    +0.000 A 
ATOM     13  C   UNL     1      -1.365  11.347  18.413  0.00  0.00    +0.000 A 
ATOM     14  N   UNL     1      -2.205  12.145  19.147  0.00  0.00    +0.000 NA
ATOM     15  C   UNL     1      -1.678  12.184  20.350  0.00  0.00    +0.000 A 
ATOM     16  N   UNL     1      -0.527  11.450  20.419  0.00  0.00    +0.000 N 
ATOM     17  C   UNL     1       0.328  11.328  21.573  0.00  0.00    +0.000 C 
ENDBRANCH   9  12
ENDBRANCH   5   7
BRANCH   1  19
ATOM     18  N   UNL     1       5.201   5.411  15.604  0.00  0.00    +0.000 N 
ATOM     19  C   UNL     1       4.905   4.655  16.728  0.00  0.00    +0.000 C 
ATOM     20  O   UNL     1       5.258   3.494  16.925  0.00  0.00    +0.000 OA
ATOM     21  H   UNL     1       5.040   6.409  15.644  0.00  0.00    +0.000 HD
BRANCH  18  26
ATOM     22  C   UNL     1       5.861   3.502  12.469  0.00  0.00    +0.000 A 
ATOM     23  C   UNL     1       7.168   3.909  12.168  0.00  0.00    +0.000 A 
ATOM     24  C   UNL     1       7.831   4.792  13.009  0.00  0.00    +0.000 A 
ATOM     25  C   UNL     1       7.191   5.277  14.147  0.00  0.00    +0.000 A 
ATOM     26  C   UNL     1       5.876   4.910  14.459  0.00  0.00    +0.000 A 
ATOM     27  C   UNL     1       5.216   4.006  13.616  0.00  0.00    +0.000 A 
BRANCH  22  28
ATOM     28  C   UNL     1       5.142   2.535  11.593  0.00  0.00    +0.000 C 
ATOM     29  O   UNL     1       5.669   1.564  11.075  0.00  0.00    +0.000 OA
BRANCH  28  31
ATOM     30  C   UNL     1       3.553   3.626  10.246  0.00  0.00    +0.000 C 
ATOM     31  O   UNL     1       3.847   2.915  11.448  0.00  0.00    +0.000 OA
ENDBRANCH  28  31
ENDBRANCH  22  28
ENDBRANCH  18  26
ENDBRANCH   1  19
TORSDOF 6
ENDMDL
