MODEL 1
REMARK VINA RESULT:      -7.6      0.000      0.000
REMARK  Name = 
REMARK  5 active torsions:
REMARK  status: ('A' for Active; 'I' for Inactive)
REMARK    1  A    between atoms: C_1  and  C_2
REMARK    2  A    between atoms: C_7  and  N_8
REMARK    3  A    between atoms: C_9  and  C_11
REMARK    4  A    between atoms: C_11  and  N_12
REMARK    5  A    between atoms: C_14  and  C_15
REMARK                            x       y       z     vdW  Elec       q    Type
REMARK                         _______ _______ _______ _____ _____    ______ ____
ROOT
ATOM      1  N   UNL     1       2.635   7.203  18.151  0.00  0.00    +0.000 N 
ATOM      2  C   UNL     1       2.052   8.267  18.795  0.00  0.00    +0.000 C 
ATOM      3  O   UNL     1       1.821   8.244  20.005  0.00  0.00    +0.000 OA
ATOM      4  H   UNL     1       2.756   7.281  17.137  0.00  0.00    +0.000 HD
ENDROOT
BRANCH   1  11
ATOM      5  C   UNL     1       7.228   4.659  15.712  0.00  0.00    +0.000 C 
ATOM      6  C   UNL     1       5.954   4.720  16.479  0.00  0.00    +0.000 A 
ATOM      7  N   UNL     1       4.959   3.871  16.331  0.00  0.00    +0.000 NA
ATOM      8  C   UNL     1       3.910   4.250  17.144  0.00  0.00    +0.000 A 
ATOM      9  C   UNL     1       4.130   5.378  17.909  0.00  0.00    +0.000 A 
ATOM     10  S   UNL     1       5.701   5.976  17.631  0.00  0.00    +0.000 S 
ATOM     11  C   UNL     1       3.130   6.019  18.819  0.00  0.00    +0.000 C 
ATOM     12  C   UNL     1       1.981   5.021  19.106  0.00  0.00    +0.000 C 
ATOM     13  C   UNL     1       1.508   4.274  17.840  0.00  0.00    +0.000 C 
ATOM     14  C   UNL     1       2.640   3.470  17.178  0.00  0.00    +0.000 C 
ENDBRANCH   1  11
BRANCH   2  15
ATOM     15  C   UNL     1       1.614   9.442  17.932  0.00  0.00    +0.000 C 
BRANCH  15  16
ATOM     16  N   UNL     1       0.288   9.929  18.253  0.00  0.00    +0.000 N 
ATOM     17  N   UNL     1      -0.792   9.458  17.570  0.00  0.00    +0.000 NA
ATOM     18  C   UNL     1      -1.788  10.275  17.947  0.00  0.00    +0.000 A 
ATOM     19  C   UNL     1      -3.137  10.135  17.350  0.00  0.00    +0.000 C 
ATOM     20  C   UNL     1      -1.368  11.208  18.929  0.00  0.00    +0.000 A 
ATOM     21  C   UNL     1      -1.937  12.267  19.651  0.00  0.00    +0.000 A 
ATOM     22  C   UNL     1      -1.128  12.909  20.588  0.00  0.00    +0.000 A 
ATOM     23  C   UNL     1       0.183  12.478  20.758  0.00  0.00    +0.000 A 
ATOM     24  N   UNL     1       0.790  11.494  20.054  0.00  0.00    +0.000 NA
ATOM     25  C   UNL     1      -0.032  10.909  19.158  0.00  0.00    +0.000 A 
ENDBRANCH  15  16
ENDBRANCH   2  15
TORSDOF 3
ENDMDL
MODEL 2
REMARK VINA RESULT:      -7.4      0.629      2.110
REMARK  Name = 
REMARK  5 active torsions:
REMARK  status: ('A' for Active; 'I' for Inactive)
REMARK    1  A    between atoms: C_1  and  C_2
REMARK    2  A    between atoms: C_7  and  N_8
REMARK    3  A    between atoms: C_9  and  C_11
REMARK    4  A    between atoms: C_11  and  N_12
REMARK    5  A    between atoms: C_14  and  C_15
REMARK                            x       y       z     vdW  Elec       q    Type
REMARK                         _______ _______ _______ _____ _____    ______ ____
ROOT
ATOM      1  N   UNL     1       2.505   7.087  18.168  0.00  0.00    +0.000 N 
ATOM      2  C   UNL     1       1.963   8.210  18.744  0.00  0.00    +0.000 C 
ATOM      3  O   UNL     1       1.736   8.272  19.953  0.00  0.00    +0.000 OA
ATOM      4  H   UNL     1       2.625   7.095  17.150  0.00  0.00    +0.000 HD
ENDROOT
BRANCH   1  11
ATOM      5  C   UNL     1       7.296   4.525  16.170  0.00  0.00    +0.000 C 
ATOM      6  C   UNL     1       5.967   4.593  16.834  0.00  0.00    +0.000 A 
ATOM      7  N   UNL     1       4.994   3.728  16.638  0.00  0.00    +0.000 NA
ATOM      8  C   UNL     1       3.882   4.119  17.356  0.00  0.00    +0.000 A 
ATOM      9  C   UNL     1       4.032   5.273  18.098  0.00  0.00    +0.000 A 
ATOM     10  S   UNL     1       5.614   5.882  17.923  0.00  0.00    +0.000 S 
ATOM     11  C   UNL     1       2.959   5.930  18.909  0.00  0.00    +0.000 C 
ATOM     12  C   UNL     1       1.801   4.928  19.139  0.00  0.00    +0.000 C 
ATOM     13  C   UNL     1       1.434   4.136  17.865  0.00  0.00    +0.000 C 
ATOM     14  C   UNL     1       2.621   3.326  17.317  0.00  0.00    +0.000 C 
ENDBRANCH   1  11
BRANCH   2  15
ATOM     15  C   UNL     1       1.566   9.343  17.807  0.00  0.00    +0.000 C 
BRANCH  15  16
ATOM     16  N   UNL     1       0.778  10.373  18.454  0.00  0.00    +0.000 N 
ATOM     17  N   UNL     1       1.354  11.186  19.383  0.00  0.00    +0.000 NA
ATOM     18  C   UNL     1       0.314  11.833  19.929  0.00  0.00    +0.000 A 
ATOM     19  C   UNL     1       0.524  12.770  21.058  0.00  0.00    +0.000 C 
ATOM     20  C   UNL     1      -0.911  11.501  19.296  0.00  0.00    +0.000 A 
ATOM     21  C   UNL     1      -2.266  11.835  19.439  0.00  0.00    +0.000 A 
ATOM     22  C   UNL     1      -3.161  11.279  18.524  0.00  0.00    +0.000 A 
ATOM     23  C   UNL     1      -2.676  10.433  17.533  0.00  0.00    +0.000 A 
ATOM     24  N   UNL     1      -1.388  10.045  17.384  0.00  0.00    +0.000 NA
ATOM     25  C   UNL     1      -0.564  10.604  18.294  0.00  0.00    +0.000 A 
ENDBRANCH  15  16
ENDBRANCH   2  15
TORSDOF 3
ENDMDL
MODEL 3
REMARK VINA RESULT:      -7.3      1.405      1.860
REMARK  Name = 
REMARK  5 active torsions:
REMARK  status: ('A' for Active; 'I' for Inactive)
REMARK    1  A    between atoms: C_1  and  C_2
REMARK    2  A    between atoms: C_7  and  N_8
REMARK    3  A    between atoms: C_9  and  C_11
REMARK    4  A    between atoms: C_11  and  N_12
REMARK    5  A    between atoms: C_14  and  C_15
REMARK                            x       y       z     vdW  Elec       q    Type
REMARK                         _______ _______ _______ _____ _____    ______ ____
ROOT
ATOM      1  N   UNL     1       2.473   7.093  18.151  0.00  0.00    +0.000 N 
ATOM      2  C   UNL     1       1.971   8.206  18.780  0.00  0.00    +0.000 C 
ATOM      3  O   UNL     1       1.915   8.285  20.008  0.00  0.00    +0.000 OA
ATOM      4  H   UNL     1       2.448   7.084  17.126  0.00  0.00    +0.000 HD
ENDROOT
BRANCH   1  11
ATOM      5  C   UNL     1       7.121   4.765  15.602  0.00  0.00    +0.000 C 
ATOM      6  C   UNL     1       5.880   4.771  16.422  0.00  0.00    +0.000 A 
ATOM      7  N   UNL     1       4.939   3.853  16.351  0.00  0.00    +0.000 NA
ATOM      8  C   UNL     1       3.902   4.193  17.195  0.00  0.00    +0.000 A 
ATOM      9  C   UNL     1       4.077   5.363  17.908  0.00  0.00    +0.000 A 
ATOM     10  S   UNL     1       5.591   6.052  17.538  0.00  0.00    +0.000 S 
ATOM     11  C   UNL     1       3.076   5.971  18.838  0.00  0.00    +0.000 C 
ATOM     12  C   UNL     1       2.010   4.912  19.213  0.00  0.00    +0.000 C 
ATOM     13  C   UNL     1       1.536   4.085  17.997  0.00  0.00    +0.000 C 
ATOM     14  C   UNL     1       2.690   3.333  17.314  0.00  0.00    +0.000 C 
ENDBRANCH   1  11
BRANCH   2  15
ATOM     15  C   UNL     1       1.399   9.302  17.892  0.00  0.00    +0.000 C 
BRANCH  15  16
ATOM     16  N   UNL     1       0.922  10.452  18.633  0.00  0.00    +0.000 N 
ATOM     17  N   UNL     1      -0.225  10.362  19.362  0.00  0.00    +0.000 NA
ATOM     18  C   UNL     1      -0.487  11.633  19.705  0.00  0.00    +0.000 A 
ATOM     19  C   UNL     1      -1.720  11.968  20.453  0.00  0.00    +0.000 C 
ATOM     20  C   UNL     1       0.532  12.520  19.271  0.00  0.00    +0.000 A 
ATOM     21  C   UNL     1       0.785  13.898  19.323  0.00  0.00    +0.000 A 
ATOM     22  C   UNL     1       1.989  14.348  18.782  0.00  0.00    +0.000 A 
ATOM     23  C   UNL     1       2.866  13.424  18.224  0.00  0.00    +0.000 A 
ATOM     24  N   UNL     1       2.646  12.094  18.108  0.00  0.00    +0.000 NA
ATOM     25  C   UNL     1       1.467  11.710  18.641  0.00  0.00    +0.000 A 
ENDBRANCH  15  16
ENDBRANCH   2  15
TORSDOF 3
ENDMDL
MODEL 4
REMARK VINA RESULT:      -7.1      3.107      8.320
REMARK  Name = 
REMARK  5 active torsions:
REMARK  status: ('A' for Active; 'I' for Inactive)
REMARK    1  A    between atoms: C_1  and  C_2
REMARK    2  A    between atoms: C_7  and  N_8
REMARK    3  A    between atoms: C_9  and  C_11
REMARK    4  A    between atoms: C_11  and  N_12
REMARK    5  A    between atoms: C_14  and  C_15
REMARK                            x       y       z     vdW  Elec       q    Type
REMARK                         _______ _______ _______ _____ _____    ______ ____
ROOT
ATOM      1  N   UNL     1       0.511   9.609  20.549  0.00  0.00    +0.000 N 
ATOM      2  C   UNL     1       1.109   8.858  21.531  0.00  0.00    +0.000 C 
ATOM      3  O   UNL     1       1.819   9.372  22.397  0.00  0.00    +0.000 OA
ATOM      4  H   UNL     1      -0.029   9.105  19.839  0.00  0.00    +0.000 HD
ENDROOT
BRANCH   1  11
ATOM      5  C   UNL     1      -3.491  12.387  23.677  0.00  0.00    +0.000 C 
ATOM      6  C   UNL     1      -2.558  12.181  22.537  0.00  0.00    +0.000 A 
ATOM      7  N   UNL     1      -2.859  12.424  21.278  0.00  0.00    +0.000 NA
ATOM      8  C   UNL     1      -1.796  12.066  20.475  0.00  0.00    +0.000 A 
ATOM      9  C   UNL     1      -0.694  11.564  21.139  0.00  0.00    +0.000 A 
ATOM     10  S   UNL     1      -0.975  11.562  22.820  0.00  0.00    +0.000 S 
ATOM     11  C   UNL     1       0.553  11.054  20.490  0.00  0.00    +0.000 C 
ATOM     12  C   UNL     1       0.610  11.548  19.023  0.00  0.00    +0.000 C 
ATOM     13  C   UNL     1      -0.748  11.424  18.297  0.00  0.00    +0.000 C 
ATOM     14  C   UNL     1      -1.859  12.226  18.995  0.00  0.00    +0.000 C 
ENDBRANCH   1  11
BRANCH   2  15
ATOM     15  C   UNL     1       0.936   7.348  21.447  0.00  0.00    +0.000 C 
BRANCH  15  16
ATOM     16  N   UNL     1       1.684   6.742  20.364  0.00  0.00    +0.000 N 
ATOM     17  N   UNL     1       2.520   7.506  19.606  0.00  0.00    +0.000 NA
ATOM     18  C   UNL     1       2.847   6.702  18.583  0.00  0.00    +0.000 A 
ATOM     19  C   UNL     1       3.697   7.204  17.478  0.00  0.00    +0.000 C 
ATOM     20  C   UNL     1       2.293   5.403  18.730  0.00  0.00    +0.000 A 
ATOM     21  C   UNL     1       2.281   4.204  18.004  0.00  0.00    +0.000 A 
ATOM     22  C   UNL     1       1.617   3.118  18.575  0.00  0.00    +0.000 A 
ATOM     23  C   UNL     1       1.007   3.275  19.815  0.00  0.00    +0.000 A 
ATOM     24  N   UNL     1       0.952   4.423  20.530  0.00  0.00    +0.000 NA
ATOM     25  C   UNL     1       1.604   5.443  19.934  0.00  0.00    +0.000 A 
ENDBRANCH  15  16
ENDBRANCH   2  15
TORSDOF 3
ENDMDL
MODEL 5
REMARK VINA RESULT:      -7.1      1.490      2.240
REMARK  Name = 
REMARK  5 active torsions:
REMARK  status: ('A' for Active; 'I' for Inactive)
REMARK    1  A    between atoms: C_1  and  C_2
REMARK    2  A    between atoms: C_7  and  N_8
REMARK    3  A    between atoms: C_9  and  C_11
REMARK    4  A    between atoms: C_11  and  N_12
REMARK    5  A    between atoms: C_14  and  C_15
REMARK                            x       y       z     vdW  Elec       q    Type
REMARK                         _______ _______ _______ _____ _____    ______ ____
ROOT
ATOM      1  N   UNL     1       2.424   7.205  18.138  0.00  0.00    +0.000 N 
ATOM      2  C   UNL     1       1.934   8.306  18.796  0.00  0.00    +0.000 C 
ATOM      3  O   UNL     1       1.978   8.399  20.024  0.00  0.00    +0.000 OA
ATOM      4  H   UNL     1       2.313   7.182  17.119  0.00  0.00    +0.000 HD
ENDROOT
BRANCH   1  11
ATOM      5  C   UNL     1       6.917   5.010  15.222  0.00  0.00    +0.000 C 
ATOM      6  C   UNL     1       5.752   4.983  16.146  0.00  0.00    +0.000 A 
ATOM      7  N   UNL     1       4.843   4.030  16.166  0.00  0.00    +0.000 NA
ATOM      8  C   UNL     1       3.871   4.345  17.094  0.00  0.00    +0.000 A 
ATOM      9  C   UNL     1       4.063   5.530  17.775  0.00  0.00    +0.000 A 
ATOM     10  S   UNL     1       5.513   6.268  17.269  0.00  0.00    +0.000 S 
ATOM     11  C   UNL     1       3.124   6.115  18.783  0.00  0.00    +0.000 C 
ATOM     12  C   UNL     1       2.135   5.023  19.259  0.00  0.00    +0.000 C 
ATOM     13  C   UNL     1       1.588   4.163  18.099  0.00  0.00    +0.000 C 
ATOM     14  C   UNL     1       2.707   3.444  17.327  0.00  0.00    +0.000 C 
ENDBRANCH   1  11
BRANCH   2  15
ATOM     15  C   UNL     1       1.247   9.368  17.949  0.00  0.00    +0.000 C 
BRANCH  15  16
ATOM     16  N   UNL     1       1.326  10.698  18.519  0.00  0.00    +0.000 N 
ATOM     17  N   UNL     1       2.263  11.577  18.064  0.00  0.00    +0.000 NA
ATOM     18  C   UNL     1       2.211  12.584  18.949  0.00  0.00    +0.000 A 
ATOM     19  C   UNL     1       3.152  13.723  18.843  0.00  0.00    +0.000 C 
ATOM     20  C   UNL     1       1.189  12.391  19.915  0.00  0.00    +0.000 A 
ATOM     21  C   UNL     1       0.697  13.069  21.040  0.00  0.00    +0.000 A 
ATOM     22  C   UNL     1      -0.401  12.510  21.693  0.00  0.00    +0.000 A 
ATOM     23  C   UNL     1      -0.945  11.326  21.207  0.00  0.00    +0.000 A 
ATOM     24  N   UNL     1      -0.477  10.612  20.156  0.00  0.00    +0.000 NA
ATOM     25  C   UNL     1       0.587  11.191  19.563  0.00  0.00    +0.000 A 
ENDBRANCH  15  16
ENDBRANCH   2  15
TORSDOF 3
ENDMDL
MODEL 6
REMARK VINA RESULT:      -6.8      2.279      7.791
REMARK  Name = 
REMARK  5 active torsions:
REMARK  status: ('A' for Active; 'I' for Inactive)
REMARK    1  A    between atoms: C_1  and  C_2
REMARK    2  A    between atoms: C_7  and  N_8
REMARK    3  A    between atoms: C_9  and  C_11
REMARK    4  A    between atoms: C_11  and  N_12
REMARK    5  A    between atoms: C_14  and  C_15
REMARK                            x       y       z     vdW  Elec       q    Type
REMARK                         _______ _______ _______ _____ _____    ______ ____
ROOT
ATOM      1  N   UNL     1       1.143   9.344  19.571  0.00  0.00    +0.000 N 
ATOM      2  C   UNL     1       1.793   8.469  18.737  0.00  0.00    +0.000 C 
ATOM      3  O   UNL     1       1.632   8.497  17.516  0.00  0.00    +0.000 OA
ATOM      4  H   UNL     1       1.295   9.231  20.578  0.00  0.00    +0.000 HD
ENDROOT
BRANCH   1  11
ATOM      5  C   UNL     1       3.856  14.362  18.585  0.00  0.00    +0.000 C 
ATOM      6  C   UNL     1       2.722  13.484  18.979  0.00  0.00    +0.000 A 
ATOM      7  N   UNL     1       1.943  13.700  20.018  0.00  0.00    +0.000 NA
ATOM      8  C   UNL     1       1.037  12.666  20.134  0.00  0.00    +0.000 A 
ATOM      9  C   UNL     1       1.134  11.682  19.171  0.00  0.00    +0.000 A 
ATOM     10  S   UNL     1       2.374  12.064  18.067  0.00  0.00    +0.000 S 
ATOM     11  C   UNL     1       0.308  10.435  19.116  0.00  0.00    +0.000 C 
ATOM     12  C   UNL     1      -0.935  10.601  20.025  0.00  0.00    +0.000 C 
ATOM     13  C   UNL     1      -0.598  11.248  21.386  0.00  0.00    +0.000 C 
ATOM     14  C   UNL     1       0.029  12.644  21.231  0.00  0.00    +0.000 C 
ENDBRANCH   1  11
BRANCH   2  15
ATOM     15  C   UNL     1       2.652   7.397  19.394  0.00  0.00    +0.000 C 
BRANCH  15  16
ATOM     16  N   UNL     1       2.797   6.202  18.587  0.00  0.00    +0.000 N 
ATOM     17  N   UNL     1       1.960   5.146  18.781  0.00  0.00    +0.000 NA
ATOM     18  C   UNL     1       2.517   4.161  18.059  0.00  0.00    +0.000 A 
ATOM     19  C   UNL     1       1.932   2.799  18.075  0.00  0.00    +0.000 C 
ATOM     20  C   UNL     1       3.655   4.607  17.340  0.00  0.00    +0.000 A 
ATOM     21  C   UNL     1       4.607   4.050  16.473  0.00  0.00    +0.000 A 
ATOM     22  C   UNL     1       5.568   4.910  15.942  0.00  0.00    +0.000 A 
ATOM     23  C   UNL     1       5.539   6.255  16.292  0.00  0.00    +0.000 A 
ATOM     24  N   UNL     1       4.672   6.829  17.159  0.00  0.00    +0.000 NA
ATOM     25  C   UNL     1       3.767   5.956  17.649  0.00  0.00    +0.000 A 
ENDBRANCH  15  16
ENDBRANCH   2  15
TORSDOF 3
ENDMDL
MODEL 7
REMARK VINA RESULT:      -6.8      2.324      7.787
REMARK  Name = 
REMARK  5 active torsions:
REMARK  status: ('A' for Active; 'I' for Inactive)
REMARK    1  A    between atoms: C_1  and  C_2
REMARK    2  A    between atoms: C_7  and  N_8
REMARK    3  A    between atoms: C_9  and  C_11
REMARK    4  A    between atoms: C_11  and  N_12
REMARK    5  A    between atoms: C_14  and  C_15
REMARK                            x       y       z     vdW  Elec       q    Type
REMARK                         _______ _______ _______ _____ _____    ______ ____
ROOT
ATOM      1  N   UNL     1       1.050   9.342  19.321  0.00  0.00    +0.000 N 
ATOM      2  C   UNL     1       1.820   8.381  18.713  0.00  0.00    +0.000 C 
ATOM      3  O   UNL     1       1.869   8.271  17.487  0.00  0.00    +0.000 OA
ATOM      4  H   UNL     1       1.028   9.344  20.345  0.00  0.00    +0.000 HD
ENDROOT
BRANCH   1  11
ATOM      5  C   UNL     1       3.711  14.462  18.854  0.00  0.00    +0.000 C 
ATOM      6  C   UNL     1       2.552  13.539  18.975  0.00  0.00    +0.000 A 
ATOM      7  N   UNL     1       1.515  13.748  19.759  0.00  0.00    +0.000 NA
ATOM      8  C   UNL     1       0.656  12.671  19.680  0.00  0.00    +0.000 A 
ATOM      9  C   UNL     1       1.048  11.661  18.824  0.00  0.00    +0.000 A 
ATOM     10  S   UNL     1       2.520  12.072  18.070  0.00  0.00    +0.000 S 
ATOM     11  C   UNL     1       0.321  10.371  18.611  0.00  0.00    +0.000 C 
ATOM     12  C   UNL     1      -1.125  10.500  19.150  0.00  0.00    +0.000 C 
ATOM     13  C   UNL     1      -1.191  11.210  20.520  0.00  0.00    +0.000 C 
ATOM     14  C   UNL     1      -0.606  12.631  20.472  0.00  0.00    +0.000 C 
ENDBRANCH   1  11
BRANCH   2  15
ATOM     15  C   UNL     1       2.539   7.395  19.622  0.00  0.00    +0.000 C 
BRANCH  15  16
ATOM     16  N   UNL     1       2.907   6.162  18.956  0.00  0.00    +0.000 N 
ATOM     17  N   UNL     1       3.937   6.154  18.065  0.00  0.00    +0.000 NA
ATOM     18  C   UNL     1       3.845   4.949  17.481  0.00  0.00    +0.000 A 
ATOM     19  C   UNL     1       4.760   4.580  16.376  0.00  0.00    +0.000 C 
ATOM     20  C   UNL     1       2.816   4.158  18.055  0.00  0.00    +0.000 A 
ATOM     21  C   UNL     1       2.269   2.882  17.857  0.00  0.00    +0.000 A 
ATOM     22  C   UNL     1       1.252   2.481  18.723  0.00  0.00    +0.000 A 
ATOM     23  C   UNL     1       0.834   3.352  19.723  0.00  0.00    +0.000 A 
ATOM     24  N   UNL     1       1.297   4.608  19.924  0.00  0.00    +0.000 NA
ATOM     25  C   UNL     1       2.275   4.950  19.059  0.00  0.00    +0.000 A 
ENDBRANCH  15  16
ENDBRANCH   2  15
TORSDOF 3
ENDMDL
MODEL 8
REMARK VINA RESULT:      -6.8      2.236      8.044
REMARK  Name = 
REMARK  5 active torsions:
REMARK  status: ('A' for Active; 'I' for Inactive)
REMARK    1  A    between atoms: C_1  and  C_2
REMARK    2  A    between atoms: C_7  and  N_8
REMARK    3  A    between atoms: C_9  and  C_11
REMARK    4  A    between atoms: C_11  and  N_12
REMARK    5  A    between atoms: C_14  and  C_15
REMARK                            x       y       z     vdW  Elec       q    Type
REMARK                         _______ _______ _______ _____ _____    ______ ____
ROOT
ATOM      1  N   UNL     1       1.082   9.346  19.021  0.00  0.00    +0.000 N 
ATOM      2  C   UNL     1       1.996   8.429  18.561  0.00  0.00    +0.000 C 
ATOM      3  O   UNL     1       2.404   8.449  17.399  0.00  0.00    +0.000 OA
ATOM      4  H   UNL     1       0.759   9.239  19.988  0.00  0.00    +0.000 HD
ENDROOT
BRANCH   1  11
ATOM      5  C   UNL     1       1.116  14.469  21.716  0.00  0.00    +0.000 C 
ATOM      6  C   UNL     1       0.622  13.434  20.769  0.00  0.00    +0.000 A 
ATOM      7  N   UNL     1      -0.647  13.134  20.594  0.00  0.00    +0.000 NA
ATOM      8  C   UNL     1      -0.752  12.092  19.695  0.00  0.00    +0.000 A 
ATOM      9  C   UNL     1       0.444  11.624  19.189  0.00  0.00    +0.000 A 
ATOM     10  S   UNL     1       1.742  12.522  19.829  0.00  0.00    +0.000 S 
ATOM     11  C   UNL     1       0.596  10.469  18.249  0.00  0.00    +0.000 C 
ATOM     12  C   UNL     1      -0.772  10.148  17.601  0.00  0.00    +0.000 C 
ATOM     13  C   UNL     1      -1.935  10.171  18.618  0.00  0.00    +0.000 C 
ATOM     14  C   UNL     1      -2.080  11.536  19.310  0.00  0.00    +0.000 C 
ENDBRANCH   1  11
BRANCH   2  15
ATOM     15  C   UNL     1       2.413   7.326  19.524  0.00  0.00    +0.000 C 
BRANCH  15  16
ATOM     16  N   UNL     1       2.864   6.121  18.858  0.00  0.00    +0.000 N 
ATOM     17  N   UNL     1       3.917   6.176  17.996  0.00  0.00    +0.000 NA
ATOM     18  C   UNL     1       3.904   4.974  17.400  0.00  0.00    +0.000 A 
ATOM     19  C   UNL     1       4.869   4.664  16.319  0.00  0.00    +0.000 C 
ATOM     20  C   UNL     1       2.903   4.125  17.938  0.00  0.00    +0.000 A 
ATOM     21  C   UNL     1       2.430   2.824  17.714  0.00  0.00    +0.000 A 
ATOM     22  C   UNL     1       1.411   2.362  18.547  0.00  0.00    +0.000 A 
ATOM     23  C   UNL     1       0.920   3.200  19.542  0.00  0.00    +0.000 A 
ATOM     24  N   UNL     1       1.311   4.476  19.767  0.00  0.00    +0.000 NA
ATOM     25  C   UNL     1       2.293   4.877  18.933  0.00  0.00    +0.000 A 
ENDBRANCH  15  16
ENDBRANCH   2  15
TORSDOF 3
ENDMDL
MODEL 9
REMARK VINA RESULT:      -6.8      2.333      8.234
REMARK  Name = 
REMARK  5 active torsions:
REMARK  status: ('A' for Active; 'I' for Inactive)
REMARK    1  A    between atoms: C_1  and  C_2
REMARK    2  A    between atoms: C_7  and  N_8
REMARK    3  A    between atoms: C_9  and  C_11
REMARK    4  A    between atoms: C_11  and  N_12
REMARK    5  A    between atoms: C_14  and  C_15
REMARK                            x       y       z     vdW  Elec       q    Type
REMARK                         _______ _______ _______ _____ _____    ______ ____
ROOT
ATOM      1  N   UNL     1       1.334   9.305  18.492  0.00  0.00    +0.000 N 
ATOM      2  C   UNL     1       2.125   8.202  18.703  0.00  0.00    +0.000 C 
ATOM      3  O   UNL     1       2.193   7.655  19.805  0.00  0.00    +0.000 OA
ATOM      4  H   UNL     1       1.363   9.729  17.560  0.00  0.00    +0.000 HD
ENDROOT
BRANCH   1  11
ATOM      5  C   UNL     1      -3.728  11.267  16.485  0.00  0.00    +0.000 C 
ATOM      6  C   UNL     1      -2.547  11.227  17.388  0.00  0.00    +0.000 A 
ATOM      7  N   UNL     1      -1.892  12.292  17.799  0.00  0.00    +0.000 NA
ATOM      8  C   UNL     1      -0.816  11.899  18.569  0.00  0.00    +0.000 A 
ATOM      9  C   UNL     1      -0.677  10.537  18.741  0.00  0.00    +0.000 A 
ATOM     10  S   UNL     1      -1.938   9.714  17.944  0.00  0.00    +0.000 S 
ATOM     11  C   UNL     1       0.437   9.864  19.480  0.00  0.00    +0.000 C 
ATOM     12  C   UNL     1       1.165  10.901  20.369  0.00  0.00    +0.000 C 
ATOM     13  C   UNL     1       1.416  12.241  19.642  0.00  0.00    +0.000 C 
ATOM     14  C   UNL     1       0.112  12.901  19.166  0.00  0.00    +0.000 C 
ENDBRANCH   1  11
BRANCH   2  15
ATOM     15  C   UNL     1       2.988   7.738  17.538  0.00  0.00    +0.000 C 
BRANCH  15  16
ATOM     16  N   UNL     1       3.673   6.487  17.792  0.00  0.00    +0.000 N 
ATOM     17  N   UNL     1       5.026   6.474  17.950  0.00  0.00    +0.000 NA
ATOM     18  C   UNL     1       5.337   5.168  17.925  0.00  0.00    +0.000 A 
ATOM     19  C   UNL     1       6.752   4.735  17.991  0.00  0.00    +0.000 C 
ATOM     20  C   UNL     1       4.183   4.348  17.839  0.00  0.00    +0.000 A 
ATOM     21  C   UNL     1       3.899   2.977  17.765  0.00  0.00    +0.000 A 
ATOM     22  C   UNL     1       2.556   2.602  17.739  0.00  0.00    +0.000 A 
ATOM     23  C   UNL     1       1.578   3.589  17.784  0.00  0.00    +0.000 A 
ATOM     24  N   UNL     1       1.802   4.924  17.807  0.00  0.00    +0.000 NA
ATOM     25  C   UNL     1       3.114   5.235  17.827  0.00  0.00    +0.000 A 
ENDBRANCH  15  16
ENDBRANCH   2  15
TORSDOF 3
ENDMDL
