MODEL 1
REMARK VINA RESULT:      -7.6      0.000      0.000
REMARK  Name = 
REMARK  14 active torsions:
REMARK  status: ('A' for Active; 'I' for Inactive)
REMARK    1  A    between atoms: C_1  and  C_2
REMARK    2  A    between atoms: C_2  and  N_3
REMARK    3  A    between atoms: C_2  and  C_30
REMARK    4  A    between atoms: N_3  and  C_4
REMARK    5  A    between atoms: C_5  and  C_6
REMARK    6  A    between atoms: C_14  and  C_15
REMARK    7  A    between atoms: C_18  and  O_19
REMARK    8  A    between atoms: O_19  and  C_20
REMARK    9  A    between atoms: C_20  and  C_21
REMARK   10  A    between atoms: C_21  and  C_22
REMARK   11  A    between atoms: C_22  and  N_23
REMARK   12  A    between atoms: N_23  and  C_24
REMARK   13  A    between atoms: N_23  and  C_25
REMARK   14  A    between atoms: N_33  and  C_34
REMARK                            x       y       z     vdW  Elec       q    Type
REMARK                         _______ _______ _______ _____ _____    ______ ____
ROOT
ATOM      1  C   UNL     1      -2.318  12.315  20.222  0.00  0.00    +0.000 A 
ATOM      2  C   UNL     1      -3.192  12.951  21.123  0.00  0.00    +0.000 A 
ATOM      3  N   UNL     1      -3.099  12.832  22.478  0.00  0.00    +0.000 NA
ATOM      4  N   UNL     1      -2.152  12.049  23.027  0.00  0.00    +0.000 NA
ATOM      5  C   UNL     1      -1.335  11.340  22.246  0.00  0.00    +0.000 A 
ATOM      6  C   UNL     1      -0.451  10.462  22.853  0.00  0.00    +0.000 A 
ATOM      7  C   UNL     1       0.404   9.642  22.111  0.00  0.00    +0.000 A 
ATOM      8  C   UNL     1       0.376   9.672  20.719  0.00  0.00    +0.000 A 
ATOM      9  C   UNL     1      -0.539  10.549  20.125  0.00  0.00    +0.000 A 
ATOM     10  C   UNL     1      -1.382  11.432  20.839  0.00  0.00    +0.000 A 
ENDROOT
BRANCH   8  11
ATOM     11  C   UNL     1       1.245   8.828  19.883  0.00  0.00    +0.000 A 
ATOM     12  C   UNL     1       1.567   9.164  18.562  0.00  0.00    +0.000 A 
ATOM     13  C   UNL     1       2.392   8.332  17.805  0.00  0.00    +0.000 A 
ATOM     14  C   UNL     1       2.870   7.173  18.386  0.00  0.00    +0.000 A 
ATOM     15  N   UNL     1       2.609   6.814  19.655  0.00  0.00    +0.000 NA
ATOM     16  C   UNL     1       1.810   7.641  20.366  0.00  0.00    +0.000 A 
BRANCH  14  17
ATOM     17  O   UNL     1       3.675   6.370  17.608  0.00  0.00    +0.000 OA
BRANCH  17  18
ATOM     18  C   UNL     1       3.242   5.006  17.626  0.00  0.00    +0.000 C 
BRANCH  18  19
ATOM     19  C   UNL     1       4.372   4.156  18.194  0.00  0.00    +0.000 C 
BRANCH  19  20
ATOM     20  C   UNL     1       3.824   2.844  18.759  0.00  0.00    +0.000 C 
BRANCH  20  21
ATOM     21  N   UNL     1       2.556   2.998  19.494  0.00  0.00    +0.000 NA
ATOM     22  C   UNL     1       1.528   2.068  19.022  0.00  0.00    +0.000 C 
ATOM     23  C   UNL     1       2.786   2.788  20.926  0.00  0.00    +0.000 C 
ENDBRANCH  20  21
ENDBRANCH  19  20
ENDBRANCH  18  19
ENDBRANCH  17  18
ENDBRANCH  14  17
ENDBRANCH   8  11
BRANCH   2  24
ATOM     24  C   UNL     1      -4.384  13.764  20.714  0.00  0.00    +0.000 C 
ATOM     25  N   UNL     1      -4.096  15.013  20.209  0.00  0.00    +0.000 N 
ATOM     26  O   UNL     1      -5.541  13.385  20.858  0.00  0.00    +0.000 OA
ATOM     27  H   UNL     1      -3.137  15.340  20.187  0.00  0.00    +0.000 HD
ATOM     28  H   UNL     1      -4.842  15.673  20.031  0.00  0.00    +0.000 HD
ENDBRANCH   2  24
BRANCH   1  29
ATOM     29  N   UNL     1      -2.353  12.556  18.841  0.00  0.00    +0.000 N 
ATOM     30  H   UNL     1      -1.697  13.249  18.481  0.00  0.00    +0.000 HD
BRANCH  29  32
ATOM     31  C   UNL     1      -2.421  10.419  17.665  0.00  0.00    +0.000 C 
ATOM     32  C   UNL     1      -3.116  11.785  17.833  0.00  0.00    +0.000 C 
BRANCH  32  33
ATOM     33  C   UNL     1      -4.611  11.563  18.017  0.00  0.00    +0.000 A 
ATOM     34  C   UNL     1      -5.704  12.294  17.502  0.00  0.00    +0.000 A 
ATOM     35  C   UNL     1      -6.825  11.638  17.945  0.00  0.00    +0.000 A 
ATOM     36  N   UNL     1      -6.378  10.577  18.679  0.00  0.00    +0.000 N 
ATOM     37  C   UNL     1      -7.168   9.572  19.345  0.00  0.00    +0.000 C 
ATOM     38  N   UNL     1      -5.044  10.518  18.747  0.00  0.00    +0.000 NA
ENDBRANCH  32  33
ENDBRANCH  29  32
ENDBRANCH   1  29
TORSDOF 10
ENDMDL
MODEL 2
REMARK VINA RESULT:      -7.6      1.717      2.286
REMARK  Name = 
REMARK  14 active torsions:
REMARK  status: ('A' for Active; 'I' for Inactive)
REMARK    1  A    between atoms: C_1  and  C_2
REMARK    2  A    between atoms: C_2  and  N_3
REMARK    3  A    between atoms: C_2  and  C_30
REMARK    4  A    between atoms: N_3  and  C_4
REMARK    5  A    between atoms: C_5  and  C_6
REMARK    6  A    between atoms: C_14  and  C_15
REMARK    7  A    between atoms: C_18  and  O_19
REMARK    8  A    between atoms: O_19  and  C_20
REMARK    9  A    between atoms: C_20  and  C_21
REMARK   10  A    between atoms: C_21  and  C_22
REMARK   11  A    between atoms: C_22  and  N_23
REMARK   12  A    between atoms: N_23  and  C_24
REMARK   13  A    between atoms: N_23  and  C_25
REMARK   14  A    between atoms: N_33  and  C_34
REMARK                            x       y       z     vdW  Elec       q    Type
REMARK                         _______ _______ _______ _____ _____    ______ ____
ROOT
ATOM      1  C   UNL     1      -2.051  12.011  20.339  0.00  0.00    +0.000 A 
ATOM      2  C   UNL     1      -2.945  12.621  21.238  0.00  0.00    +0.000 A 
ATOM      3  N   UNL     1      -2.903  12.436  22.588  0.00  0.00    +0.000 NA
ATOM      4  N   UNL     1      -1.992  11.609  23.132  0.00  0.00    +0.000 NA
ATOM      5  C   UNL     1      -1.160  10.921  22.346  0.00  0.00    +0.000 A 
ATOM      6  C   UNL     1      -0.316   9.998  22.942  0.00  0.00    +0.000 A 
ATOM      7  C   UNL     1       0.550   9.197  22.191  0.00  0.00    +0.000 A 
ATOM      8  C   UNL     1       0.574   9.293  20.803  0.00  0.00    +0.000 A 
ATOM      9  C   UNL     1      -0.303  10.216  20.220  0.00  0.00    +0.000 A 
ATOM     10  C   UNL     1      -1.154  11.081  20.945  0.00  0.00    +0.000 A 
ENDROOT
BRANCH   8  11
ATOM     11  C   UNL     1       1.457   8.472  19.958  0.00  0.00    +0.000 A 
ATOM     12  C   UNL     1       1.866   8.884  18.683  0.00  0.00    +0.000 A 
ATOM     13  C   UNL     1       2.701   8.072  17.916  0.00  0.00    +0.000 A 
ATOM     14  C   UNL     1       3.100   6.856  18.439  0.00  0.00    +0.000 A 
ATOM     15  N   UNL     1       2.753   6.422  19.663  0.00  0.00    +0.000 NA
ATOM     16  C   UNL     1       1.947   7.232  20.386  0.00  0.00    +0.000 A 
BRANCH  14  17
ATOM     17  O   UNL     1       3.917   6.075  17.652  0.00  0.00    +0.000 OA
BRANCH  17  18
ATOM     18  C   UNL     1       4.439   6.807  16.539  0.00  0.00    +0.000 C 
BRANCH  18  19
ATOM     19  C   UNL     1       5.838   6.281  16.238  0.00  0.00    +0.000 C 
BRANCH  19  20
ATOM     20  C   UNL     1       6.848   6.840  17.244  0.00  0.00    +0.000 C 
BRANCH  20  21
ATOM     21  N   UNL     1       7.701   5.810  17.863  0.00  0.00    +0.000 NA
ATOM     22  C   UNL     1       7.488   5.712  19.308  0.00  0.00    +0.000 C 
ATOM     23  C   UNL     1       7.437   4.510  17.239  0.00  0.00    +0.000 C 
ENDBRANCH  20  21
ENDBRANCH  19  20
ENDBRANCH  18  19
ENDBRANCH  17  18
ENDBRANCH  14  17
ENDBRANCH   8  11
BRANCH   2  24
ATOM     24  C   UNL     1      -4.106  13.478  20.827  0.00  0.00    +0.000 C 
ATOM     25  N   UNL     1      -5.349  12.928  21.052  0.00  0.00    +0.000 N 
ATOM     26  O   UNL     1      -3.980  14.568  20.281  0.00  0.00    +0.000 OA
ATOM     27  H   UNL     1      -5.426  11.986  21.418  0.00  0.00    +0.000 HD
ATOM     28  H   UNL     1      -6.178  13.379  20.688  0.00  0.00    +0.000 HD
ENDBRANCH   2  24
BRANCH   1  29
ATOM     29  N   UNL     1      -2.031  12.318  18.971  0.00  0.00    +0.000 N 
ATOM     30  H   UNL     1      -1.331  12.993  18.663  0.00  0.00    +0.000 HD
BRANCH  29  32
ATOM     31  C   UNL     1      -2.192  10.231  17.718  0.00  0.00    +0.000 C 
ATOM     32  C   UNL     1      -2.799  11.635  17.905  0.00  0.00    +0.000 C 
BRANCH  32  33
ATOM     33  C   UNL     1      -4.313  11.511  18.019  0.00  0.00    +0.000 A 
ATOM     34  C   UNL     1      -5.331  12.295  17.435  0.00  0.00    +0.000 A 
ATOM     35  C   UNL     1      -6.512  11.721  17.834  0.00  0.00    +0.000 A 
ATOM     36  N   UNL     1      -6.168  10.653  18.613  0.00  0.00    +0.000 N 
ATOM     37  C   UNL     1      -7.052   9.716  19.260  0.00  0.00    +0.000 C 
ATOM     38  N   UNL     1      -4.846  10.513  18.749  0.00  0.00    +0.000 NA
ENDBRANCH  32  33
ENDBRANCH  29  32
ENDBRANCH   1  29
TORSDOF 10
ENDMDL
MODEL 3
REMARK VINA RESULT:      -7.6      1.611      2.639
REMARK  Name = 
REMARK  14 active torsions:
REMARK  status: ('A' for Active; 'I' for Inactive)
REMARK    1  A    between atoms: C_1  and  C_2
REMARK    2  A    between atoms: C_2  and  N_3
REMARK    3  A    between atoms: C_2  and  C_30
REMARK    4  A    between atoms: N_3  and  C_4
REMARK    5  A    between atoms: C_5  and  C_6
REMARK    6  A    between atoms: C_14  and  C_15
REMARK    7  A    between atoms: C_18  and  O_19
REMARK    8  A    between atoms: O_19  and  C_20
REMARK    9  A    between atoms: C_20  and  C_21
REMARK   10  A    between atoms: C_21  and  C_22
REMARK   11  A    between atoms: C_22  and  N_23
REMARK   12  A    between atoms: N_23  and  C_24
REMARK   13  A    between atoms: N_23  and  C_25
REMARK   14  A    between atoms: N_33  and  C_34
REMARK                            x       y       z     vdW  Elec       q    Type
REMARK                         _______ _______ _______ _____ _____    ______ ____
ROOT
ATOM      1  C   UNL     1      -3.947  13.026  20.534  0.00  0.00    +0.000 A 
ATOM      2  C   UNL     1      -4.800  13.735  21.400  0.00  0.00    +0.000 A 
ATOM      3  N   UNL     1      -4.507  13.990  22.706  0.00  0.00    +0.000 NA
ATOM      4  N   UNL     1      -3.364  13.532  23.249  0.00  0.00    +0.000 NA
ATOM      5  C   UNL     1      -2.537  12.776  22.524  0.00  0.00    +0.000 A 
ATOM      6  C   UNL     1      -1.429  12.233  23.155  0.00  0.00    +0.000 A 
ATOM      7  C   UNL     1      -0.539  11.387  22.486  0.00  0.00    +0.000 A 
ATOM      8  C   UNL     1      -0.755  11.047  21.154  0.00  0.00    +0.000 A 
ATOM      9  C   UNL     1      -1.891  11.588  20.542  0.00  0.00    +0.000 A 
ATOM     10  C   UNL     1      -2.786  12.489  21.165  0.00  0.00    +0.000 A 
ENDROOT
BRANCH   8  11
ATOM     11  C   UNL     1       0.141  10.155  20.400  0.00  0.00    +0.000 A 
ATOM     12  C   UNL     1       0.765   9.048  20.989  0.00  0.00    +0.000 A 
ATOM     13  C   UNL     1       1.608   8.232  20.237  0.00  0.00    +0.000 A 
ATOM     14  C   UNL     1       1.820   8.550  18.908  0.00  0.00    +0.000 A 
ATOM     15  N   UNL     1       1.231   9.588  18.288  0.00  0.00    +0.000 NA
ATOM     16  C   UNL     1       0.415  10.358  19.042  0.00  0.00    +0.000 A 
BRANCH  14  17
ATOM     17  O   UNL     1       2.665   7.728  18.196  0.00  0.00    +0.000 OA
BRANCH  17  18
ATOM     18  C   UNL     1       2.915   6.498  18.884  0.00  0.00    +0.000 C 
BRANCH  18  19
ATOM     19  C   UNL     1       2.429   5.353  18.003  0.00  0.00    +0.000 C 
BRANCH  19  20
ATOM     20  C   UNL     1       3.379   4.158  18.106  0.00  0.00    +0.000 C 
BRANCH  20  21
ATOM     21  N   UNL     1       2.791   2.989  18.784  0.00  0.00    +0.000 NA
ATOM     22  C   UNL     1       1.330   2.972  18.688  0.00  0.00    +0.000 C 
ATOM     23  C   UNL     1       3.334   1.757  18.205  0.00  0.00    +0.000 C 
ENDBRANCH  20  21
ENDBRANCH  19  20
ENDBRANCH  18  19
ENDBRANCH  17  18
ENDBRANCH  14  17
ENDBRANCH   8  11
BRANCH   2  24
ATOM     24  C   UNL     1      -6.169  14.222  21.027  0.00  0.00    +0.000 C 
ATOM     25  N   UNL     1      -6.232  15.535  20.616  0.00  0.00    +0.000 N 
ATOM     26  O   UNL     1      -7.179  13.535  21.124  0.00  0.00    +0.000 OA
ATOM     27  H   UNL     1      -5.398  16.111  20.634  0.00  0.00    +0.000 HD
ATOM     28  H   UNL     1      -7.129  15.980  20.472  0.00  0.00    +0.000 HD
ENDBRANCH   2  24
BRANCH   1  29
ATOM     29  N   UNL     1      -4.209  12.889  19.163  0.00  0.00    +0.000 N 
ATOM     30  H   UNL     1      -3.842  13.618  18.551  0.00  0.00    +0.000 HD
BRANCH  29  32
ATOM     31  C   UNL     1      -6.138  12.160  17.858  0.00  0.00    +0.000 C 
ATOM     32  C   UNL     1      -4.808  11.711  18.496  0.00  0.00    +0.000 C 
BRANCH  32  33
ATOM     33  C   UNL     1      -4.002  10.929  17.466  0.00  0.00    +0.000 A 
ATOM     34  C   UNL     1      -2.985   9.968  17.654  0.00  0.00    +0.000 A 
ATOM     35  C   UNL     1      -2.633   9.555  16.393  0.00  0.00    +0.000 A 
ATOM     36  N   UNL     1      -3.426  10.258  15.531  0.00  0.00    +0.000 N 
ATOM     37  C   UNL     1      -3.451  10.171  14.092  0.00  0.00    +0.000 C 
ATOM     38  N   UNL     1      -4.252  11.102  16.155  0.00  0.00    +0.000 NA
ENDBRANCH  32  33
ENDBRANCH  29  32
ENDBRANCH   1  29
TORSDOF 10
ENDMDL
MODEL 4
REMARK VINA RESULT:      -7.5      1.813      2.825
REMARK  Name = 
REMARK  14 active torsions:
REMARK  status: ('A' for Active; 'I' for Inactive)
REMARK    1  A    between atoms: C_1  and  C_2
REMARK    2  A    between atoms: C_2  and  N_3
REMARK    3  A    between atoms: C_2  and  C_30
REMARK    4  A    between atoms: N_3  and  C_4
REMARK    5  A    between atoms: C_5  and  C_6
REMARK    6  A    between atoms: C_14  and  C_15
REMARK    7  A    between atoms: C_18  and  O_19
REMARK    8  A    between atoms: O_19  and  C_20
REMARK    9  A    between atoms: C_20  and  C_21
REMARK   10  A    between atoms: C_21  and  C_22
REMARK   11  A    between atoms: C_22  and  N_23
REMARK   12  A    between atoms: N_23  and  C_24
REMARK   13  A    between atoms: N_23  and  C_25
REMARK   14  A    between atoms: N_33  and  C_34
REMARK                            x       y       z     vdW  Elec       q    Type
REMARK                         _______ _______ _______ _____ _____    ______ ____
ROOT
ATOM      1  C   UNL     1      -3.419  12.660  20.402  0.00  0.00    +0.000 A 
ATOM      2  C   UNL     1      -4.268  13.303  21.321  0.00  0.00    +0.000 A 
ATOM      3  N   UNL     1      -3.988  13.425  22.650  0.00  0.00    +0.000 NA
ATOM      4  N   UNL     1      -2.864  12.889  23.160  0.00  0.00    +0.000 NA
ATOM      5  C   UNL     1      -2.043  12.187  22.375  0.00  0.00    +0.000 A 
ATOM      6  C   UNL     1      -0.957  11.560  22.964  0.00  0.00    +0.000 A 
ATOM      7  C   UNL     1      -0.077  10.761  22.229  0.00  0.00    +0.000 A 
ATOM      8  C   UNL     1      -0.281  10.556  20.867  0.00  0.00    +0.000 A 
ATOM      9  C   UNL     1      -1.396  11.180  20.296  0.00  0.00    +0.000 A 
ATOM     10  C   UNL     1      -2.279  12.037  20.993  0.00  0.00    +0.000 A 
ENDROOT
BRANCH   8  11
ATOM     11  C   UNL     1       0.606   9.720  20.041  0.00  0.00    +0.000 A 
ATOM     12  C   UNL     1       0.909  10.038  18.712  0.00  0.00    +0.000 A 
ATOM     13  C   UNL     1       1.752   9.216  17.965  0.00  0.00    +0.000 A 
ATOM     14  C   UNL     1       2.266   8.082  18.565  0.00  0.00    +0.000 A 
ATOM     15  N   UNL     1       2.025   7.741  19.843  0.00  0.00    +0.000 NA
ATOM     16  C   UNL     1       1.208   8.559  20.543  0.00  0.00    +0.000 A 
BRANCH  14  17
ATOM     17  O   UNL     1       3.089   7.287  17.798  0.00  0.00    +0.000 OA
BRANCH  17  18
ATOM     18  C   UNL     1       3.033   5.916  18.204  0.00  0.00    +0.000 C 
BRANCH  18  19
ATOM     19  C   UNL     1       4.317   5.591  18.957  0.00  0.00    +0.000 C 
BRANCH  19  20
ATOM     20  C   UNL     1       5.202   4.656  18.130  0.00  0.00    +0.000 C 
BRANCH  20  21
ATOM     21  N   UNL     1       5.555   5.193  16.804  0.00  0.00    +0.000 NA
ATOM     22  C   UNL     1       6.918   5.726  16.767  0.00  0.00    +0.000 C 
ATOM     23  C   UNL     1       5.413   4.142  15.792  0.00  0.00    +0.000 C 
ENDBRANCH  20  21
ENDBRANCH  19  20
ENDBRANCH  18  19
ENDBRANCH  17  18
ENDBRANCH  14  17
ENDBRANCH   8  11
BRANCH   2  24
ATOM     24  C   UNL     1      -5.620  13.856  20.981  0.00  0.00    +0.000 C 
ATOM     25  N   UNL     1      -5.614  15.110  20.411  0.00  0.00    +0.000 N 
ATOM     26  O   UNL     1      -6.669  13.273  21.231  0.00  0.00    +0.000 OA
ATOM     27  H   UNL     1      -4.740  15.611  20.301  0.00  0.00    +0.000 HD
ATOM     28  H   UNL     1      -6.483  15.608  20.271  0.00  0.00    +0.000 HD
ENDBRANCH   2  24
BRANCH   1  29
ATOM     29  N   UNL     1      -3.664  12.662  19.021  0.00  0.00    +0.000 N 
ATOM     30  H   UNL     1      -3.204  13.390  18.475  0.00  0.00    +0.000 HD
BRANCH  29  32
ATOM     31  C   UNL     1      -5.671  12.241  17.699  0.00  0.00    +0.000 C 
ATOM     32  C   UNL     1      -4.376  11.615  18.253  0.00  0.00    +0.000 C 
BRANCH  32  33
ATOM     33  C   UNL     1      -3.660  10.877  17.129  0.00  0.00    +0.000 A 
ATOM     34  C   UNL     1      -2.530  10.033  17.178  0.00  0.00    +0.000 A 
ATOM     35  C   UNL     1      -2.335   9.606  15.888  0.00  0.00    +0.000 A 
ATOM     36  N   UNL     1      -3.321  10.188  15.144  0.00  0.00    +0.000 N 
ATOM     37  C   UNL     1      -3.559  10.040  13.730  0.00  0.00    +0.000 C 
ATOM     38  N   UNL     1      -4.126  10.970  15.870  0.00  0.00    +0.000 NA
ENDBRANCH  32  33
ENDBRANCH  29  32
ENDBRANCH   1  29
TORSDOF 10
ENDMDL
MODEL 5
REMARK VINA RESULT:      -7.4      1.880      3.215
REMARK  Name = 
REMARK  14 active torsions:
REMARK  status: ('A' for Active; 'I' for Inactive)
REMARK    1  A    between atoms: C_1  and  C_2
REMARK    2  A    between atoms: C_2  and  N_3
REMARK    3  A    between atoms: C_2  and  C_30
REMARK    4  A    between atoms: N_3  and  C_4
REMARK    5  A    between atoms: C_5  and  C_6
REMARK    6  A    between atoms: C_14  and  C_15
REMARK    7  A    between atoms: C_18  and  O_19
REMARK    8  A    between atoms: O_19  and  C_20
REMARK    9  A    between atoms: C_20  and  C_21
REMARK   10  A    between atoms: C_21  and  C_22
REMARK   11  A    between atoms: C_22  and  N_23
REMARK   12  A    between atoms: N_23  and  C_24
REMARK   13  A    between atoms: N_23  and  C_25
REMARK   14  A    between atoms: N_33  and  C_34
REMARK                            x       y       z     vdW  Elec       q    Type
REMARK                         _______ _______ _______ _____ _____    ______ ____
ROOT
ATOM      1  C   UNL     1      -4.388  13.389  20.417  0.00  0.00    +0.000 A 
ATOM      2  C   UNL     1      -5.289  14.260  21.057  0.00  0.00    +0.000 A 
ATOM      3  N   UNL     1      -5.088  14.769  22.305  0.00  0.00    +0.000 NA
ATOM      4  N   UNL     1      -3.997  14.423  23.014  0.00  0.00    +0.000 NA
ATOM      5  C   UNL     1      -3.134  13.534  22.518  0.00  0.00    +0.000 A 
ATOM      6  C   UNL     1      -2.086  13.123  23.326  0.00  0.00    +0.000 A 
ATOM      7  C   UNL     1      -1.166  12.157  22.909  0.00  0.00    +0.000 A 
ATOM      8  C   UNL     1      -1.289  11.559  21.658  0.00  0.00    +0.000 A 
ATOM      9  C   UNL     1      -2.367  11.972  20.866  0.00  0.00    +0.000 A 
ATOM     10  C   UNL     1      -3.287  12.983  21.229  0.00  0.00    +0.000 A 
ENDROOT
BRANCH   8  11
ATOM     11  C   UNL     1      -0.358  10.531  21.166  0.00  0.00    +0.000 A 
ATOM     12  C   UNL     1       0.045   9.447  21.955  0.00  0.00    +0.000 A 
ATOM     13  C   UNL     1       0.932   8.498  21.449  0.00  0.00    +0.000 A 
ATOM     14  C   UNL     1       1.408   8.662  20.162  0.00  0.00    +0.000 A 
ATOM     15  N   UNL     1       1.039   9.672  19.355  0.00  0.00    +0.000 NA
ATOM     16  C   UNL     1       0.175  10.574  19.871  0.00  0.00    +0.000 A 
BRANCH  14  17
ATOM     17  O   UNL     1       2.289   7.711  19.695  0.00  0.00    +0.000 OA
BRANCH  17  18
ATOM     18  C   UNL     1       2.462   7.799  18.277  0.00  0.00    +0.000 C 
BRANCH  18  19
ATOM     19  C   UNL     1       3.579   6.842  17.875  0.00  0.00    +0.000 C 
BRANCH  19  20
ATOM     20  C   UNL     1       3.085   5.394  17.917  0.00  0.00    +0.000 C 
BRANCH  20  21
ATOM     21  N   UNL     1       3.946   4.495  18.704  0.00  0.00    +0.000 NA
ATOM     22  C   UNL     1       5.164   5.163  19.168  0.00  0.00    +0.000 C 
ATOM     23  C   UNL     1       3.201   3.981  19.857  0.00  0.00    +0.000 C 
ENDBRANCH  20  21
ENDBRANCH  19  20
ENDBRANCH  18  19
ENDBRANCH  17  18
ENDBRANCH  14  17
ENDBRANCH   8  11
BRANCH   2  24
ATOM     24  C   UNL     1      -6.617  14.670  20.493  0.00  0.00    +0.000 C 
ATOM     25  N   UNL     1      -7.661  13.818  20.775  0.00  0.00    +0.000 N 
ATOM     26  O   UNL     1      -6.773  15.659  19.786  0.00  0.00    +0.000 OA
ATOM     27  H   UNL     1      -7.488  12.957  21.282  0.00  0.00    +0.000 HD
ATOM     28  H   UNL     1      -8.559  13.949  20.327  0.00  0.00    +0.000 HD
ENDBRANCH   2  24
BRANCH   1  29
ATOM     29  N   UNL     1      -4.551  12.983  19.084  0.00  0.00    +0.000 N 
ATOM     30  H   UNL     1      -4.277  13.652  18.364  0.00  0.00    +0.000 HD
BRANCH  29  32
ATOM     31  C   UNL     1      -6.363  11.679  18.098  0.00  0.00    +0.000 C 
ATOM     32  C   UNL     1      -4.912  11.626  18.616  0.00  0.00    +0.000 C 
BRANCH  32  33
ATOM     33  C   UNL     1      -4.041  10.920  17.584  0.00  0.00    +0.000 A 
ATOM     34  C   UNL     1      -2.918  10.085  17.768  0.00  0.00    +0.000 A 
ATOM     35  C   UNL     1      -2.544   9.690  16.509  0.00  0.00    +0.000 A 
ATOM     36  N   UNL     1      -3.426  10.281  15.650  0.00  0.00    +0.000 N 
ATOM     37  C   UNL     1      -3.467  10.165  14.214  0.00  0.00    +0.000 C 
ATOM     38  N   UNL     1      -4.332  11.039  16.276  0.00  0.00    +0.000 NA
ENDBRANCH  32  33
ENDBRANCH  29  32
ENDBRANCH   1  29
TORSDOF 10
ENDMDL
MODEL 6
REMARK VINA RESULT:      -7.4      1.956      3.037
REMARK  Name = 
REMARK  14 active torsions:
REMARK  status: ('A' for Active; 'I' for Inactive)
REMARK    1  A    between atoms: C_1  and  C_2
REMARK    2  A    between atoms: C_2  and  N_3
REMARK    3  A    between atoms: C_2  and  C_30
REMARK    4  A    between atoms: N_3  and  C_4
REMARK    5  A    between atoms: C_5  and  C_6
REMARK    6  A    between atoms: C_14  and  C_15
REMARK    7  A    between atoms: C_18  and  O_19
REMARK    8  A    between atoms: O_19  and  C_20
REMARK    9  A    between atoms: C_20  and  C_21
REMARK   10  A    between atoms: C_21  and  C_22
REMARK   11  A    between atoms: C_22  and  N_23
REMARK   12  A    between atoms: N_23  and  C_24
REMARK   13  A    between atoms: N_23  and  C_25
REMARK   14  A    between atoms: N_33  and  C_34
REMARK                            x       y       z     vdW  Elec       q    Type
REMARK                         _______ _______ _______ _____ _____    ______ ____
ROOT
ATOM      1  C   UNL     1      -3.340  12.750  20.408  0.00  0.00    +0.000 A 
ATOM      2  C   UNL     1      -4.190  13.477  21.262  0.00  0.00    +0.000 A 
ATOM      3  N   UNL     1      -3.953  13.653  22.593  0.00  0.00    +0.000 NA
ATOM      4  N   UNL     1      -2.875  13.093  23.171  0.00  0.00    +0.000 NA
ATOM      5  C   UNL     1      -2.061  12.315  22.454  0.00  0.00    +0.000 A 
ATOM      6  C   UNL     1      -1.028  11.670  23.115  0.00  0.00    +0.000 A 
ATOM      7  C   UNL     1      -0.160  10.795  22.454  0.00  0.00    +0.000 A 
ATOM      8  C   UNL     1      -0.325  10.531  21.097  0.00  0.00    +0.000 A 
ATOM      9  C   UNL     1      -1.387  11.175  20.454  0.00  0.00    +0.000 A 
ATOM     10  C   UNL     1      -2.253  12.107  21.073  0.00  0.00    +0.000 A 
ENDROOT
BRANCH   8  11
ATOM     11  C   UNL     1       0.551   9.614  20.348  0.00  0.00    +0.000 A 
ATOM     12  C   UNL     1       1.026   8.418  20.899  0.00  0.00    +0.000 A 
ATOM     13  C   UNL     1       1.856   7.581  20.153  0.00  0.00    +0.000 A 
ATOM     14  C   UNL     1       2.202   7.966  18.872  0.00  0.00    +0.000 A 
ATOM     15  N   UNL     1       1.757   9.093  18.289  0.00  0.00    +0.000 NA
ATOM     16  C   UNL     1       0.951   9.882  19.034  0.00  0.00    +0.000 A 
BRANCH  14  17
ATOM     17  O   UNL     1       3.029   7.121  18.166  0.00  0.00    +0.000 OA
BRANCH  17  18
ATOM     18  C   UNL     1       3.036   5.801  18.719  0.00  0.00    +0.000 C 
BRANCH  18  19
ATOM     19  C   UNL     1       4.410   5.548  19.328  0.00  0.00    +0.000 C 
BRANCH  19  20
ATOM     20  C   UNL     1       5.283   4.739  18.365  0.00  0.00    +0.000 C 
BRANCH  20  21
ATOM     21  N   UNL     1       6.547   5.405  18.007  0.00  0.00    +0.000 NA
ATOM     22  C   UNL     1       7.383   5.669  19.180  0.00  0.00    +0.000 C 
ATOM     23  C   UNL     1       7.290   4.576  17.054  0.00  0.00    +0.000 C 
ENDBRANCH  20  21
ENDBRANCH  19  20
ENDBRANCH  18  19
ENDBRANCH  17  18
ENDBRANCH  14  17
ENDBRANCH   8  11
BRANCH   2  24
ATOM     24  C   UNL     1      -5.501  14.073  20.843  0.00  0.00    +0.000 C 
ATOM     25  N   UNL     1      -6.619  13.413  21.303  0.00  0.00    +0.000 N 
ATOM     26  O   UNL     1      -5.594  15.047  20.104  0.00  0.00    +0.000 OA
ATOM     27  H   UNL     1      -6.516  12.556  21.835  0.00  0.00    +0.000 HD
ATOM     28  H   UNL     1      -7.536  13.669  20.963  0.00  0.00    +0.000 HD
ENDBRANCH   2  24
BRANCH   1  29
ATOM     29  N   UNL     1      -3.535  12.693  19.021  0.00  0.00    +0.000 N 
ATOM     30  H   UNL     1      -3.035  13.382  18.459  0.00  0.00    +0.000 HD
BRANCH  29  32
ATOM     31  C   UNL     1      -5.557  12.235  17.733  0.00  0.00    +0.000 C 
ATOM     32  C   UNL     1      -4.247  11.630  18.277  0.00  0.00    +0.000 C 
BRANCH  32  33
ATOM     33  C   UNL     1      -3.541  10.884  17.151  0.00  0.00    +0.000 A 
ATOM     34  C   UNL     1      -2.409  10.042  17.196  0.00  0.00    +0.000 A 
ATOM     35  C   UNL     1      -2.224   9.606  15.908  0.00  0.00    +0.000 A 
ATOM     36  N   UNL     1      -3.217  10.182  15.169  0.00  0.00    +0.000 N 
ATOM     37  C   UNL     1      -3.467  10.024  13.757  0.00  0.00    +0.000 C 
ATOM     38  N   UNL     1      -4.017  10.968  15.896  0.00  0.00    +0.000 NA
ENDBRANCH  32  33
ENDBRANCH  29  32
ENDBRANCH   1  29
TORSDOF 10
ENDMDL
MODEL 7
REMARK VINA RESULT:      -7.4      1.194      1.690
REMARK  Name = 
REMARK  14 active torsions:
REMARK  status: ('A' for Active; 'I' for Inactive)
REMARK    1  A    between atoms: C_1  and  C_2
REMARK    2  A    between atoms: C_2  and  N_3
REMARK    3  A    between atoms: C_2  and  C_30
REMARK    4  A    between atoms: N_3  and  C_4
REMARK    5  A    between atoms: C_5  and  C_6
REMARK    6  A    between atoms: C_14  and  C_15
REMARK    7  A    between atoms: C_18  and  O_19
REMARK    8  A    between atoms: O_19  and  C_20
REMARK    9  A    between atoms: C_20  and  C_21
REMARK   10  A    between atoms: C_21  and  C_22
REMARK   11  A    between atoms: C_22  and  N_23
REMARK   12  A    between atoms: N_23  and  C_24
REMARK   13  A    between atoms: N_23  and  C_25
REMARK   14  A    between atoms: N_33  and  C_34
REMARK                            x       y       z     vdW  Elec       q    Type
REMARK                         _______ _______ _______ _____ _____    ______ ____
ROOT
ATOM      1  C   UNL     1      -1.505  11.799  20.326  0.00  0.00    +0.000 A 
ATOM      2  C   UNL     1      -2.360  12.403  21.267  0.00  0.00    +0.000 A 
ATOM      3  N   UNL     1      -2.323  12.135  22.603  0.00  0.00    +0.000 NA
ATOM      4  N   UNL     1      -1.458  11.227  23.090  0.00  0.00    +0.000 NA
ATOM      5  C   UNL     1      -0.669  10.543  22.259  0.00  0.00    +0.000 A 
ATOM      6  C   UNL     1       0.125   9.540  22.792  0.00  0.00    +0.000 A 
ATOM      7  C   UNL     1       0.942   8.739  21.988  0.00  0.00    +0.000 A 
ATOM      8  C   UNL     1       0.965   8.917  20.608  0.00  0.00    +0.000 A 
ATOM      9  C   UNL     1       0.140   9.919  20.087  0.00  0.00    +0.000 A 
ATOM     10  C   UNL     1      -0.659  10.786  20.869  0.00  0.00    +0.000 A 
ENDROOT
BRANCH   8  11
ATOM     11  C   UNL     1       1.798   8.100  19.709  0.00  0.00    +0.000 A 
ATOM     12  C   UNL     1       2.285   6.841  20.080  0.00  0.00    +0.000 A 
ATOM     13  C   UNL     1       3.073   6.102  19.198  0.00  0.00    +0.000 A 
ATOM     14  C   UNL     1       3.365   6.648  17.962  0.00  0.00    +0.000 A 
ATOM     15  N   UNL     1       2.907   7.842  17.548  0.00  0.00    +0.000 NA
ATOM     16  C   UNL     1       2.142   8.533  18.423  0.00  0.00    +0.000 A 
BRANCH  14  17
ATOM     17  O   UNL     1       4.152   5.896  17.117  0.00  0.00    +0.000 OA
BRANCH  17  18
ATOM     18  C   UNL     1       4.529   4.650  17.711  0.00  0.00    +0.000 C 
BRANCH  18  19
ATOM     19  C   UNL     1       3.555   3.581  17.231  0.00  0.00    +0.000 C 
BRANCH  19  20
ATOM     20  C   UNL     1       3.651   2.333  18.112  0.00  0.00    +0.000 C 
BRANCH  20  21
ATOM     21  N   UNL     1       2.529   2.183  19.054  0.00  0.00    +0.000 NA
ATOM     22  C   UNL     1       2.852   2.700  20.386  0.00  0.00    +0.000 C 
ATOM     23  C   UNL     1       1.349   2.879  18.532  0.00  0.00    +0.000 C 
ENDBRANCH  20  21
ENDBRANCH  19  20
ENDBRANCH  18  19
ENDBRANCH  17  18
ENDBRANCH  14  17
ENDBRANCH   8  11
BRANCH   2  24
ATOM     24  C   UNL     1      -3.473  13.345  20.916  0.00  0.00    +0.000 C 
ATOM     25  N   UNL     1      -4.741  12.812  20.995  0.00  0.00    +0.000 N 
ATOM     26  O   UNL     1      -3.288  14.496  20.534  0.00  0.00    +0.000 OA
ATOM     27  H   UNL     1      -4.862  11.831  21.222  0.00  0.00    +0.000 HD
ATOM     28  H   UNL     1      -5.535  13.336  20.652  0.00  0.00    +0.000 HD
ENDBRANCH   2  24
BRANCH   1  29
ATOM     29  N   UNL     1      -1.474  12.186  18.979  0.00  0.00    +0.000 N 
ATOM     30  H   UNL     1      -0.790  12.898  18.723  0.00  0.00    +0.000 HD
BRANCH  29  32
ATOM     31  C   UNL     1      -1.476  10.230  17.520  0.00  0.00    +0.000 C 
ATOM     32  C   UNL     1      -2.205  11.545  17.863  0.00  0.00    +0.000 C 
BRANCH  32  33
ATOM     33  C   UNL     1      -3.697  11.266  17.991  0.00  0.00    +0.000 A 
ATOM     34  C   UNL     1      -4.368  10.066  18.311  0.00  0.00    +0.000 A 
ATOM     35  C   UNL     1      -5.702  10.385  18.328  0.00  0.00    +0.000 A 
ATOM     36  N   UNL     1      -5.777  11.716  18.031  0.00  0.00    +0.000 N 
ATOM     37  C   UNL     1      -6.961  12.533  17.941  0.00  0.00    +0.000 C 
ATOM     38  N   UNL     1      -4.578  12.266  17.811  0.00  0.00    +0.000 NA
ENDBRANCH  32  33
ENDBRANCH  29  32
ENDBRANCH   1  29
TORSDOF 10
ENDMDL
MODEL 8
REMARK VINA RESULT:      -7.3      4.429     10.629
REMARK  Name = 
REMARK  14 active torsions:
REMARK  status: ('A' for Active; 'I' for Inactive)
REMARK    1  A    between atoms: C_1  and  C_2
REMARK    2  A    between atoms: C_2  and  N_3
REMARK    3  A    between atoms: C_2  and  C_30
REMARK    4  A    between atoms: N_3  and  C_4
REMARK    5  A    between atoms: C_5  and  C_6
REMARK    6  A    between atoms: C_14  and  C_15
REMARK    7  A    between atoms: C_18  and  O_19
REMARK    8  A    between atoms: O_19  and  C_20
REMARK    9  A    between atoms: C_20  and  C_21
REMARK   10  A    between atoms: C_21  and  C_22
REMARK   11  A    between atoms: C_22  and  N_23
REMARK   12  A    between atoms: N_23  and  C_24
REMARK   13  A    between atoms: N_23  and  C_25
REMARK   14  A    between atoms: N_33  and  C_34
REMARK                            x       y       z     vdW  Elec       q    Type
REMARK                         _______ _______ _______ _____ _____    ______ ____
ROOT
ATOM      1  C   UNL     1       3.077   4.954  18.557  0.00  0.00    +0.000 A 
ATOM      2  C   UNL     1       3.127   3.688  19.168  0.00  0.00    +0.000 A 
ATOM      3  N   UNL     1       2.483   3.384  20.330  0.00  0.00    +0.000 NA
ATOM      4  N   UNL     1       1.772   4.325  20.979  0.00  0.00    +0.000 NA
ATOM      5  C   UNL     1       1.742   5.576  20.517  0.00  0.00    +0.000 A 
ATOM      6  C   UNL     1       1.091   6.536  21.276  0.00  0.00    +0.000 A 
ATOM      7  C   UNL     1       1.055   7.880  20.895  0.00  0.00    +0.000 A 
ATOM      8  C   UNL     1       1.697   8.301  19.734  0.00  0.00    +0.000 A 
ATOM      9  C   UNL     1       2.367   7.321  18.993  0.00  0.00    +0.000 A 
ATOM     10  C   UNL     1       2.382   5.944  19.315  0.00  0.00    +0.000 A 
ENDROOT
BRANCH   8  11
ATOM     11  C   UNL     1       1.701   9.703  19.284  0.00  0.00    +0.000 A 
ATOM     12  C   UNL     1       2.304  10.102  18.085  0.00  0.00    +0.000 A 
ATOM     13  C   UNL     1       2.287  11.442  17.699  0.00  0.00    +0.000 A 
ATOM     14  C   UNL     1       1.674  12.359  18.532  0.00  0.00    +0.000 A 
ATOM     15  N   UNL     1       1.062  12.027  19.683  0.00  0.00    +0.000 NA
ATOM     16  C   UNL     1       1.092  10.721  20.028  0.00  0.00    +0.000 A 
BRANCH  14  17
ATOM     17  O   UNL     1       1.681  13.675  18.125  0.00  0.00    +0.000 OA
BRANCH  17  18
ATOM     18  C   UNL     1       1.378  14.566  19.203  0.00  0.00    +0.000 C 
BRANCH  18  19
ATOM     19  C   UNL     1       1.202  15.966  18.628  0.00  0.00    +0.000 C 
BRANCH  19  20
ATOM     20  C   UNL     1       2.222  16.929  19.240  0.00  0.00    +0.000 C 
BRANCH  20  21
ATOM     21  N   UNL     1       3.318  17.294  18.326  0.00  0.00    +0.000 NA
ATOM     22  C   UNL     1       4.533  16.518  18.583  0.00  0.00    +0.000 C 
ATOM     23  C   UNL     1       2.891  17.091  16.939  0.00  0.00    +0.000 C 
ENDBRANCH  20  21
ENDBRANCH  19  20
ENDBRANCH  18  19
ENDBRANCH  17  18
ENDBRANCH  14  17
ENDBRANCH   8  11
BRANCH   2  24
ATOM     24  C   UNL     1       3.959   2.542  18.674  0.00  0.00    +0.000 C 
ATOM     25  N   UNL     1       5.011   2.187  19.490  0.00  0.00    +0.000 N 
ATOM     26  O   UNL     1       3.767   1.982  17.601  0.00  0.00    +0.000 OA
ATOM     27  H   UNL     1       5.206   2.726  20.326  0.00  0.00    +0.000 HD
ATOM     28  H   UNL     1       5.696   1.514  19.172  0.00  0.00    +0.000 HD
ENDBRANCH   2  24
BRANCH   1  29
ATOM     29  N   UNL     1       3.639   5.205  17.297  0.00  0.00    +0.000 N 
ATOM     30  H   UNL     1       3.057   5.710  16.628  0.00  0.00    +0.000 HD
BRANCH  29  32
ATOM     31  C   UNL     1       5.136   5.152  15.371  0.00  0.00    +0.000 C 
ATOM     32  C   UNL     1       5.046   4.972  16.900  0.00  0.00    +0.000 C 
BRANCH  32  33
ATOM     33  C   UNL     1       6.165   5.767  17.560  0.00  0.00    +0.000 A 
ATOM     34  C   UNL     1       7.052   5.392  18.592  0.00  0.00    +0.000 A 
ATOM     35  C   UNL     1       7.881   6.470  18.773  0.00  0.00    +0.000 A 
ATOM     36  N   UNL     1       7.474   7.415  17.875  0.00  0.00    +0.000 N 
ATOM     37  C   UNL     1       8.038   8.724  17.659  0.00  0.00    +0.000 C 
ATOM     38  N   UNL     1       6.431   7.017  17.140  0.00  0.00    +0.000 NA
ENDBRANCH  32  33
ENDBRANCH  29  32
ENDBRANCH   1  29
TORSDOF 10
ENDMDL
MODEL 9
REMARK VINA RESULT:      -7.3      3.338      4.377
REMARK  Name = 
REMARK  14 active torsions:
REMARK  status: ('A' for Active; 'I' for Inactive)
REMARK    1  A    between atoms: C_1  and  C_2
REMARK    2  A    between atoms: C_2  and  N_3
REMARK    3  A    between atoms: C_2  and  C_30
REMARK    4  A    between atoms: N_3  and  C_4
REMARK    5  A    between atoms: C_5  and  C_6
REMARK    6  A    between atoms: C_14  and  C_15
REMARK    7  A    between atoms: C_18  and  O_19
REMARK    8  A    between atoms: O_19  and  C_20
REMARK    9  A    between atoms: C_20  and  C_21
REMARK   10  A    between atoms: C_21  and  C_22
REMARK   11  A    between atoms: C_22  and  N_23
REMARK   12  A    between atoms: N_23  and  C_24
REMARK   13  A    between atoms: N_23  and  C_25
REMARK   14  A    between atoms: N_33  and  C_34
REMARK                            x       y       z     vdW  Elec       q    Type
REMARK                         _______ _______ _______ _____ _____    ______ ____
ROOT
ATOM      1  C   UNL     1       0.304  13.164  21.367  0.00  0.00    +0.000 A 
ATOM      2  C   UNL     1      -0.533  13.972  22.158  0.00  0.00    +0.000 A 
ATOM      3  N   UNL     1      -1.321  13.490  23.159  0.00  0.00    +0.000 NA
ATOM      4  N   UNL     1      -1.355  12.171  23.422  0.00  0.00    +0.000 NA
ATOM      5  C   UNL     1      -0.658  11.320  22.665  0.00  0.00    +0.000 A 
ATOM      6  C   UNL     1      -0.811   9.963  22.901  0.00  0.00    +0.000 A 
ATOM      7  C   UNL     1      -0.161   9.001  22.122  0.00  0.00    +0.000 A 
ATOM      8  C   UNL     1       0.654   9.385  21.061  0.00  0.00    +0.000 A 
ATOM      9  C   UNL     1       0.776  10.759  20.826  0.00  0.00    +0.000 A 
ATOM     10  C   UNL     1       0.180  11.765  21.622  0.00  0.00    +0.000 A 
ENDROOT
BRANCH   8  11
ATOM     11  C   UNL     1       1.357   8.420  20.201  0.00  0.00    +0.000 A 
ATOM     12  C   UNL     1       1.677   7.127  20.634  0.00  0.00    +0.000 A 
ATOM     13  C   UNL     1       2.347   6.246  19.786  0.00  0.00    +0.000 A 
ATOM     14  C   UNL     1       2.694   6.684  18.522  0.00  0.00    +0.000 A 
ATOM     15  N   UNL     1       2.393   7.906  18.049  0.00  0.00    +0.000 NA
ATOM     16  C   UNL     1       1.740   8.736  18.892  0.00  0.00    +0.000 A 
BRANCH  14  17
ATOM     17  O   UNL     1       3.362   5.791  17.712  0.00  0.00    +0.000 OA
BRANCH  17  18
ATOM     18  C   UNL     1       4.617   5.399  18.276  0.00  0.00    +0.000 C 
BRANCH  18  19
ATOM     19  C   UNL     1       4.760   3.890  18.115  0.00  0.00    +0.000 C 
BRANCH  19  20
ATOM     20  C   UNL     1       4.388   3.174  19.416  0.00  0.00    +0.000 C 
BRANCH  20  21
ATOM     21  N   UNL     1       3.336   2.155  19.253  0.00  0.00    +0.000 NA
ATOM     22  C   UNL     1       2.185   2.407  20.121  0.00  0.00    +0.000 C 
ATOM     23  C   UNL     1       2.897   2.119  17.855  0.00  0.00    +0.000 C 
ENDBRANCH  20  21
ENDBRANCH  19  20
ENDBRANCH  18  19
ENDBRANCH  17  18
ENDBRANCH  14  17
ENDBRANCH   8  11
BRANCH   2  24
ATOM     24  C   UNL     1      -0.734  15.443  21.946  0.00  0.00    +0.000 C 
ATOM     25  N   UNL     1      -1.969  15.801  21.453  0.00  0.00    +0.000 N 
ATOM     26  O   UNL     1       0.141  16.279  22.143  0.00  0.00    +0.000 OA
ATOM     27  H   UNL     1      -2.643  15.085  21.209  0.00  0.00    +0.000 HD
ATOM     28  H   UNL     1      -2.142  16.754  21.160  0.00  0.00    +0.000 HD
ENDBRANCH   2  24
BRANCH   1  29
ATOM     29  N   UNL     1       1.202  13.697  20.431  0.00  0.00    +0.000 N 
ATOM     30  H   UNL     1       2.195  13.632  20.659  0.00  0.00    +0.000 HD
BRANCH  29  32
ATOM     31  C   UNL     1      -0.434  13.489  18.633  0.00  0.00    +0.000 C 
ATOM     32  C   UNL     1       0.871  14.183  19.073  0.00  0.00    +0.000 C 
BRANCH  32  33
ATOM     33  C   UNL     1       0.752  15.679  18.807  0.00  0.00    +0.000 A 
ATOM     34  C   UNL     1       1.748  16.678  18.805  0.00  0.00    +0.000 A 
ATOM     35  C   UNL     1       1.101  17.840  18.466  0.00  0.00    +0.000 A 
ATOM     36  N   UNL     1      -0.209  17.504  18.283  0.00  0.00    +0.000 N 
ATOM     37  C   UNL     1      -1.295  18.371  17.901  0.00  0.00    +0.000 C 
ATOM     38  N   UNL     1      -0.447  16.205  18.496  0.00  0.00    +0.000 NA
ENDBRANCH  32  33
ENDBRANCH  29  32
ENDBRANCH   1  29
TORSDOF 10
ENDMDL
