MODEL 1
REMARK VINA RESULT:      -6.7      0.000      0.000
REMARK  Name = 
REMARK  14 active torsions:
REMARK  status: ('A' for Active; 'I' for Inactive)
REMARK    1  A    between atoms: C_1  and  N_2
REMARK    2  A    between atoms: N_2  and  C_3
REMARK    3  A    between atoms: N_2  and  C_4
REMARK    4  A    between atoms: C_4  and  C_5
REMARK    5  A    between atoms: C_5  and  O_6
REMARK    6  A    between atoms: O_6  and  C_7
REMARK    7  A    between atoms: C_10  and  C_11
REMARK    8  A    between atoms: C_12  and  C_13
REMARK    9  A    between atoms: C_16  and  O_17
REMARK   10  A    between atoms: O_17  and  C_18
REMARK   11  A    between atoms: C_18  and  C_19
REMARK   12  A    between atoms: C_19  and  N_20
REMARK   13  A    between atoms: N_20  and  C_21
REMARK   14  A    between atoms: N_20  and  C_22
REMARK                            x       y       z     vdW  Elec       q    Type
REMARK                         _______ _______ _______ _____ _____    ______ ____
ROOT
ATOM      1  C   UNL     1      10.055  13.183  19.834  0.00  0.00    +0.000 A 
ATOM      2  C   UNL     1       9.655  13.768  20.988  0.00  0.00    +0.000 A 
ATOM      3  C   UNL     1      10.381  14.972  21.442  0.00  0.00    +0.000 A 
ATOM      4  C   UNL     1      10.315  15.452  22.758  0.00  0.00    +0.000 A 
ATOM      5  C   UNL     1      10.922  16.661  23.105  0.00  0.00    +0.000 A 
ATOM      6  C   UNL     1      11.582  17.412  22.135  0.00  0.00    +0.000 A 
ATOM      7  C   UNL     1      11.691  16.923  20.834  0.00  0.00    +0.000 A 
ATOM      8  C   UNL     1      11.121  15.691  20.517  0.00  0.00    +0.000 A 
ATOM      9  O   UNL     1      11.370  15.172  19.243  0.00  0.00    +0.000 OA
ATOM     10  C   UNL     1      11.144  13.819  19.030  0.00  0.00    +0.000 A 
ATOM     11  O   UNL     1      11.751  13.211  18.150  0.00  0.00    +0.000 OA
ENDROOT
BRANCH   1  15
ATOM     12  C   UNL     1       8.345   9.702  17.961  0.00  0.00    +0.000 A 
ATOM     13  C   UNL     1       8.063  10.994  17.504  0.00  0.00    +0.000 A 
ATOM     14  C   UNL     1       8.594  12.116  18.146  0.00  0.00    +0.000 A 
ATOM     15  C   UNL     1       9.422  11.974  19.260  0.00  0.00    +0.000 A 
ATOM     16  C   UNL     1       9.692  10.682  19.737  0.00  0.00    +0.000 A 
ATOM     17  C   UNL     1       9.153   9.555  19.090  0.00  0.00    +0.000 A 
BRANCH  12  18
ATOM     18  O   UNL     1       7.890   8.540  17.370  0.00  0.00    +0.000 OA
BRANCH  18  19
ATOM     19  C   UNL     1       7.985   7.383  18.212  0.00  0.00    +0.000 C 
BRANCH  19  20
ATOM     20  C   UNL     1       7.256   6.155  17.644  0.00  0.00    +0.000 C 
BRANCH  20  22
ATOM     21  C   UNL     1       5.055   6.260  16.629  0.00  0.00    +0.000 C 
ATOM     22  N   UNL     1       5.793   6.203  17.892  0.00  0.00    +0.000 NA
ATOM     23  C   UNL     1       5.317   5.070  18.688  0.00  0.00    +0.000 C 
ENDBRANCH  20  22
ENDBRANCH  19  20
ENDBRANCH  18  19
ENDBRANCH  12  18
ENDBRANCH   1  15
BRANCH   2  24
ATOM     24  C   UNL     1       8.507  13.250  21.761  0.00  0.00    +0.000 A 
ATOM     25  C   UNL     1       8.690  12.132  22.567  0.00  0.00    +0.000 A 
ATOM     26  C   UNL     1       7.691  11.749  23.453  0.00  0.00    +0.000 A 
ATOM     27  C   UNL     1       6.492  12.470  23.551  0.00  0.00    +0.000 A 
ATOM     28  C   UNL     1       6.296  13.578  22.721  0.00  0.00    +0.000 A 
ATOM     29  C   UNL     1       7.305  13.967  21.830  0.00  0.00    +0.000 A 
BRANCH  27  30
ATOM     30  O   UNL     1       5.475  12.184  24.436  0.00  0.00    +0.000 OA
BRANCH  30  31
ATOM     31  C   UNL     1       5.770  11.065  25.278  0.00  0.00    +0.000 C 
BRANCH  31  32
ATOM     32  C   UNL     1       6.096  11.462  26.719  0.00  0.00    +0.000 C 
BRANCH  32  33
ATOM     33  N   UNL     1       4.946  11.211  27.618  0.00  0.00    +0.000 NA
ATOM     34  C   UNL     1       4.133  12.409  27.845  0.00  0.00    +0.000 C 
ATOM     35  C   UNL     1       4.110  10.135  27.092  0.00  0.00    +0.000 C 
ENDBRANCH  32  33
ENDBRANCH  31  32
ENDBRANCH  30  31
ENDBRANCH  27  30
ENDBRANCH   2  24
TORSDOF 10
ENDMDL
MODEL 2
REMARK VINA RESULT:      -6.5      3.793      6.791
REMARK  Name = 
REMARK  14 active torsions:
REMARK  status: ('A' for Active; 'I' for Inactive)
REMARK    1  A    between atoms: C_1  and  N_2
REMARK    2  A    between atoms: N_2  and  C_3
REMARK    3  A    between atoms: N_2  and  C_4
REMARK    4  A    between atoms: C_4  and  C_5
REMARK    5  A    between atoms: C_5  and  O_6
REMARK    6  A    between atoms: O_6  and  C_7
REMARK    7  A    between atoms: C_10  and  C_11
REMARK    8  A    between atoms: C_12  and  C_13
REMARK    9  A    between atoms: C_16  and  O_17
REMARK   10  A    between atoms: O_17  and  C_18
REMARK   11  A    between atoms: C_18  and  C_19
REMARK   12  A    between atoms: C_19  and  N_20
REMARK   13  A    between atoms: N_20  and  C_21
REMARK   14  A    between atoms: N_20  and  C_22
REMARK                            x       y       z     vdW  Elec       q    Type
REMARK                         _______ _______ _______ _____ _____    ______ ____
ROOT
ATOM      1  C   UNL     1       7.523  15.626  18.616  0.00  0.00    +0.000 A 
ATOM      2  C   UNL     1       8.598  14.835  18.382  0.00  0.00    +0.000 A 
ATOM      3  C   UNL     1       9.868  15.489  18.004  0.00  0.00    +0.000 A 
ATOM      4  C   UNL     1      10.930  14.800  17.399  0.00  0.00    +0.000 A 
ATOM      5  C   UNL     1      12.153  15.437  17.174  0.00  0.00    +0.000 A 
ATOM      6  C   UNL     1      12.333  16.760  17.572  0.00  0.00    +0.000 A 
ATOM      7  C   UNL     1      11.271  17.466  18.135  0.00  0.00    +0.000 A 
ATOM      8  C   UNL     1      10.042  16.830  18.308  0.00  0.00    +0.000 A 
ATOM      9  O   UNL     1       8.967  17.608  18.745  0.00  0.00    +0.000 OA
ATOM     10  C   UNL     1       7.683  17.112  18.569  0.00  0.00    +0.000 A 
ATOM     11  O   UNL     1       6.721  17.873  18.479  0.00  0.00    +0.000 OA
ENDROOT
BRANCH   1  15
ATOM     12  C   UNL     1       3.594  14.346  19.831  0.00  0.00    +0.000 A 
ATOM     13  C   UNL     1       4.596  14.624  20.766  0.00  0.00    +0.000 A 
ATOM     14  C   UNL     1       5.879  15.000  20.356  0.00  0.00    +0.000 A 
ATOM     15  C   UNL     1       6.189  15.110  19.000  0.00  0.00    +0.000 A 
ATOM     16  C   UNL     1       5.195  14.812  18.056  0.00  0.00    +0.000 A 
ATOM     17  C   UNL     1       3.906  14.430  18.473  0.00  0.00    +0.000 A 
BRANCH  12  18
ATOM     18  O   UNL     1       2.295  13.999  20.147  0.00  0.00    +0.000 OA
BRANCH  18  19
ATOM     19  C   UNL     1       2.111  12.599  20.400  0.00  0.00    +0.000 C 
BRANCH  19  20
ATOM     20  C   UNL     1       1.253  11.896  19.336  0.00  0.00    +0.000 C 
BRANCH  20  22
ATOM     21  C   UNL     1       0.509  10.677  21.297  0.00  0.00    +0.000 C 
ATOM     22  N   UNL     1       0.652  10.636  19.841  0.00  0.00    +0.000 NA
ATOM     23  C   UNL     1      -0.647  10.345  19.229  0.00  0.00    +0.000 C 
ENDBRANCH  20  22
ENDBRANCH  19  20
ENDBRANCH  18  19
ENDBRANCH  12  18
ENDBRANCH   1  15
BRANCH   2  24
ATOM     24  C   UNL     1       8.525  13.367  18.530  0.00  0.00    +0.000 A 
ATOM     25  C   UNL     1       8.056  12.607  17.465  0.00  0.00    +0.000 A 
ATOM     26  C   UNL     1       8.168  11.223  17.502  0.00  0.00    +0.000 A 
ATOM     27  C   UNL     1       8.747  10.571  18.601  0.00  0.00    +0.000 A 
ATOM     28  C   UNL     1       9.194  11.332  19.685  0.00  0.00    +0.000 A 
ATOM     29  C   UNL     1       9.085  12.729  19.645  0.00  0.00    +0.000 A 
BRANCH  27  30
ATOM     30  O   UNL     1       8.938   9.209  18.693  0.00  0.00    +0.000 OA
BRANCH  30  31
ATOM     31  C   UNL     1       7.967   8.462  17.953  0.00  0.00    +0.000 C 
BRANCH  31  32
ATOM     32  C   UNL     1       7.980   6.967  18.278  0.00  0.00    +0.000 C 
BRANCH  32  33
ATOM     33  N   UNL     1       7.428   6.169  17.158  0.00  0.00    +0.000 NA
ATOM     34  C   UNL     1       7.424   4.730  17.437  0.00  0.00    +0.000 C 
ATOM     35  C   UNL     1       6.078   6.616  16.828  0.00  0.00    +0.000 C 
ENDBRANCH  32  33
ENDBRANCH  31  32
ENDBRANCH  30  31
ENDBRANCH  27  30
ENDBRANCH   2  24
TORSDOF 10
ENDMDL
MODEL 3
REMARK VINA RESULT:      -6.5      1.495      2.201
REMARK  Name = 
REMARK  14 active torsions:
REMARK  status: ('A' for Active; 'I' for Inactive)
REMARK    1  A    between atoms: C_1  and  N_2
REMARK    2  A    between atoms: N_2  and  C_3
REMARK    3  A    between atoms: N_2  and  C_4
REMARK    4  A    between atoms: C_4  and  C_5
REMARK    5  A    between atoms: C_5  and  O_6
REMARK    6  A    between atoms: O_6  and  C_7
REMARK    7  A    between atoms: C_10  and  C_11
REMARK    8  A    between atoms: C_12  and  C_13
REMARK    9  A    between atoms: C_16  and  O_17
REMARK   10  A    between atoms: O_17  and  C_18
REMARK   11  A    between atoms: C_18  and  C_19
REMARK   12  A    between atoms: C_19  and  N_20
REMARK   13  A    between atoms: N_20  and  C_21
REMARK   14  A    between atoms: N_20  and  C_22
REMARK                            x       y       z     vdW  Elec       q    Type
REMARK                         _______ _______ _______ _____ _____    ______ ____
ROOT
ATOM      1  C   UNL     1      10.309  13.751  18.462  0.00  0.00    +0.000 A 
ATOM      2  C   UNL     1      10.047  14.734  19.355  0.00  0.00    +0.000 A 
ATOM      3  C   UNL     1      10.667  16.056  19.130  0.00  0.00    +0.000 A 
ATOM      4  C   UNL     1      10.773  17.030  20.134  0.00  0.00    +0.000 A 
ATOM      5  C   UNL     1      11.258  18.306  19.838  0.00  0.00    +0.000 A 
ATOM      6  C   UNL     1      11.619  18.628  18.532  0.00  0.00    +0.000 A 
ATOM      7  C   UNL     1      11.557  17.655  17.535  0.00  0.00    +0.000 A 
ATOM      8  C   UNL     1      11.118  16.372  17.858  0.00  0.00    +0.000 A 
ATOM      9  O   UNL     1      11.202  15.391  16.866  0.00  0.00    +0.000 OA
ATOM     10  C   UNL     1      11.134  14.060  17.253  0.00  0.00    +0.000 A 
ATOM     11  O   UNL     1      11.651  13.178  16.568  0.00  0.00    +0.000 OA
ENDROOT
BRANCH   1  15
ATOM     12  C   UNL     1       8.771   9.727  18.515  0.00  0.00    +0.000 A 
ATOM     13  C   UNL     1       8.163  10.735  17.758  0.00  0.00    +0.000 A 
ATOM     14  C   UNL     1       8.650  12.045  17.782  0.00  0.00    +0.000 A 
ATOM     15  C   UNL     1       9.758  12.379  18.561  0.00  0.00    +0.000 A 
ATOM     16  C   UNL     1      10.360  11.379  19.339  0.00  0.00    +0.000 A 
ATOM     17  C   UNL     1       9.865  10.062  19.316  0.00  0.00    +0.000 A 
BRANCH  12  18
ATOM     18  O   UNL     1       8.377   8.404  18.527  0.00  0.00    +0.000 OA
BRANCH  18  19
ATOM     19  C   UNL     1       7.741   7.975  17.316  0.00  0.00    +0.000 C 
BRANCH  19  20
ATOM     20  C   UNL     1       6.393   7.274  17.552  0.00  0.00    +0.000 C 
BRANCH  20  22
ATOM     21  C   UNL     1       6.992   4.942  17.260  0.00  0.00    +0.000 C 
ATOM     22  N   UNL     1       6.233   6.064  16.708  0.00  0.00    +0.000 NA
ATOM     23  C   UNL     1       4.831   5.673  16.541  0.00  0.00    +0.000 C 
ENDBRANCH  20  22
ENDBRANCH  19  20
ENDBRANCH  18  19
ENDBRANCH  12  18
ENDBRANCH   1  15
BRANCH   2  24
ATOM     24  C   UNL     1       9.142  14.517  20.503  0.00  0.00    +0.000 A 
ATOM     25  C   UNL     1       7.771  14.628  20.309  0.00  0.00    +0.000 A 
ATOM     26  C   UNL     1       6.897  14.233  21.313  0.00  0.00    +0.000 A 
ATOM     27  C   UNL     1       7.372  13.721  22.529  0.00  0.00    +0.000 A 
ATOM     28  C   UNL     1       8.752  13.634  22.737  0.00  0.00    +0.000 A 
ATOM     29  C   UNL     1       9.634  14.029  21.722  0.00  0.00    +0.000 A 
BRANCH  27  30
ATOM     30  O   UNL     1       6.572  13.264  23.554  0.00  0.00    +0.000 OA
BRANCH  30  31
ATOM     31  C   UNL     1       7.073  12.066  24.156  0.00  0.00    +0.000 C 
BRANCH  31  32
ATOM     32  C   UNL     1       6.018  11.310  24.966  0.00  0.00    +0.000 C 
BRANCH  32  33
ATOM     33  N   UNL     1       6.426  11.173  26.384  0.00  0.00    +0.000 NA
ATOM     34  C   UNL     1       7.148  12.347  26.881  0.00  0.00    +0.000 C 
ATOM     35  C   UNL     1       5.263  10.910  27.227  0.00  0.00    +0.000 C 
ENDBRANCH  32  33
ENDBRANCH  31  32
ENDBRANCH  30  31
ENDBRANCH  27  30
ENDBRANCH   2  24
TORSDOF 10
ENDMDL
MODEL 4
REMARK VINA RESULT:      -6.4      1.131      1.537
REMARK  Name = 
REMARK  14 active torsions:
REMARK  status: ('A' for Active; 'I' for Inactive)
REMARK    1  A    between atoms: C_1  and  N_2
REMARK    2  A    between atoms: N_2  and  C_3
REMARK    3  A    between atoms: N_2  and  C_4
REMARK    4  A    between atoms: C_4  and  C_5
REMARK    5  A    between atoms: C_5  and  O_6
REMARK    6  A    between atoms: O_6  and  C_7
REMARK    7  A    between atoms: C_10  and  C_11
REMARK    8  A    between atoms: C_12  and  C_13
REMARK    9  A    between atoms: C_16  and  O_17
REMARK   10  A    between atoms: O_17  and  C_18
REMARK   11  A    between atoms: C_18  and  C_19
REMARK   12  A    between atoms: C_19  and  N_20
REMARK   13  A    between atoms: N_20  and  C_21
REMARK   14  A    between atoms: N_20  and  C_22
REMARK                            x       y       z     vdW  Elec       q    Type
REMARK                         _______ _______ _______ _____ _____    ______ ____
ROOT
ATOM      1  C   UNL     1      10.108  13.398  20.012  0.00  0.00    +0.000 A 
ATOM      2  C   UNL     1       9.665  13.920  21.180  0.00  0.00    +0.000 A 
ATOM      3  C   UNL     1      10.370  15.100  21.722  0.00  0.00    +0.000 A 
ATOM      4  C   UNL     1      10.255  15.511  23.058  0.00  0.00    +0.000 A 
ATOM      5  C   UNL     1      10.845  16.701  23.489  0.00  0.00    +0.000 A 
ATOM      6  C   UNL     1      11.536  17.503  22.583  0.00  0.00    +0.000 A 
ATOM      7  C   UNL     1      11.693  17.083  21.263  0.00  0.00    +0.000 A 
ATOM      8  C   UNL     1      11.139  15.869  20.862  0.00  0.00    +0.000 A 
ATOM      9  O   UNL     1      11.435  15.417  19.572  0.00  0.00    +0.000 OA
ATOM     10  C   UNL     1      11.222  14.077  19.281  0.00  0.00    +0.000 A 
ATOM     11  O   UNL     1      11.862  13.517  18.393  0.00  0.00    +0.000 OA
ENDROOT
BRANCH   1  15
ATOM     12  C   UNL     1       8.466  10.025  17.894  0.00  0.00    +0.000 A 
ATOM     13  C   UNL     1       8.137  11.340  17.546  0.00  0.00    +0.000 A 
ATOM     14  C   UNL     1       8.647  12.424  18.267  0.00  0.00    +0.000 A 
ATOM     15  C   UNL     1       9.500  12.219  19.353  0.00  0.00    +0.000 A 
ATOM     16  C   UNL     1       9.816  10.902  19.721  0.00  0.00    +0.000 A 
ATOM     17  C   UNL     1       9.299   9.814  18.994  0.00  0.00    +0.000 A 
BRANCH  12  18
ATOM     18  O   UNL     1       8.035   8.900  17.219  0.00  0.00    +0.000 OA
BRANCH  18  19
ATOM     19  C   UNL     1       7.816   7.763  18.065  0.00  0.00    +0.000 C 
BRANCH  19  20
ATOM     20  C   UNL     1       6.781   6.775  17.501  0.00  0.00    +0.000 C 
BRANCH  20  22
ATOM     21  C   UNL     1       7.763   4.572  17.750  0.00  0.00    +0.000 C 
ATOM     22  N   UNL     1       7.417   5.631  16.802  0.00  0.00    +0.000 NA
ATOM     23  C   UNL     1       6.575   5.081  15.737  0.00  0.00    +0.000 C 
ENDBRANCH  20  22
ENDBRANCH  19  20
ENDBRANCH  18  19
ENDBRANCH  12  18
ENDBRANCH   1  15
BRANCH   2  24
ATOM     24  C   UNL     1       8.492  13.360  21.883  0.00  0.00    +0.000 A 
ATOM     25  C   UNL     1       8.678  12.294  22.755  0.00  0.00    +0.000 A 
ATOM     26  C   UNL     1       7.635  11.884  23.576  0.00  0.00    +0.000 A 
ATOM     27  C   UNL     1       6.389  12.526  23.542  0.00  0.00    +0.000 A 
ATOM     28  C   UNL     1       6.192  13.580  22.646  0.00  0.00    +0.000 A 
ATOM     29  C   UNL     1       7.244  13.997  21.820  0.00  0.00    +0.000 A 
BRANCH  27  30
ATOM     30  O   UNL     1       5.322  12.211  24.356  0.00  0.00    +0.000 OA
BRANCH  30  31
ATOM     31  C   UNL     1       5.714  11.946  25.707  0.00  0.00    +0.000 C 
BRANCH  31  32
ATOM     32  C   UNL     1       5.451  13.120  26.653  0.00  0.00    +0.000 C 
BRANCH  32  33
ATOM     33  N   UNL     1       6.646  13.428  27.473  0.00  0.00    +0.000 NA
ATOM     34  C   UNL     1       7.742  13.997  26.683  0.00  0.00    +0.000 C 
ATOM     35  C   UNL     1       6.298  14.333  28.565  0.00  0.00    +0.000 C 
ENDBRANCH  32  33
ENDBRANCH  31  32
ENDBRANCH  30  31
ENDBRANCH  27  30
ENDBRANCH   2  24
TORSDOF 10
ENDMDL
MODEL 5
REMARK VINA RESULT:      -6.4      8.681     13.387
REMARK  Name = 
REMARK  14 active torsions:
REMARK  status: ('A' for Active; 'I' for Inactive)
REMARK    1  A    between atoms: C_1  and  N_2
REMARK    2  A    between atoms: N_2  and  C_3
REMARK    3  A    between atoms: N_2  and  C_4
REMARK    4  A    between atoms: C_4  and  C_5
REMARK    5  A    between atoms: C_5  and  O_6
REMARK    6  A    between atoms: O_6  and  C_7
REMARK    7  A    between atoms: C_10  and  C_11
REMARK    8  A    between atoms: C_12  and  C_13
REMARK    9  A    between atoms: C_16  and  O_17
REMARK   10  A    between atoms: O_17  and  C_18
REMARK   11  A    between atoms: C_18  and  C_19
REMARK   12  A    between atoms: C_19  and  N_20
REMARK   13  A    between atoms: N_20  and  C_21
REMARK   14  A    between atoms: N_20  and  C_22
REMARK                            x       y       z     vdW  Elec       q    Type
REMARK                         _______ _______ _______ _____ _____    ______ ____
ROOT
ATOM      1  C   UNL     1      -4.001  12.628  20.083  0.00  0.00    +0.000 A 
ATOM      2  C   UNL     1      -2.868  12.196  19.481  0.00  0.00    +0.000 A 
ATOM      3  C   UNL     1      -3.001  11.421  18.230  0.00  0.00    +0.000 A 
ATOM      4  C   UNL     1      -1.968  10.626  17.711  0.00  0.00    +0.000 A 
ATOM      5  C   UNL     1      -2.102  10.011  16.464  0.00  0.00    +0.000 A 
ATOM      6  C   UNL     1      -3.261  10.203  15.714  0.00  0.00    +0.000 A 
ATOM      7  C   UNL     1      -4.311  10.956  16.239  0.00  0.00    +0.000 A 
ATOM      8  C   UNL     1      -4.179  11.522  17.506  0.00  0.00    +0.000 A 
ATOM      9  O   UNL     1      -5.301  12.150  18.054  0.00  0.00    +0.000 OA
ATOM     10  C   UNL     1      -5.320  12.383  19.422  0.00  0.00    +0.000 A 
ATOM     11  O   UNL     1      -6.386  12.477  20.029  0.00  0.00    +0.000 OA
ENDROOT
BRANCH   1  15
ATOM     12  C   UNL     1      -3.832  14.822  23.786  0.00  0.00    +0.000 A 
ATOM     13  C   UNL     1      -3.917  13.425  23.764  0.00  0.00    +0.000 A 
ATOM     14  C   UNL     1      -4.011  12.729  22.555  0.00  0.00    +0.000 A 
ATOM     15  C   UNL     1      -4.019  13.413  21.339  0.00  0.00    +0.000 A 
ATOM     16  C   UNL     1      -3.956  14.814  21.354  0.00  0.00    +0.000 A 
ATOM     17  C   UNL     1      -3.865  15.512  22.573  0.00  0.00    +0.000 A 
BRANCH  12  18
ATOM     18  O   UNL     1      -3.705  15.586  24.929  0.00  0.00    +0.000 OA
BRANCH  18  19
ATOM     19  C   UNL     1      -2.724  15.093  25.852  0.00  0.00    +0.000 C 
BRANCH  19  20
ATOM     20  C   UNL     1      -1.342  15.741  25.674  0.00  0.00    +0.000 C 
BRANCH  20  22
ATOM     21  C   UNL     1       0.217  16.496  27.372  0.00  0.00    +0.000 C 
ATOM     22  N   UNL     1      -1.061  16.764  26.712  0.00  0.00    +0.000 NA
ATOM     23  C   UNL     1      -1.061  18.127  26.176  0.00  0.00    +0.000 C 
ENDBRANCH  20  22
ENDBRANCH  19  20
ENDBRANCH  18  19
ENDBRANCH  12  18
ENDBRANCH   1  15
BRANCH   2  24
ATOM     24  C   UNL     1      -1.532  12.512  20.027  0.00  0.00    +0.000 A 
ATOM     25  C   UNL     1      -0.904  11.582  20.847  0.00  0.00    +0.000 A 
ATOM     26  C   UNL     1       0.426  11.764  21.206  0.00  0.00    +0.000 A 
ATOM     27  C   UNL     1       1.153  12.876  20.757  0.00  0.00    +0.000 A 
ATOM     28  C   UNL     1       0.514  13.827  19.956  0.00  0.00    +0.000 A 
ATOM     29  C   UNL     1      -0.825  13.642  19.590  0.00  0.00    +0.000 A 
BRANCH  27  30
ATOM     30  O   UNL     1       2.484  13.104  21.029  0.00  0.00    +0.000 OA
BRANCH  30  31
ATOM     31  C   UNL     1       2.867  14.468  20.821  0.00  0.00    +0.000 C 
BRANCH  31  32
ATOM     32  C   UNL     1       4.176  14.615  20.042  0.00  0.00    +0.000 C 
BRANCH  32  33
ATOM     33  N   UNL     1       3.923  14.771  18.591  0.00  0.00    +0.000 NA
ATOM     34  C   UNL     1       3.099  15.942  18.282  0.00  0.00    +0.000 C 
ATOM     35  C   UNL     1       5.184  14.841  17.856  0.00  0.00    +0.000 C 
ENDBRANCH  32  33
ENDBRANCH  31  32
ENDBRANCH  30  31
ENDBRANCH  27  30
ENDBRANCH   2  24
TORSDOF 10
ENDMDL
MODEL 6
REMARK VINA RESULT:      -6.4      8.789     12.603
REMARK  Name = 
REMARK  14 active torsions:
REMARK  status: ('A' for Active; 'I' for Inactive)
REMARK    1  A    between atoms: C_1  and  N_2
REMARK    2  A    between atoms: N_2  and  C_3
REMARK    3  A    between atoms: N_2  and  C_4
REMARK    4  A    between atoms: C_4  and  C_5
REMARK    5  A    between atoms: C_5  and  O_6
REMARK    6  A    between atoms: O_6  and  C_7
REMARK    7  A    between atoms: C_10  and  C_11
REMARK    8  A    between atoms: C_12  and  C_13
REMARK    9  A    between atoms: C_16  and  O_17
REMARK   10  A    between atoms: O_17  and  C_18
REMARK   11  A    between atoms: C_18  and  C_19
REMARK   12  A    between atoms: C_19  and  N_20
REMARK   13  A    between atoms: N_20  and  C_21
REMARK   14  A    between atoms: N_20  and  C_22
REMARK                            x       y       z     vdW  Elec       q    Type
REMARK                         _______ _______ _______ _____ _____    ______ ____
ROOT
ATOM      1  C   UNL     1       0.403  10.112  21.253  0.00  0.00    +0.000 A 
ATOM      2  C   UNL     1       0.275   9.788  19.944  0.00  0.00    +0.000 A 
ATOM      3  C   UNL     1       1.200   8.780  19.387  0.00  0.00    +0.000 A 
ATOM      4  C   UNL     1       1.414   8.619  18.011  0.00  0.00    +0.000 A 
ATOM      5  C   UNL     1       2.205   7.571  17.532  0.00  0.00    +0.000 A 
ATOM      6  C   UNL     1       2.770   6.662  18.424  0.00  0.00    +0.000 A 
ATOM      7  C   UNL     1       2.598   6.838  19.796  0.00  0.00    +0.000 A 
ATOM      8  C   UNL     1       1.847   7.917  20.258  0.00  0.00    +0.000 A 
ATOM      9  O   UNL     1       1.813   8.139  21.639  0.00  0.00    +0.000 OA
ATOM     10  C   UNL     1       1.403   9.384  22.093  0.00  0.00    +0.000 A 
ATOM     11  O   UNL     1       1.778   9.810  23.185  0.00  0.00    +0.000 OA
ENDROOT
BRANCH   1  15
ATOM     12  C   UNL     1      -1.998  12.914  23.476  0.00  0.00    +0.000 A 
ATOM     13  C   UNL     1      -2.252  11.539  23.514  0.00  0.00    +0.000 A 
ATOM     14  C   UNL     1      -1.490  10.645  22.756  0.00  0.00    +0.000 A 
ATOM     15  C   UNL     1      -0.452  11.105  21.944  0.00  0.00    +0.000 A 
ATOM     16  C   UNL     1      -0.205  12.485  21.884  0.00  0.00    +0.000 A 
ATOM     17  C   UNL     1      -0.977  13.382  22.646  0.00  0.00    +0.000 A 
BRANCH  12  18
ATOM     18  O   UNL     1      -2.678  13.862  24.213  0.00  0.00    +0.000 OA
BRANCH  18  19
ATOM     19  C   UNL     1      -4.102  13.820  24.044  0.00  0.00    +0.000 C 
BRANCH  19  20
ATOM     20  C   UNL     1      -4.615  14.779  22.959  0.00  0.00    +0.000 C 
BRANCH  20  22
ATOM     21  C   UNL     1      -5.225  12.803  21.691  0.00  0.00    +0.000 C 
ATOM     22  N   UNL     1      -5.639  14.149  22.088  0.00  0.00    +0.000 NA
ATOM     23  C   UNL     1      -6.959  14.090  22.720  0.00  0.00    +0.000 C 
ENDBRANCH  20  22
ENDBRANCH  19  20
ENDBRANCH  18  19
ENDBRANCH  12  18
ENDBRANCH   1  15
BRANCH   2  24
ATOM     24  C   UNL     1      -0.775  10.391  19.097  0.00  0.00    +0.000 A 
ATOM     25  C   UNL     1      -0.518  11.604  18.470  0.00  0.00    +0.000 A 
ATOM     26  C   UNL     1      -1.402  12.089  17.514  0.00  0.00    +0.000 A 
ATOM     27  C   UNL     1      -2.558  11.375  17.167  0.00  0.00    +0.000 A 
ATOM     28  C   UNL     1      -2.832  10.168  17.817  0.00  0.00    +0.000 A 
ATOM     29  C   UNL     1      -1.939   9.677  18.778  0.00  0.00    +0.000 A 
BRANCH  27  30
ATOM     30  O   UNL     1      -3.458  11.763  16.198  0.00  0.00    +0.000 OA
BRANCH  30  31
ATOM     31  C   UNL     1      -4.795  11.336  16.480  0.00  0.00    +0.000 C 
BRANCH  31  32
ATOM     32  C   UNL     1      -5.657  12.429  17.113  0.00  0.00    +0.000 C 
BRANCH  32  33
ATOM     33  N   UNL     1      -6.839  11.854  17.796  0.00  0.00    +0.000 NA
ATOM     34  C   UNL     1      -6.507  10.676  18.603  0.00  0.00    +0.000 C 
ATOM     35  C   UNL     1      -7.489  12.862  18.629  0.00  0.00    +0.000 C 
ENDBRANCH  32  33
ENDBRANCH  31  32
ENDBRANCH  30  31
ENDBRANCH  27  30
ENDBRANCH   2  24
TORSDOF 10
ENDMDL
MODEL 7
REMARK VINA RESULT:      -6.2      8.489     13.023
REMARK  Name = 
REMARK  14 active torsions:
REMARK  status: ('A' for Active; 'I' for Inactive)
REMARK    1  A    between atoms: C_1  and  N_2
REMARK    2  A    between atoms: N_2  and  C_3
REMARK    3  A    between atoms: N_2  and  C_4
REMARK    4  A    between atoms: C_4  and  C_5
REMARK    5  A    between atoms: C_5  and  O_6
REMARK    6  A    between atoms: O_6  and  C_7
REMARK    7  A    between atoms: C_10  and  C_11
REMARK    8  A    between atoms: C_12  and  C_13
REMARK    9  A    between atoms: C_16  and  O_17
REMARK   10  A    between atoms: O_17  and  C_18
REMARK   11  A    between atoms: C_18  and  C_19
REMARK   12  A    between atoms: C_19  and  N_20
REMARK   13  A    between atoms: N_20  and  C_21
REMARK   14  A    between atoms: N_20  and  C_22
REMARK                            x       y       z     vdW  Elec       q    Type
REMARK                         _______ _______ _______ _____ _____    ______ ____
ROOT
ATOM      1  C   UNL     1      -3.646  12.378  19.951  0.00  0.00    +0.000 A 
ATOM      2  C   UNL     1      -2.615  11.952  19.183  0.00  0.00    +0.000 A 
ATOM      3  C   UNL     1      -2.934  11.294  17.900  0.00  0.00    +0.000 A 
ATOM      4  C   UNL     1      -2.012  10.505  17.197  0.00  0.00    +0.000 A 
ATOM      5  C   UNL     1      -2.324  10.006  15.930  0.00  0.00    +0.000 A 
ATOM      6  C   UNL     1      -3.551  10.310  15.344  0.00  0.00    +0.000 A 
ATOM      7  C   UNL     1      -4.491  11.058  16.052  0.00  0.00    +0.000 A 
ATOM      8  C   UNL     1      -4.182  11.507  17.335  0.00  0.00    +0.000 A 
ATOM      9  O   UNL     1      -5.198  12.132  18.064  0.00  0.00    +0.000 OA
ATOM     10  C   UNL     1      -5.045  12.247  19.438  0.00  0.00    +0.000 A 
ATOM     11  O   UNL     1      -6.025  12.333  20.175  0.00  0.00    +0.000 OA
ENDROOT
BRANCH   1  15
ATOM     12  C   UNL     1      -3.380  14.424  23.733  0.00  0.00    +0.000 A 
ATOM     13  C   UNL     1      -3.443  15.124  22.523  0.00  0.00    +0.000 A 
ATOM     14  C   UNL     1      -3.489  14.447  21.301  0.00  0.00    +0.000 A 
ATOM     15  C   UNL     1      -3.476  13.052  21.259  0.00  0.00    +0.000 A 
ATOM     16  C   UNL     1      -3.391  12.343  22.467  0.00  0.00    +0.000 A 
ATOM     17  C   UNL     1      -3.341  13.029  23.695  0.00  0.00    +0.000 A 
BRANCH  12  18
ATOM     18  O   UNL     1      -3.363  15.010  24.983  0.00  0.00    +0.000 OA
BRANCH  18  19
ATOM     19  C   UNL     1      -2.420  16.083  25.110  0.00  0.00    +0.000 C 
BRANCH  19  20
ATOM     20  C   UNL     1      -1.147  15.688  25.875  0.00  0.00    +0.000 C 
BRANCH  20  22
ATOM     21  C   UNL     1      -0.098  16.343  23.789  0.00  0.00    +0.000 C 
ATOM     22  N   UNL     1       0.083  16.218  25.236  0.00  0.00    +0.000 NA
ATOM     23  C   UNL     1       0.498  17.508  25.792  0.00  0.00    +0.000 C 
ENDBRANCH  20  22
ENDBRANCH  19  20
ENDBRANCH  18  19
ENDBRANCH  12  18
ENDBRANCH   1  15
BRANCH   2  24
ATOM     24  C   UNL     1      -1.209  12.164  19.588  0.00  0.00    +0.000 A 
ATOM     25  C   UNL     1      -0.553  13.311  19.159  0.00  0.00    +0.000 A 
ATOM     26  C   UNL     1       0.692  13.632  19.686  0.00  0.00    +0.000 A 
ATOM     27  C   UNL     1       1.304  12.816  20.648  0.00  0.00    +0.000 A 
ATOM     28  C   UNL     1       0.658  11.647  21.060  0.00  0.00    +0.000 A 
ATOM     29  C   UNL     1      -0.599  11.325  20.531  0.00  0.00    +0.000 A 
BRANCH  27  30
ATOM     30  O   UNL     1       2.512  13.089  21.254  0.00  0.00    +0.000 OA
BRANCH  30  31
ATOM     31  C   UNL     1       3.254  14.110  20.577  0.00  0.00    +0.000 C 
BRANCH  31  32
ATOM     32  C   UNL     1       3.369  15.406  21.382  0.00  0.00    +0.000 C 
BRANCH  32  33
ATOM     33  N   UNL     1       4.073  16.457  20.610  0.00  0.00    +0.000 NA
ATOM     34  C   UNL     1       5.254  15.947  19.908  0.00  0.00    +0.000 C 
ATOM     35  C   UNL     1       3.163  17.090  19.659  0.00  0.00    +0.000 C 
ENDBRANCH  32  33
ENDBRANCH  31  32
ENDBRANCH  30  31
ENDBRANCH  27  30
ENDBRANCH   2  24
TORSDOF 10
ENDMDL
MODEL 8
REMARK VINA RESULT:      -6.2      1.622      2.505
REMARK  Name = 
REMARK  14 active torsions:
REMARK  status: ('A' for Active; 'I' for Inactive)
REMARK    1  A    between atoms: C_1  and  N_2
REMARK    2  A    between atoms: N_2  and  C_3
REMARK    3  A    between atoms: N_2  and  C_4
REMARK    4  A    between atoms: C_4  and  C_5
REMARK    5  A    between atoms: C_5  and  O_6
REMARK    6  A    between atoms: O_6  and  C_7
REMARK    7  A    between atoms: C_10  and  C_11
REMARK    8  A    between atoms: C_12  and  C_13
REMARK    9  A    between atoms: C_16  and  O_17
REMARK   10  A    between atoms: O_17  and  C_18
REMARK   11  A    between atoms: C_18  and  C_19
REMARK   12  A    between atoms: C_19  and  N_20
REMARK   13  A    between atoms: N_20  and  C_21
REMARK   14  A    between atoms: N_20  and  C_22
REMARK                            x       y       z     vdW  Elec       q    Type
REMARK                         _______ _______ _______ _____ _____    ______ ____
ROOT
ATOM      1  C   UNL     1      10.414  13.835  18.156  0.00  0.00    +0.000 A 
ATOM      2  C   UNL     1      10.296  14.741  19.155  0.00  0.00    +0.000 A 
ATOM      3  C   UNL     1      10.953  16.053  18.981  0.00  0.00    +0.000 A 
ATOM      4  C   UNL     1      11.212  16.925  20.049  0.00  0.00    +0.000 A 
ATOM      5  C   UNL     1      11.724  18.203  19.814  0.00  0.00    +0.000 A 
ATOM      6  C   UNL     1      11.960  18.630  18.509  0.00  0.00    +0.000 A 
ATOM      7  C   UNL     1      11.746  17.757  17.444  0.00  0.00    +0.000 A 
ATOM      8  C   UNL     1      11.281  16.468  17.700  0.00  0.00    +0.000 A 
ATOM      9  O   UNL     1      11.212  15.579  16.622  0.00  0.00    +0.000 OA
ATOM     10  C   UNL     1      11.120  14.222  16.896  0.00  0.00    +0.000 A 
ATOM     11  O   UNL     1      11.518  13.389  16.083  0.00  0.00    +0.000 OA
ENDROOT
BRANCH   1  15
ATOM     12  C   UNL     1       8.640   9.926  18.510  0.00  0.00    +0.000 A 
ATOM     13  C   UNL     1       9.914  10.202  19.018  0.00  0.00    +0.000 A 
ATOM     14  C   UNL     1      10.493  11.464  18.862  0.00  0.00    +0.000 A 
ATOM     15  C   UNL     1       9.811  12.483  18.194  0.00  0.00    +0.000 A 
ATOM     16  C   UNL     1       8.543  12.207  17.663  0.00  0.00    +0.000 A 
ATOM     17  C   UNL     1       7.963  10.934  17.820  0.00  0.00    +0.000 A 
BRANCH  12  18
ATOM     18  O   UNL     1       7.980   8.721  18.646  0.00  0.00    +0.000 OA
BRANCH  18  19
ATOM     19  C   UNL     1       7.927   7.946  17.440  0.00  0.00    +0.000 C 
BRANCH  19  20
ATOM     20  C   UNL     1       6.687   7.041  17.352  0.00  0.00    +0.000 C 
BRANCH  20  22
ATOM     21  C   UNL     1       5.462   5.430  18.688  0.00  0.00    +0.000 C 
ATOM     22  N   UNL     1       6.789   5.859  18.244  0.00  0.00    +0.000 NA
ATOM     23  C   UNL     1       7.484   4.734  17.615  0.00  0.00    +0.000 C 
ENDBRANCH  20  22
ENDBRANCH  19  20
ENDBRANCH  18  19
ENDBRANCH  12  18
ENDBRANCH   1  15
BRANCH   2  24
ATOM     24  C   UNL     1       9.510  14.453  20.373  0.00  0.00    +0.000 A 
ATOM     25  C   UNL     1       8.153  14.755  20.383  0.00  0.00    +0.000 A 
ATOM     26  C   UNL     1       7.355  14.312  21.430  0.00  0.00    +0.000 A 
ATOM     27  C   UNL     1       7.893  13.562  22.486  0.00  0.00    +0.000 A 
ATOM     28  C   UNL     1       9.263  13.282  22.491  0.00  0.00    +0.000 A 
ATOM     29  C   UNL     1      10.067  13.725  21.433  0.00  0.00    +0.000 A 
BRANCH  27  30
ATOM     30  O   UNL     1       7.162  13.047  23.534  0.00  0.00    +0.000 OA
BRANCH  30  31
ATOM     31  C   UNL     1       7.949  12.845  24.713  0.00  0.00    +0.000 C 
BRANCH  31  32
ATOM     32  C   UNL     1       7.261  11.961  25.754  0.00  0.00    +0.000 C 
BRANCH  32  33
ATOM     33  N   UNL     1       5.786  12.060  25.653  0.00  0.00    +0.000 NA
ATOM     34  C   UNL     1       5.121  10.762  25.794  0.00  0.00    +0.000 C 
ATOM     35  C   UNL     1       5.266  12.996  26.647  0.00  0.00    +0.000 C 
ENDBRANCH  32  33
ENDBRANCH  31  32
ENDBRANCH  30  31
ENDBRANCH  27  30
ENDBRANCH   2  24
TORSDOF 10
ENDMDL
MODEL 9
REMARK VINA RESULT:      -6.2      8.366     10.294
REMARK  Name = 
REMARK  14 active torsions:
REMARK  status: ('A' for Active; 'I' for Inactive)
REMARK    1  A    between atoms: C_1  and  N_2
REMARK    2  A    between atoms: N_2  and  C_3
REMARK    3  A    between atoms: N_2  and  C_4
REMARK    4  A    between atoms: C_4  and  C_5
REMARK    5  A    between atoms: C_5  and  O_6
REMARK    6  A    between atoms: O_6  and  C_7
REMARK    7  A    between atoms: C_10  and  C_11
REMARK    8  A    between atoms: C_12  and  C_13
REMARK    9  A    between atoms: C_16  and  O_17
REMARK   10  A    between atoms: O_17  and  C_18
REMARK   11  A    between atoms: C_18  and  C_19
REMARK   12  A    between atoms: C_19  and  N_20
REMARK   13  A    between atoms: N_20  and  C_21
REMARK   14  A    between atoms: N_20  and  C_22
REMARK                            x       y       z     vdW  Elec       q    Type
REMARK                         _______ _______ _______ _____ _____    ______ ____
ROOT
ATOM      1  C   UNL     1       0.979  12.899  20.244  0.00  0.00    +0.000 A 
ATOM      2  C   UNL     1      -0.066  13.614  19.763  0.00  0.00    +0.000 A 
ATOM      3  C   UNL     1       0.042  15.087  19.770  0.00  0.00    +0.000 A 
ATOM      4  C   UNL     1      -1.069  15.934  19.645  0.00  0.00    +0.000 A 
ATOM      5  C   UNL     1      -0.900  17.317  19.535  0.00  0.00    +0.000 A 
ATOM      6  C   UNL     1       0.382  17.863  19.526  0.00  0.00    +0.000 A 
ATOM      7  C   UNL     1       1.491  17.034  19.693  0.00  0.00    +0.000 A 
ATOM      8  C   UNL     1       1.301  15.662  19.850  0.00  0.00    +0.000 A 
ATOM      9  O   UNL     1       2.423  14.884  20.153  0.00  0.00    +0.000 OA
ATOM     10  C   UNL     1       2.219  13.615  20.676  0.00  0.00    +0.000 A 
ATOM     11  O   UNL     1       3.074  13.080  21.380  0.00  0.00    +0.000 OA
ENDROOT
BRANCH   1  15
ATOM     12  C   UNL     1       1.311   8.606  20.384  0.00  0.00    +0.000 A 
ATOM     13  C   UNL     1       1.595   9.326  19.218  0.00  0.00    +0.000 A 
ATOM     14  C   UNL     1       1.444  10.715  19.176  0.00  0.00    +0.000 A 
ATOM     15  C   UNL     1       1.009  11.419  20.300  0.00  0.00    +0.000 A 
ATOM     16  C   UNL     1       0.703  10.701  21.466  0.00  0.00    +0.000 A 
ATOM     17  C   UNL     1       0.852   9.303  21.504  0.00  0.00    +0.000 A 
BRANCH  12  18
ATOM     18  O   UNL     1       1.461   7.241  20.523  0.00  0.00    +0.000 OA
BRANCH  18  19
ATOM     19  C   UNL     1       2.430   6.668  19.634  0.00  0.00    +0.000 C 
BRANCH  19  20
ATOM     20  C   UNL     1       2.803   5.220  19.992  0.00  0.00    +0.000 C 
BRANCH  20  22
ATOM     21  C   UNL     1       0.850   3.796  19.793  0.00  0.00    +0.000 C 
ATOM     22  N   UNL     1       1.716   4.523  20.723  0.00  0.00    +0.000 NA
ATOM     23  C   UNL     1       2.221   3.603  21.745  0.00  0.00    +0.000 C 
ENDBRANCH  20  22
ENDBRANCH  19  20
ENDBRANCH  18  19
ENDBRANCH  12  18
ENDBRANCH   1  15
BRANCH   2  24
ATOM     24  C   UNL     1      -1.268  12.953  19.214  0.00  0.00    +0.000 A 
ATOM     25  C   UNL     1      -1.210  12.406  17.938  0.00  0.00    +0.000 A 
ATOM     26  C   UNL     1      -2.252  11.609  17.481  0.00  0.00    +0.000 A 
ATOM     27  C   UNL     1      -3.369  11.343  18.285  0.00  0.00    +0.000 A 
ATOM     28  C   UNL     1      -3.442  11.916  19.558  0.00  0.00    +0.000 A 
ATOM     29  C   UNL     1      -2.390  12.717  20.021  0.00  0.00    +0.000 A 
BRANCH  27  30
ATOM     30  O   UNL     1      -4.419  10.526  17.924  0.00  0.00    +0.000 OA
BRANCH  30  31
ATOM     31  C   UNL     1      -5.688  11.184  18.005  0.00  0.00    +0.000 C 
BRANCH  31  32
ATOM     32  C   UNL     1      -5.819  12.363  17.040  0.00  0.00    +0.000 C 
BRANCH  32  33
ATOM     33  N   UNL     1      -6.512  13.507  17.678  0.00  0.00    +0.000 NA
ATOM     34  C   UNL     1      -6.948  14.517  16.710  0.00  0.00    +0.000 C 
ATOM     35  C   UNL     1      -7.654  13.041  18.461  0.00  0.00    +0.000 C 
ENDBRANCH  32  33
ENDBRANCH  31  32
ENDBRANCH  30  31
ENDBRANCH  27  30
ENDBRANCH   2  24
TORSDOF 10
ENDMDL
