MODEL 1
REMARK VINA RESULT:      -8.2      0.000      0.000
REMARK  Name = 
REMARK  6 active torsions:
REMARK  status: ('A' for Active; 'I' for Inactive)
REMARK    1  A    between atoms: C_1  and  C_2
REMARK    2  A    between atoms: C_3  and  C_4
REMARK    3  A    between atoms: C_4  and  O_5
REMARK    4  A    between atoms: C_4  and  C_6
REMARK    5  A    between atoms: C_6  and  N_7
REMARK    6  A    between atoms: N_15  and  C_16
REMARK                            x       y       z     vdW  Elec       q    Type
REMARK                         _______ _______ _______ _____ _____    ______ ____
ROOT
ATOM      1  N   UNL     1       1.872   8.775  19.287  0.00  0.00    +0.000 NA
ATOM      2  C   UNL     1       1.012   9.183  20.417  0.00  0.00    +0.000 C 
ATOM      3  C   UNL     1      -0.434   9.531  20.030  0.00  0.00    +0.000 C 
ATOM      4  C   UNL     1      -0.531  10.513  18.845  0.00  0.00    +0.000 C 
ATOM      5  C   UNL     1       0.509  10.213  17.752  0.00  0.00    +0.000 C 
ATOM      6  C   UNL     1       1.887   9.851  18.294  0.00  0.00    +0.000 C 
ATOM      7  C   UNL     1      -0.468  11.983  19.291  0.00  0.00    +0.000 C 
ATOM      8  C   UNL     1      -1.911  12.388  19.522  0.00  0.00    +0.000 C 
ATOM      9  N   UNL     1      -2.701  11.498  18.701  0.00  0.00    +0.000 N 
ATOM     10  C   UNL     1      -1.938  10.413  18.245  0.00  0.00    +0.000 C 
ATOM     11  O   UNL     1      -2.292   9.536  17.477  0.00  0.00    +0.000 OA
ENDROOT
BRANCH   9  12
ATOM     12  C   UNL     1      -4.030  11.725  18.412  0.00  0.00    +0.000 C 
ATOM     13  C   UNL     1      -5.046  12.006  19.236  0.00  0.00    +0.000 C 
ATOM     14 CL   UNL     1      -5.056  12.346  20.892  0.00  0.00    +0.000 Cl
ATOM     15  C   UNL     1      -6.247  12.194  18.410  0.00  0.00    +0.000 C 
ATOM     16  O   UNL     1      -7.358  12.503  18.802  0.00  0.00    +0.000 OA
ATOM     17  O   UNL     1      -5.924  11.995  17.102  0.00  0.00    +0.000 OA
ATOM     18  C   UNL     1      -4.532  11.700  17.010  0.00  0.00    +0.000 C 
ENDBRANCH   9  12
BRANCH   1  19
ATOM     19  C   UNL     1       1.460   7.447  18.763  0.00  0.00    +0.000 C 
BRANCH  19  20
ATOM     20  C   UNL     1       2.423   6.232  18.960  0.00  0.00    +0.000 C 
BRANCH  20  23
ATOM     21  C   UNL     1       2.922   3.391  17.691  0.00  0.00    +0.000 C 
ATOM     22  C   UNL     1       3.725   4.622  17.373  0.00  0.00    +0.000 A 
ATOM     23  C   UNL     1       3.513   5.913  17.927  0.00  0.00    +0.000 A 
ATOM     24  C   UNL     1       4.432   6.951  17.581  0.00  0.00    +0.000 A 
ATOM     25  C   UNL     1       5.497   6.755  16.702  0.00  0.00    +0.000 A 
ATOM     26  C   UNL     1       5.648   5.497  16.171  0.00  0.00    +0.000 A 
ATOM     27  C   UNL     1       4.798   4.459  16.485  0.00  0.00    +0.000 A 
ATOM     28  C   UNL     1       5.267   3.245  15.776  0.00  0.00    +0.000 C 
ATOM     29  O   UNL     1       6.428   3.694  15.050  0.00  0.00    +0.000 OA
ATOM     30  C   UNL     1       6.686   5.018  15.268  0.00  0.00    +0.000 C 
ATOM     31  O   UNL     1       7.600   5.669  14.804  0.00  0.00    +0.000 OA
ENDBRANCH  20  23
BRANCH  20  32
ATOM     32  O   UNL     1       3.004   6.375  20.268  0.00  0.00    +0.000 OA
ATOM     33  H   UNL     1       2.625   5.641  20.790  0.00  0.00    +0.000 HD
ENDBRANCH  20  32
ENDBRANCH  19  20
ENDBRANCH   1  19
TORSDOF 5
ENDMDL
MODEL 2
REMARK VINA RESULT:      -8.2      4.486      9.975
REMARK  Name = 
REMARK  6 active torsions:
REMARK  status: ('A' for Active; 'I' for Inactive)
REMARK    1  A    between atoms: C_1  and  C_2
REMARK    2  A    between atoms: C_3  and  C_4
REMARK    3  A    between atoms: C_4  and  O_5
REMARK    4  A    between atoms: C_4  and  C_6
REMARK    5  A    between atoms: C_6  and  N_7
REMARK    6  A    between atoms: N_15  and  C_16
REMARK                            x       y       z     vdW  Elec       q    Type
REMARK                         _______ _______ _______ _____ _____    ______ ____
ROOT
ATOM      1  N   UNL     1       1.700   3.867  20.485  0.00  0.00    +0.000 NA
ATOM      2  C   UNL     1       2.942   3.070  20.408  0.00  0.00    +0.000 C 
ATOM      3  C   UNL     1       3.949   3.551  19.351  0.00  0.00    +0.000 C 
ATOM      4  C   UNL     1       3.318   3.774  17.962  0.00  0.00    +0.000 C 
ATOM      5  C   UNL     1       1.925   4.421  18.051  0.00  0.00    +0.000 C 
ATOM      6  C   UNL     1       1.055   3.861  19.171  0.00  0.00    +0.000 C 
ATOM      7  C   UNL     1       3.288   2.491  17.115  0.00  0.00    +0.000 C 
ATOM      8  C   UNL     1       4.588   2.502  16.337  0.00  0.00    +0.000 C 
ATOM      9  N   UNL     1       4.983   3.891  16.255  0.00  0.00    +0.000 N 
ATOM     10  C   UNL     1       4.246   4.683  17.148  0.00  0.00    +0.000 C 
ATOM     11  O   UNL     1       4.289   5.895  17.263  0.00  0.00    +0.000 OA
ENDROOT
BRANCH   9  12
ATOM     12  C   UNL     1       5.952   4.345  15.387  0.00  0.00    +0.000 C 
ATOM     13  C   UNL     1       6.043   4.205  14.060  0.00  0.00    +0.000 C 
ATOM     14 CL   UNL     1       4.942   3.573  12.944  0.00  0.00    +0.000 Cl
ATOM     15  C   UNL     1       7.254   4.914  13.621  0.00  0.00    +0.000 C 
ATOM     16  O   UNL     1       7.646   5.042  12.476  0.00  0.00    +0.000 OA
ATOM     17  O   UNL     1       7.878   5.445  14.709  0.00  0.00    +0.000 OA
ATOM     18  C   UNL     1       7.115   5.139  15.874  0.00  0.00    +0.000 C 
ENDBRANCH   9  12
BRANCH   1  19
ATOM     19  C   UNL     1       1.974   5.218  21.041  0.00  0.00    +0.000 C 
BRANCH  19  20
ATOM     20  C   UNL     1       2.215   6.402  20.048  0.00  0.00    +0.000 C 
BRANCH  20  23
ATOM     21  C   UNL     1       1.972   8.664  17.868  0.00  0.00    +0.000 C 
ATOM     22  C   UNL     1       1.460   8.777  19.278  0.00  0.00    +0.000 A 
ATOM     23  C   UNL     1       1.552   7.768  20.274  0.00  0.00    +0.000 A 
ATOM     24  C   UNL     1       1.093   8.081  21.591  0.00  0.00    +0.000 A 
ATOM     25  C   UNL     1       0.533   9.314  21.923  0.00  0.00    +0.000 A 
ATOM     26  C   UNL     1       0.441  10.250  20.922  0.00  0.00    +0.000 A 
ATOM     27  C   UNL     1       0.882  10.003  19.640  0.00  0.00    +0.000 A 
ATOM     28  C   UNL     1       0.671  11.227  18.832  0.00  0.00    +0.000 C 
ATOM     29  O   UNL     1       0.079  12.157  19.761  0.00  0.00    +0.000 OA
ATOM     30  C   UNL     1      -0.062  11.614  21.006  0.00  0.00    +0.000 C 
ATOM     31  O   UNL     1      -0.517  12.159  21.991  0.00  0.00    +0.000 OA
ENDBRANCH  20  23
BRANCH  20  32
ATOM     32  O   UNL     1       3.640   6.555  19.928  0.00  0.00    +0.000 OA
ATOM     33  H   UNL     1       3.887   7.162  20.653  0.00  0.00    +0.000 HD
ENDBRANCH  20  32
ENDBRANCH  19  20
ENDBRANCH   1  19
TORSDOF 5
ENDMDL
MODEL 3
REMARK VINA RESULT:      -8.1      3.233      3.918
REMARK  Name = 
REMARK  6 active torsions:
REMARK  status: ('A' for Active; 'I' for Inactive)
REMARK    1  A    between atoms: C_1  and  C_2
REMARK    2  A    between atoms: C_3  and  C_4
REMARK    3  A    between atoms: C_4  and  O_5
REMARK    4  A    between atoms: C_4  and  C_6
REMARK    5  A    between atoms: C_6  and  N_7
REMARK    6  A    between atoms: N_15  and  C_16
REMARK                            x       y       z     vdW  Elec       q    Type
REMARK                         _______ _______ _______ _____ _____    ______ ____
ROOT
ATOM      1  N   UNL     1       1.407   9.588  18.103  0.00  0.00    +0.000 NA
ATOM      2  C   UNL     1       1.898  10.982  18.114  0.00  0.00    +0.000 C 
ATOM      3  C   UNL     1       1.543  11.777  19.380  0.00  0.00    +0.000 C 
ATOM      4  C   UNL     1       0.053  11.686  19.762  0.00  0.00    +0.000 C 
ATOM      5  C   UNL     1      -0.518  10.273  19.554  0.00  0.00    +0.000 C 
ATOM      6  C   UNL     1      -0.047   9.601  18.269  0.00  0.00    +0.000 C 
ATOM      7  C   UNL     1      -0.804  12.747  19.051  0.00  0.00    +0.000 C 
ATOM      8  C   UNL     1      -0.813  13.939  19.988  0.00  0.00    +0.000 C 
ATOM      9  N   UNL     1      -0.560  13.401  21.306  0.00  0.00    +0.000 N 
ATOM     10  C   UNL     1      -0.096  12.079  21.236  0.00  0.00    +0.000 C 
ATOM     11  O   UNL     1       0.133  11.329  22.170  0.00  0.00    +0.000 OA
ENDROOT
BRANCH   9  12
ATOM     12  C   UNL     1      -0.773  14.119  22.463  0.00  0.00    +0.000 C 
ATOM     13  C   UNL     1      -1.707  13.958  23.407  0.00  0.00    +0.000 C 
ATOM     14 CL   UNL     1      -2.856  12.735  23.620  0.00  0.00    +0.000 Cl
ATOM     15  C   UNL     1      -1.465  14.967  24.449  0.00  0.00    +0.000 C 
ATOM     16  O   UNL     1      -2.086  15.104  25.486  0.00  0.00    +0.000 OA
ATOM     17  O   UNL     1      -0.396  15.730  24.087  0.00  0.00    +0.000 OA
ATOM     18  C   UNL     1       0.111  15.256  22.842  0.00  0.00    +0.000 C 
ENDBRANCH   9  12
BRANCH   1  19
ATOM     19  C   UNL     1       2.143   8.762  19.095  0.00  0.00    +0.000 C 
BRANCH  19  20
ATOM     20  C   UNL     1       2.227   7.217  18.867  0.00  0.00    +0.000 C 
BRANCH  20  23
ATOM     21  C   UNL     1       2.418   4.171  18.083  0.00  0.00    +0.000 C 
ATOM     22  C   UNL     1       3.386   5.231  17.635  0.00  0.00    +0.000 A 
ATOM     23  C   UNL     1       3.315   6.610  17.970  0.00  0.00    +0.000 A 
ATOM     24  C   UNL     1       4.375   7.463  17.531  0.00  0.00    +0.000 A 
ATOM     25  C   UNL     1       5.446   7.004  16.766  0.00  0.00    +0.000 A 
ATOM     26  C   UNL     1       5.460   5.668  16.445  0.00  0.00    +0.000 A 
ATOM     27  C   UNL     1       4.471   4.801  16.856  0.00  0.00    +0.000 A 
ATOM     28  C   UNL     1       4.813   3.443  16.373  0.00  0.00    +0.000 C 
ATOM     29  O   UNL     1       6.055   3.629  15.667  0.00  0.00    +0.000 OA
ATOM     30  C   UNL     1       6.469   4.930  15.697  0.00  0.00    +0.000 C 
ATOM     31  O   UNL     1       7.480   5.385  15.201  0.00  0.00    +0.000 OA
ENDBRANCH  20  23
BRANCH  20  32
ATOM     32  O   UNL     1       2.262   6.610  20.171  0.00  0.00    +0.000 OA
ATOM     33  H   UNL     1       3.043   6.023  20.151  0.00  0.00    +0.000 HD
ENDBRANCH  20  32
ENDBRANCH  19  20
ENDBRANCH   1  19
TORSDOF 5
ENDMDL
MODEL 4
REMARK VINA RESULT:      -7.9      3.486     10.979
REMARK  Name = 
REMARK  6 active torsions:
REMARK  status: ('A' for Active; 'I' for Inactive)
REMARK    1  A    between atoms: C_1  and  C_2
REMARK    2  A    between atoms: C_3  and  C_4
REMARK    3  A    between atoms: C_4  and  O_5
REMARK    4  A    between atoms: C_4  and  C_6
REMARK    5  A    between atoms: C_6  and  N_7
REMARK    6  A    between atoms: N_15  and  C_16
REMARK                            x       y       z     vdW  Elec       q    Type
REMARK                         _______ _______ _______ _____ _____    ______ ____
ROOT
ATOM      1  N   UNL     1      -0.809  11.749  19.925  0.00  0.00    +0.000 NA
ATOM      2  C   UNL     1      -1.116  10.714  18.917  0.00  0.00    +0.000 C 
ATOM      3  C   UNL     1      -0.356   9.391  19.104  0.00  0.00    +0.000 C 
ATOM      4  C   UNL     1       1.162   9.579  19.298  0.00  0.00    +0.000 C 
ATOM      5  C   UNL     1       1.491  10.791  20.187  0.00  0.00    +0.000 C 
ATOM      6  C   UNL     1       0.630  12.016  19.904  0.00  0.00    +0.000 C 
ATOM      7  C   UNL     1       1.923   9.640  17.964  0.00  0.00    +0.000 C 
ATOM      8  C   UNL     1       2.312   8.205  17.666  0.00  0.00    +0.000 C 
ATOM      9  N   UNL     1       2.347   7.536  18.948  0.00  0.00    +0.000 N 
ATOM     10  C   UNL     1       1.730   8.310  19.942  0.00  0.00    +0.000 C 
ATOM     11  O   UNL     1       1.664   8.060  21.133  0.00  0.00    +0.000 OA
ENDROOT
BRANCH   9  12
ATOM     12  C   UNL     1       2.934   6.303  19.135  0.00  0.00    +0.000 C 
ATOM     13  C   UNL     1       2.469   5.227  19.779  0.00  0.00    +0.000 C 
ATOM     14 CL   UNL     1       0.948   4.920  20.452  0.00  0.00    +0.000 Cl
ATOM     15  C   UNL     1       3.475   4.163  19.648  0.00  0.00    +0.000 C 
ATOM     16  O   UNL     1       3.387   3.024  20.069  0.00  0.00    +0.000 OA
ATOM     17  O   UNL     1       4.538   4.640  18.943  0.00  0.00    +0.000 OA
ATOM     18  C   UNL     1       4.276   5.991  18.571  0.00  0.00    +0.000 C 
ENDBRANCH   9  12
BRANCH   1  19
ATOM     19  C   UNL     1      -1.355  11.370  21.254  0.00  0.00    +0.000 C 
BRANCH  19  20
ATOM     20  C   UNL     1      -1.834  12.503  22.219  0.00  0.00    +0.000 C 
BRANCH  20  23
ATOM     21  C   UNL     1      -4.207  12.861  20.177  0.00  0.00    +0.000 C 
ATOM     22  C   UNL     1      -4.367  12.803  21.672  0.00  0.00    +0.000 A 
ATOM     23  C   UNL     1      -3.312  12.635  22.609  0.00  0.00    +0.000 A 
ATOM     24  C   UNL     1      -3.635  12.696  24.001  0.00  0.00    +0.000 A 
ATOM     25  C   UNL     1      -4.937  12.877  24.467  0.00  0.00    +0.000 A 
ATOM     26  C   UNL     1      -5.928  13.009  23.524  0.00  0.00    +0.000 A 
ATOM     27  C   UNL     1      -5.666  12.973  22.171  0.00  0.00    +0.000 A 
ATOM     28  C   UNL     1      -6.941  13.184  21.446  0.00  0.00    +0.000 C 
ATOM     29  O   UNL     1      -7.917  13.333  22.497  0.00  0.00    +0.000 OA
ATOM     30  C   UNL     1      -7.350  13.244  23.736  0.00  0.00    +0.000 C 
ATOM     31  O   UNL     1      -7.916  13.341  24.805  0.00  0.00    +0.000 OA
ENDBRANCH  20  23
BRANCH  20  32
ATOM     32  O   UNL     1      -1.015  12.414  23.398  0.00  0.00    +0.000 OA
ATOM     33  H   UNL     1      -0.138  12.741  23.117  0.00  0.00    +0.000 HD
ENDBRANCH  20  32
ENDBRANCH  19  20
ENDBRANCH   1  19
TORSDOF 5
ENDMDL
MODEL 5
REMARK VINA RESULT:      -7.8      3.627      4.967
REMARK  Name = 
REMARK  6 active torsions:
REMARK  status: ('A' for Active; 'I' for Inactive)
REMARK    1  A    between atoms: C_1  and  C_2
REMARK    2  A    between atoms: C_3  and  C_4
REMARK    3  A    between atoms: C_4  and  O_5
REMARK    4  A    between atoms: C_4  and  C_6
REMARK    5  A    between atoms: C_6  and  N_7
REMARK    6  A    between atoms: N_15  and  C_16
REMARK                            x       y       z     vdW  Elec       q    Type
REMARK                         _______ _______ _______ _____ _____    ______ ____
ROOT
ATOM      1  N   UNL     1       1.067  10.127  18.307  0.00  0.00    +0.000 NA
ATOM      2  C   UNL     1       1.485  11.488  18.700  0.00  0.00    +0.000 C 
ATOM      3  C   UNL     1       0.853  12.002  20.003  0.00  0.00    +0.000 C 
ATOM      4  C   UNL     1      -0.678  11.831  20.050  0.00  0.00    +0.000 C 
ATOM      5  C   UNL     1      -1.134  10.490  19.448  0.00  0.00    +0.000 C 
ATOM      6  C   UNL     1      -0.391  10.101  18.176  0.00  0.00    +0.000 C 
ATOM      7  C   UNL     1      -1.424  13.015  19.412  0.00  0.00    +0.000 C 
ATOM      8  C   UNL     1      -1.669  13.986  20.550  0.00  0.00    +0.000 C 
ATOM      9  N   UNL     1      -1.658  13.186  21.754  0.00  0.00    +0.000 N 
ATOM     10  C   UNL     1      -1.131  11.909  21.512  0.00  0.00    +0.000 C 
ATOM     11  O   UNL     1      -1.058  10.982  22.300  0.00  0.00    +0.000 OA
ENDROOT
BRANCH   9  12
ATOM     12  C   UNL     1      -2.126  13.647  22.966  0.00  0.00    +0.000 C 
ATOM     13  C   UNL     1      -1.617  14.582  23.777  0.00  0.00    +0.000 C 
ATOM     14 CL   UNL     1      -0.325  15.648  23.551  0.00  0.00    +0.000 Cl
ATOM     15  C   UNL     1      -2.528  14.718  24.923  0.00  0.00    +0.000 C 
ATOM     16  O   UNL     1      -2.418  15.501  25.849  0.00  0.00    +0.000 OA
ATOM     17  O   UNL     1      -3.557  13.837  24.781  0.00  0.00    +0.000 OA
ATOM     18  C   UNL     1      -3.385  13.120  23.561  0.00  0.00    +0.000 C 
ENDBRANCH   9  12
BRANCH   1  19
ATOM     19  C   UNL     1       1.629   9.113  19.237  0.00  0.00    +0.000 C 
BRANCH  19  20
ATOM     20  C   UNL     1       2.545   7.987  18.656  0.00  0.00    +0.000 C 
BRANCH  20  23
ATOM     21  C   UNL     1       4.687   5.785  17.956  0.00  0.00    +0.000 C 
ATOM     22  C   UNL     1       3.629   5.642  19.015  0.00  0.00    +0.000 A 
ATOM     23  C   UNL     1       2.659   6.624  19.352  0.00  0.00    +0.000 A 
ATOM     24  C   UNL     1       1.668   6.284  20.324  0.00  0.00    +0.000 A 
ATOM     25  C   UNL     1       1.638   5.049  20.972  0.00  0.00    +0.000 A 
ATOM     26  C   UNL     1       2.611   4.140  20.633  0.00  0.00    +0.000 A 
ATOM     27  C   UNL     1       3.579   4.414  19.691  0.00  0.00    +0.000 A 
ATOM     28  C   UNL     1       4.434   3.214  19.542  0.00  0.00    +0.000 C 
ATOM     29  O   UNL     1       3.869   2.268  20.470  0.00  0.00    +0.000 OA
ATOM     30  C   UNL     1       2.785   2.780  21.125  0.00  0.00    +0.000 C 
ATOM     31  O   UNL     1       2.100   2.216  21.953  0.00  0.00    +0.000 OA
ENDBRANCH  20  23
BRANCH  20  32
ATOM     32  O   UNL     1       2.161   7.813  17.280  0.00  0.00    +0.000 OA
ATOM     33  H   UNL     1       2.989   7.578  16.819  0.00  0.00    +0.000 HD
ENDBRANCH  20  32
ENDBRANCH  19  20
ENDBRANCH   1  19
TORSDOF 5
ENDMDL
MODEL 6
REMARK VINA RESULT:      -7.8      1.518      1.682
REMARK  Name = 
REMARK  6 active torsions:
REMARK  status: ('A' for Active; 'I' for Inactive)
REMARK    1  A    between atoms: C_1  and  C_2
REMARK    2  A    between atoms: C_3  and  C_4
REMARK    3  A    between atoms: C_4  and  O_5
REMARK    4  A    between atoms: C_4  and  C_6
REMARK    5  A    between atoms: C_6  and  N_7
REMARK    6  A    between atoms: N_15  and  C_16
REMARK                            x       y       z     vdW  Elec       q    Type
REMARK                         _______ _______ _______ _____ _____    ______ ____
ROOT
ATOM      1  N   UNL     1       2.014   8.115  19.894  0.00  0.00    +0.000 NA
ATOM      2  C   UNL     1       1.417   9.014  20.903  0.00  0.00    +0.000 C 
ATOM      3  C   UNL     1       0.013   9.530  20.552  0.00  0.00    +0.000 C 
ATOM      4  C   UNL     1      -0.087  10.112  19.128  0.00  0.00    +0.000 C 
ATOM      5  C   UNL     1       0.710   9.287  18.103  0.00  0.00    +0.000 C 
ATOM      6  C   UNL     1       2.069   8.818  18.611  0.00  0.00    +0.000 C 
ATOM      7  C   UNL     1       0.298  11.600  19.071  0.00  0.00    +0.000 C 
ATOM      8  C   UNL     1      -1.001  12.351  19.284  0.00  0.00    +0.000 C 
ATOM      9  N   UNL     1      -2.049  11.447  18.864  0.00  0.00    +0.000 N 
ATOM     10  C   UNL     1      -1.563  10.139  18.716  0.00  0.00    +0.000 C 
ATOM     11  O   UNL     1      -2.176   9.170  18.304  0.00  0.00    +0.000 OA
ENDROOT
BRANCH   9  12
ATOM     12  C   UNL     1      -3.345  11.855  18.634  0.00  0.00    +0.000 C 
ATOM     13  C   UNL     1      -4.077  11.782  17.517  0.00  0.00    +0.000 C 
ATOM     14 CL   UNL     1      -3.753  11.026  16.039  0.00  0.00    +0.000 Cl
ATOM     15  C   UNL     1      -5.409  12.324  17.822  0.00  0.00    +0.000 C 
ATOM     16  O   UNL     1      -6.359  12.385  17.064  0.00  0.00    +0.000 OA
ATOM     17  O   UNL     1      -5.435  12.735  19.121  0.00  0.00    +0.000 OA
ATOM     18  C   UNL     1      -4.167  12.468  19.715  0.00  0.00    +0.000 C 
ENDBRANCH   9  12
BRANCH   1  19
ATOM     19  C   UNL     1       1.303   6.811  19.862  0.00  0.00    +0.000 C 
BRANCH  19  20
ATOM     20  C   UNL     1       2.141   5.497  19.986  0.00  0.00    +0.000 C 
BRANCH  20  23
ATOM     21  C   UNL     1       2.052   3.908  17.266  0.00  0.00    +0.000 C 
ATOM     22  C   UNL     1       3.292   4.519  17.859  0.00  0.00    +0.000 A 
ATOM     23  C   UNL     1       3.353   5.245  19.079  0.00  0.00    +0.000 A 
ATOM     24  C   UNL     1       4.636   5.677  19.539  0.00  0.00    +0.000 A 
ATOM     25  C   UNL     1       5.812   5.446  18.826  0.00  0.00    +0.000 A 
ATOM     26  C   UNL     1       5.701   4.762  17.640  0.00  0.00    +0.000 A 
ATOM     27  C   UNL     1       4.490   4.311  17.160  0.00  0.00    +0.000 A 
ATOM     28  C   UNL     1       4.734   3.588  15.891  0.00  0.00    +0.000 C 
ATOM     29  O   UNL     1       6.161   3.679  15.708  0.00  0.00    +0.000 OA
ATOM     30  C   UNL     1       6.763   4.359  16.728  0.00  0.00    +0.000 C 
ATOM     31  O   UNL     1       7.950   4.584  16.853  0.00  0.00    +0.000 OA
ENDBRANCH  20  23
BRANCH  20  32
ATOM     32  O   UNL     1       2.522   5.380  21.369  0.00  0.00    +0.000 OA
ATOM     33  H   UNL     1       2.324   6.255  21.755  0.00  0.00    +0.000 HD
ENDBRANCH  20  32
ENDBRANCH  19  20
ENDBRANCH   1  19
TORSDOF 5
ENDMDL
MODEL 7
REMARK VINA RESULT:      -7.8      4.376      9.870
REMARK  Name = 
REMARK  6 active torsions:
REMARK  status: ('A' for Active; 'I' for Inactive)
REMARK    1  A    between atoms: C_1  and  C_2
REMARK    2  A    between atoms: C_3  and  C_4
REMARK    3  A    between atoms: C_4  and  O_5
REMARK    4  A    between atoms: C_4  and  C_6
REMARK    5  A    between atoms: C_6  and  N_7
REMARK    6  A    between atoms: N_15  and  C_16
REMARK                            x       y       z     vdW  Elec       q    Type
REMARK                         _______ _______ _______ _____ _____    ______ ____
ROOT
ATOM      1  N   UNL     1       1.733   3.814  20.724  0.00  0.00    +0.000 NA
ATOM      2  C   UNL     1       2.993   3.053  20.606  0.00  0.00    +0.000 C 
ATOM      3  C   UNL     1       3.918   3.516  19.470  0.00  0.00    +0.000 C 
ATOM      4  C   UNL     1       3.198   3.657  18.114  0.00  0.00    +0.000 C 
ATOM      5  C   UNL     1       1.792   4.263  18.260  0.00  0.00    +0.000 C 
ATOM      6  C   UNL     1       1.011   3.729  19.454  0.00  0.00    +0.000 C 
ATOM      7  C   UNL     1       3.160   2.336  17.327  0.00  0.00    +0.000 C 
ATOM      8  C   UNL     1       4.411   2.351  16.470  0.00  0.00    +0.000 C 
ATOM      9  N   UNL     1       4.753   3.746  16.304  0.00  0.00    +0.000 N 
ATOM     10  C   UNL     1       4.045   4.555  17.205  0.00  0.00    +0.000 C 
ATOM     11  O   UNL     1       4.054   5.772  17.265  0.00  0.00    +0.000 OA
ENDROOT
BRANCH   9  12
ATOM     12  C   UNL     1       5.653   4.190  15.360  0.00  0.00    +0.000 C 
ATOM     13  C   UNL     1       6.708   5.000  15.502  0.00  0.00    +0.000 C 
ATOM     14 CL   UNL     1       7.421   5.642  16.894  0.00  0.00    +0.000 Cl
ATOM     15  C   UNL     1       7.355   5.122  14.187  0.00  0.00    +0.000 C 
ATOM     16  O   UNL     1       8.369   5.744  13.931  0.00  0.00    +0.000 OA
ATOM     17  O   UNL     1       6.651   4.394  13.276  0.00  0.00    +0.000 OA
ATOM     18  C   UNL     1       5.557   3.761  13.936  0.00  0.00    +0.000 C 
ENDBRANCH   9  12
BRANCH   1  19
ATOM     19  C   UNL     1       1.993   5.196  21.203  0.00  0.00    +0.000 C 
BRANCH  19  20
ATOM     20  C   UNL     1       2.200   6.330  20.146  0.00  0.00    +0.000 C 
BRANCH  20  23
ATOM     21  C   UNL     1       1.995   8.520  17.890  0.00  0.00    +0.000 C 
ATOM     22  C   UNL     1       1.446   8.673  19.282  0.00  0.00    +0.000 A 
ATOM     23  C   UNL     1       1.521   7.696  20.311  0.00  0.00    +0.000 A 
ATOM     24  C   UNL     1       1.025   8.046  21.605  0.00  0.00    +0.000 A 
ATOM     25  C   UNL     1       0.447   9.284  21.884  0.00  0.00    +0.000 A 
ATOM     26  C   UNL     1       0.373  10.187  20.851  0.00  0.00    +0.000 A 
ATOM     27  C   UNL     1       0.850   9.904  19.589  0.00  0.00    +0.000 A 
ATOM     28  C   UNL     1       0.649  11.100  18.739  0.00  0.00    +0.000 C 
ATOM     29  O   UNL     1       0.027  12.054  19.622  0.00  0.00    +0.000 OA
ATOM     30  C   UNL     1      -0.143  11.549  20.879  0.00  0.00    +0.000 C 
ATOM     31  O   UNL     1      -0.627  12.121  21.835  0.00  0.00    +0.000 OA
ENDBRANCH  20  23
BRANCH  20  32
ATOM     32  O   UNL     1       3.620   6.496  19.992  0.00  0.00    +0.000 OA
ATOM     33  H   UNL     1       3.757   7.463  19.974  0.00  0.00    +0.000 HD
ENDBRANCH  20  32
ENDBRANCH  19  20
ENDBRANCH   1  19
TORSDOF 5
ENDMDL
MODEL 8
REMARK VINA RESULT:      -7.8      3.809      5.193
REMARK  Name = 
REMARK  6 active torsions:
REMARK  status: ('A' for Active; 'I' for Inactive)
REMARK    1  A    between atoms: C_1  and  C_2
REMARK    2  A    between atoms: C_3  and  C_4
REMARK    3  A    between atoms: C_4  and  O_5
REMARK    4  A    between atoms: C_4  and  C_6
REMARK    5  A    between atoms: C_6  and  N_7
REMARK    6  A    between atoms: N_15  and  C_16
REMARK                            x       y       z     vdW  Elec       q    Type
REMARK                         _______ _______ _______ _____ _____    ______ ____
ROOT
ATOM      1  N   UNL     1       1.035  10.135  18.138  0.00  0.00    +0.000 NA
ATOM      2  C   UNL     1       1.653  11.470  18.280  0.00  0.00    +0.000 C 
ATOM      3  C   UNL     1       1.341  12.183  19.605  0.00  0.00    +0.000 C 
ATOM      4  C   UNL     1      -0.161  12.200  19.951  0.00  0.00    +0.000 C 
ATOM      5  C   UNL     1      -0.855  10.870  19.609  0.00  0.00    +0.000 C 
ATOM      6  C   UNL     1      -0.415  10.270  18.279  0.00  0.00    +0.000 C 
ATOM      7  C   UNL     1      -0.898  13.395  19.322  0.00  0.00    +0.000 C 
ATOM      8  C   UNL     1      -0.821  14.497  20.360  0.00  0.00    +0.000 C 
ATOM      9  N   UNL     1      -0.653  13.826  21.630  0.00  0.00    +0.000 N 
ATOM     10  C   UNL     1      -0.311  12.477  21.452  0.00  0.00    +0.000 C 
ATOM     11  O   UNL     1      -0.176  11.632  22.319  0.00  0.00    +0.000 OA
ENDROOT
BRANCH   9  12
ATOM     12  C   UNL     1      -0.828  14.459  22.842  0.00  0.00    +0.000 C 
ATOM     13  C   UNL     1      -1.746  14.246  23.790  0.00  0.00    +0.000 C 
ATOM     14 CL   UNL     1      -2.917  13.034  23.934  0.00  0.00    +0.000 Cl
ATOM     15  C   UNL     1      -1.462  15.168  24.899  0.00  0.00    +0.000 C 
ATOM     16  O   UNL     1      -2.061  15.239  25.957  0.00  0.00    +0.000 OA
ATOM     17  O   UNL     1      -0.384  15.935  24.574  0.00  0.00    +0.000 OA
ATOM     18  C   UNL     1       0.088  15.547  23.287  0.00  0.00    +0.000 C 
ENDBRANCH   9  12
BRANCH   1  19
ATOM     19  C   UNL     1       1.666   9.161  19.065  0.00  0.00    +0.000 C 
BRANCH  19  20
ATOM     20  C   UNL     1       2.518   7.996  18.463  0.00  0.00    +0.000 C 
BRANCH  20  23
ATOM     21  C   UNL     1       4.557   5.718  17.699  0.00  0.00    +0.000 C 
ATOM     22  C   UNL     1       3.562   5.633  18.823  0.00  0.00    +0.000 A 
ATOM     23  C   UNL     1       2.640   6.650  19.189  0.00  0.00    +0.000 A 
ATOM     24  C   UNL     1       1.701   6.362  20.229  0.00  0.00    +0.000 A 
ATOM     25  C   UNL     1       1.680   5.147  20.912  0.00  0.00    +0.000 A 
ATOM     26  C   UNL     1       2.607   4.203  20.541  0.00  0.00    +0.000 A 
ATOM     27  C   UNL     1       3.523   4.425  19.536  0.00  0.00    +0.000 A 
ATOM     28  C   UNL     1       4.337   3.199  19.370  0.00  0.00    +0.000 C 
ATOM     29  O   UNL     1       3.805   2.293  20.357  0.00  0.00    +0.000 OA
ATOM     30  C   UNL     1       2.776   2.852  21.060  0.00  0.00    +0.000 C 
ATOM     31  O   UNL     1       2.128   2.329  21.944  0.00  0.00    +0.000 OA
ENDBRANCH  20  23
BRANCH  20  32
ATOM     32  O   UNL     1       2.049   7.795  17.118  0.00  0.00    +0.000 OA
ATOM     33  H   UNL     1       2.852   7.846  16.564  0.00  0.00    +0.000 HD
ENDBRANCH  20  32
ENDBRANCH  19  20
ENDBRANCH   1  19
TORSDOF 5
ENDMDL
MODEL 9
REMARK VINA RESULT:      -7.8      4.337      5.568
REMARK  Name = 
REMARK  6 active torsions:
REMARK  status: ('A' for Active; 'I' for Inactive)
REMARK    1  A    between atoms: C_1  and  C_2
REMARK    2  A    between atoms: C_3  and  C_4
REMARK    3  A    between atoms: C_4  and  O_5
REMARK    4  A    between atoms: C_4  and  C_6
REMARK    5  A    between atoms: C_6  and  N_7
REMARK    6  A    between atoms: N_15  and  C_16
REMARK                            x       y       z     vdW  Elec       q    Type
REMARK                         _______ _______ _______ _____ _____    ______ ____
ROOT
ATOM      1  N   UNL     1       0.276   9.375  19.398  0.00  0.00    +0.000 NA
ATOM      2  C   UNL     1       0.712  10.182  18.240  0.00  0.00    +0.000 C 
ATOM      3  C   UNL     1       1.507  11.447  18.603  0.00  0.00    +0.000 C 
ATOM      4  C   UNL     1       0.825  12.308  19.685  0.00  0.00    +0.000 C 
ATOM      5  C   UNL     1       0.186  11.454  20.794  0.00  0.00    +0.000 C 
ATOM      6  C   UNL     1      -0.537  10.215  20.279  0.00  0.00    +0.000 C 
ATOM      7  C   UNL     1      -0.184  13.307  19.095  0.00  0.00    +0.000 C 
ATOM      8  C   UNL     1       0.615  14.569  18.837  0.00  0.00    +0.000 C 
ATOM      9  N   UNL     1       1.736  14.514  19.749  0.00  0.00    +0.000 N 
ATOM     10  C   UNL     1       1.879  13.234  20.304  0.00  0.00    +0.000 C 
ATOM     11  O   UNL     1       2.675  12.888  21.159  0.00  0.00    +0.000 OA
ENDROOT
BRANCH   9  12
ATOM     12  C   UNL     1       2.533  15.605  20.025  0.00  0.00    +0.000 C 
ATOM     13  C   UNL     1       3.663  16.006  19.434  0.00  0.00    +0.000 C 
ATOM     14 CL   UNL     1       4.440  15.435  18.045  0.00  0.00    +0.000 Cl
ATOM     15  C   UNL     1       4.089  17.252  20.089  0.00  0.00    +0.000 C 
ATOM     16  O   UNL     1       5.053  17.934  19.796  0.00  0.00    +0.000 OA
ATOM     17  O   UNL     1       3.207  17.555  21.082  0.00  0.00    +0.000 OA
ATOM     18  C   UNL     1       2.182  16.566  21.108  0.00  0.00    +0.000 C 
ENDBRANCH   9  12
BRANCH   1  19
ATOM     19  C   UNL     1       1.439   8.723  20.055  0.00  0.00    +0.000 C 
BRANCH  19  20
ATOM     20  C   UNL     1       1.664   7.191  19.833  0.00  0.00    +0.000 C 
BRANCH  20  23
ATOM     21  C   UNL     1       2.050   4.164  19.050  0.00  0.00    +0.000 C 
ATOM     22  C   UNL     1       2.782   5.312  18.411  0.00  0.00    +0.000 A 
ATOM     23  C   UNL     1       2.618   6.684  18.744  0.00  0.00    +0.000 A 
ATOM     24  C   UNL     1       3.465   7.637  18.097  0.00  0.00    +0.000 A 
ATOM     25  C   UNL     1       4.412   7.279  17.139  0.00  0.00    +0.000 A 
ATOM     26  C   UNL     1       4.518   5.944  16.831  0.00  0.00    +0.000 A 
ATOM     27  C   UNL     1       3.736   4.984  17.436  0.00  0.00    +0.000 A 
ATOM     28  C   UNL     1       4.133   3.659  16.906  0.00  0.00    +0.000 C 
ATOM     29  O   UNL     1       5.183   3.963  15.966  0.00  0.00    +0.000 OA
ATOM     30  C   UNL     1       5.440   5.302  15.904  0.00  0.00    +0.000 C 
ATOM     31  O   UNL     1       6.274   5.853  15.214  0.00  0.00    +0.000 OA
ENDBRANCH  20  23
BRANCH  20  32
ATOM     32  O   UNL     1       2.028   6.639  21.110  0.00  0.00    +0.000 OA
ATOM     33  H   UNL     1       1.220   6.715  21.653  0.00  0.00    +0.000 HD
ENDBRANCH  20  32
ENDBRANCH  19  20
ENDBRANCH   1  19
TORSDOF 5
ENDMDL
