MODEL 1
REMARK VINA RESULT:      -8.2      0.000      0.000
REMARK  Name = 
REMARK  5 active torsions:
REMARK  status: ('A' for Active; 'I' for Inactive)
REMARK    1  A    between atoms: C_1  and  S_2
REMARK    2  A    between atoms: S_2  and  C_5
REMARK    3  A    between atoms: C_9  and  C_10
REMARK    4  A    between atoms: N_13  and  C_14
REMARK    5  A    between atoms: C_14  and  C_15
REMARK                            x       y       z     vdW  Elec       q    Type
REMARK                         _______ _______ _______ _____ _____    ______ ____
ROOT
ATOM      1  C   UNL     1       3.561   4.555  18.205  0.00  0.00    +0.000 C 
ATOM      2  C   UNL     1       2.705   5.719  17.675  0.00  0.00    +0.000 C 
ATOM      3  C   UNL     1       2.506   6.857  18.692  0.00  0.00    +0.000 C 
ATOM      4  N   UNL     1       1.972   6.423  19.992  0.00  0.00    +0.000 NA
ATOM      5  C   UNL     1       2.653   5.219  20.517  0.00  0.00    +0.000 C 
ATOM      6  C   UNL     1       2.890   4.085  19.508  0.00  0.00    +0.000 C 
ENDROOT
BRANCH   1  11
ATOM      7  C   UNL     1       6.020   5.277  17.460  0.00  0.00    +0.000 A 
ATOM      8  S   UNL     1       7.508   5.401  18.318  0.00  0.00    +0.000 S 
ATOM      9  N   UNL     1       6.812   5.082  19.786  0.00  0.00    +0.000 NA
ATOM     10  N   UNL     1       5.527   4.824  19.691  0.00  0.00    +0.000 NA
ATOM     11  C   UNL     1       5.039   4.901  18.383  0.00  0.00    +0.000 A 
BRANCH   7  13
ATOM     12  C   UNL     1       5.635   4.136  14.910  0.00  0.00    +0.000 C 
ATOM     13  S   UNL     1       6.191   5.617  15.742  0.00  0.00    +0.000 S 
ATOM     14  O   UNL     1       7.619   5.758  15.529  0.00  0.00    +0.000 OA
ATOM     15  O   UNL     1       5.269   6.693  15.457  0.00  0.00    +0.000 OA
ENDBRANCH   7  13
ENDBRANCH   1  11
BRANCH   4  16
ATOM     16  C   UNL     1       2.118   7.503  21.009  0.00  0.00    +0.000 C 
BRANCH  16  17
ATOM     17  C   UNL     1       1.107   8.634  20.954  0.00  0.00    +0.000 A 
ATOM     18  C   UNL     1       0.824   9.281  19.744  0.00  0.00    +0.000 A 
ATOM     19  C   UNL     1      -0.053  10.368  19.713  0.00  0.00    +0.000 A 
ATOM     20  C   UNL     1      -0.659  10.842  20.869  0.00  0.00    +0.000 A 
ATOM     21  N   UNL     1      -1.493  11.900  20.798  0.00  0.00    +0.000 NA
ATOM     22  C   UNL     1      -2.041  12.311  21.961  0.00  0.00    +0.000 A 
ATOM     23  C   UNL     1      -1.769  11.689  23.161  0.00  0.00    +0.000 A 
ATOM     24  N   UNL     1      -0.938  10.628  23.252  0.00  0.00    +0.000 NA
ATOM     25  C   UNL     1      -0.380  10.198  22.100  0.00  0.00    +0.000 A 
ATOM     26  C   UNL     1       0.495   9.116  22.118  0.00  0.00    +0.000 A 
ENDBRANCH  16  17
ENDBRANCH   4  16
TORSDOF 4
ENDMDL
MODEL 2
REMARK VINA RESULT:      -7.8      0.962      1.238
REMARK  Name = 
REMARK  5 active torsions:
REMARK  status: ('A' for Active; 'I' for Inactive)
REMARK    1  A    between atoms: C_1  and  S_2
REMARK    2  A    between atoms: S_2  and  C_5
REMARK    3  A    between atoms: C_9  and  C_10
REMARK    4  A    between atoms: N_13  and  C_14
REMARK    5  A    between atoms: C_14  and  C_15
REMARK                            x       y       z     vdW  Elec       q    Type
REMARK                         _______ _______ _______ _____ _____    ______ ____
ROOT
ATOM      1  C   UNL     1       3.902   4.217  18.278  0.00  0.00    +0.000 C 
ATOM      2  C   UNL     1       2.915   5.172  17.581  0.00  0.00    +0.000 C 
ATOM      3  C   UNL     1       2.552   6.410  18.420  0.00  0.00    +0.000 C 
ATOM      4  N   UNL     1       2.051   6.103  19.769  0.00  0.00    +0.000 NA
ATOM      5  C   UNL     1       2.868   5.086  20.466  0.00  0.00    +0.000 C 
ATOM      6  C   UNL     1       3.269   3.857  19.634  0.00  0.00    +0.000 C 
ENDROOT
BRANCH   1  11
ATOM      7  C   UNL     1       6.211   5.266  17.450  0.00  0.00    +0.000 A 
ATOM      8  S   UNL     1       7.689   5.616  18.262  0.00  0.00    +0.000 S 
ATOM      9  N   UNL     1       7.086   5.230  19.754  0.00  0.00    +0.000 NA
ATOM     10  N   UNL     1       5.849   4.790  19.701  0.00  0.00    +0.000 NA
ATOM     11  C   UNL     1       5.319   4.772  18.407  0.00  0.00    +0.000 A 
BRANCH   7  13
ATOM     12  C   UNL     1       5.738   4.087  14.932  0.00  0.00    +0.000 C 
ATOM     13  S   UNL     1       6.285   5.594  15.723  0.00  0.00    +0.000 S 
ATOM     14  O   UNL     1       7.696   5.780  15.438  0.00  0.00    +0.000 OA
ATOM     15  O   UNL     1       5.315   6.636  15.475  0.00  0.00    +0.000 OA
ENDBRANCH   7  13
ENDBRANCH   1  11
BRANCH   4  16
ATOM     16  C   UNL     1       2.037   7.328  20.617  0.00  0.00    +0.000 C 
BRANCH  16  17
ATOM     17  C   UNL     1       1.303   8.536  20.061  0.00  0.00    +0.000 A 
ATOM     18  C   UNL     1       1.540   8.974  18.751  0.00  0.00    +0.000 A 
ATOM     19  C   UNL     1       0.917  10.128  18.269  0.00  0.00    +0.000 A 
ATOM     20  C   UNL     1       0.059  10.874  19.067  0.00  0.00    +0.000 A 
ATOM     21  N   UNL     1      -0.516  11.987  18.566  0.00  0.00    +0.000 NA
ATOM     22  C   UNL     1      -1.333  12.667  19.400  0.00  0.00    +0.000 A 
ATOM     23  C   UNL     1      -1.571  12.252  20.692  0.00  0.00    +0.000 A 
ATOM     24  N   UNL     1      -1.007  11.140  21.211  0.00  0.00    +0.000 NA
ATOM     25  C   UNL     1      -0.187  10.443  20.395  0.00  0.00    +0.000 A 
ATOM     26  C   UNL     1       0.439   9.291  20.862  0.00  0.00    +0.000 A 
ENDBRANCH  16  17
ENDBRANCH   4  16
TORSDOF 4
ENDMDL
MODEL 3
REMARK VINA RESULT:      -7.8      0.883      1.570
REMARK  Name = 
REMARK  5 active torsions:
REMARK  status: ('A' for Active; 'I' for Inactive)
REMARK    1  A    between atoms: C_1  and  S_2
REMARK    2  A    between atoms: S_2  and  C_5
REMARK    3  A    between atoms: C_9  and  C_10
REMARK    4  A    between atoms: N_13  and  C_14
REMARK    5  A    between atoms: C_14  and  C_15
REMARK                            x       y       z     vdW  Elec       q    Type
REMARK                         _______ _______ _______ _____ _____    ______ ____
ROOT
ATOM      1  C   UNL     1       3.009   5.336  18.040  0.00  0.00    +0.000 C 
ATOM      2  C   UNL     1       2.423   6.714  17.680  0.00  0.00    +0.000 C 
ATOM      3  C   UNL     1       2.376   7.696  18.864  0.00  0.00    +0.000 C 
ATOM      4  N   UNL     1       1.685   7.178  20.056  0.00  0.00    +0.000 NA
ATOM      5  C   UNL     1       2.091   5.797  20.398  0.00  0.00    +0.000 C 
ATOM      6  C   UNL     1       2.177   4.809  19.223  0.00  0.00    +0.000 C 
ENDROOT
BRANCH   1  11
ATOM      7  C   UNL     1       5.613   5.482  17.473  0.00  0.00    +0.000 A 
ATOM      8  S   UNL     1       7.027   5.297  18.437  0.00  0.00    +0.000 S 
ATOM      9  N   UNL     1       6.177   5.175  19.853  0.00  0.00    +0.000 NA
ATOM     10  N   UNL     1       4.876   5.202  19.665  0.00  0.00    +0.000 NA
ATOM     11  C   UNL     1       4.510   5.353  18.324  0.00  0.00    +0.000 A 
BRANCH   7  13
ATOM     12  C   UNL     1       5.530   4.203  14.960  0.00  0.00    +0.000 C 
ATOM     13  S   UNL     1       5.974   5.734  15.770  0.00  0.00    +0.000 S 
ATOM     14  O   UNL     1       7.417   5.886  15.712  0.00  0.00    +0.000 OA
ATOM     15  O   UNL     1       5.081   6.780  15.324  0.00  0.00    +0.000 OA
ENDBRANCH   7  13
ENDBRANCH   1  11
BRANCH   4  16
ATOM     16  C   UNL     1       1.964   8.037  21.241  0.00  0.00    +0.000 C 
BRANCH  16  17
ATOM     17  C   UNL     1       0.959   9.134  21.542  0.00  0.00    +0.000 A 
ATOM     18  C   UNL     1       0.350   9.219  22.801  0.00  0.00    +0.000 A 
ATOM     19  C   UNL     1      -0.627  10.187  23.048  0.00  0.00    +0.000 A 
ATOM     20  C   UNL     1      -1.028  11.079  22.062  0.00  0.00    +0.000 A 
ATOM     21  N   UNL     1      -1.982  11.993  22.339  0.00  0.00    +0.000 NA
ATOM     22  C   UNL     1      -2.327  12.823  21.332  0.00  0.00    +0.000 A 
ATOM     23  C   UNL     1      -1.741  12.748  20.087  0.00  0.00    +0.000 A 
ATOM     24  N   UNL     1      -0.785  11.843  19.790  0.00  0.00    +0.000 NA
ATOM     25  C   UNL     1      -0.422  11.002  20.784  0.00  0.00    +0.000 A 
ATOM     26  C   UNL     1       0.551  10.034  20.550  0.00  0.00    +0.000 A 
ENDBRANCH  16  17
ENDBRANCH   4  16
TORSDOF 4
ENDMDL
MODEL 4
REMARK VINA RESULT:      -7.7      1.022      1.631
REMARK  Name = 
REMARK  5 active torsions:
REMARK  status: ('A' for Active; 'I' for Inactive)
REMARK    1  A    between atoms: C_1  and  S_2
REMARK    2  A    between atoms: S_2  and  C_5
REMARK    3  A    between atoms: C_9  and  C_10
REMARK    4  A    between atoms: N_13  and  C_14
REMARK    5  A    between atoms: C_14  and  C_15
REMARK                            x       y       z     vdW  Elec       q    Type
REMARK                         _______ _______ _______ _____ _____    ______ ____
ROOT
ATOM      1  C   UNL     1       3.618   4.364  18.871  0.00  0.00    +0.000 C 
ATOM      2  C   UNL     1       2.666   4.859  17.766  0.00  0.00    +0.000 C 
ATOM      3  C   UNL     1       2.391   6.372  17.816  0.00  0.00    +0.000 C 
ATOM      4  N   UNL     1       1.909   6.859  19.118  0.00  0.00    +0.000 NA
ATOM      5  C   UNL     1       2.688   6.322  20.255  0.00  0.00    +0.000 C 
ATOM      6  C   UNL     1       3.001   4.818  20.206  0.00  0.00    +0.000 C 
ENDROOT
BRANCH   1  11
ATOM      7  C   UNL     1       5.812   5.110  17.548  0.00  0.00    +0.000 A 
ATOM      8  S   UNL     1       7.421   5.448  18.058  0.00  0.00    +0.000 S 
ATOM      9  N   UNL     1       7.055   5.311  19.667  0.00  0.00    +0.000 NA
ATOM     10  N   UNL     1       5.804   4.966  19.873  0.00  0.00    +0.000 NA
ATOM     11  C   UNL     1       5.066   4.818  18.695  0.00  0.00    +0.000 A 
BRANCH   7  13
ATOM     12  C   UNL     1       7.248   4.924  15.127  0.00  0.00    +0.000 C 
ATOM     13  S   UNL     1       5.615   5.199  15.802  0.00  0.00    +0.000 S 
ATOM     14  O   UNL     1       5.232   6.574  15.539  0.00  0.00    +0.000 OA
ATOM     15  O   UNL     1       4.762   4.089  15.441  0.00  0.00    +0.000 OA
ENDBRANCH   7  13
ENDBRANCH   1  11
BRANCH   4  16
ATOM     16  C   UNL     1       1.982   8.346  19.184  0.00  0.00    +0.000 C 
BRANCH  16  17
ATOM     17  C   UNL     1       1.163   9.023  20.270  0.00  0.00    +0.000 A 
ATOM     18  C   UNL     1       0.517   8.263  21.254  0.00  0.00    +0.000 A 
ATOM     19  C   UNL     1      -0.294   8.887  22.206  0.00  0.00    +0.000 A 
ATOM     20  C   UNL     1      -0.489  10.262  22.202  0.00  0.00    +0.000 A 
ATOM     21  N   UNL     1      -1.287  10.823  23.134  0.00  0.00    +0.000 NA
ATOM     22  C   UNL     1      -1.436  12.163  23.067  0.00  0.00    +0.000 A 
ATOM     23  C   UNL     1      -0.811  12.923  22.101  0.00  0.00    +0.000 A 
ATOM     24  N   UNL     1      -0.009  12.380  21.161  0.00  0.00    +0.000 NA
ATOM     25  C   UNL     1       0.157  11.041  21.211  0.00  0.00    +0.000 A 
ATOM     26  C   UNL     1       0.963  10.408  20.268  0.00  0.00    +0.000 A 
ENDBRANCH  16  17
ENDBRANCH   4  16
TORSDOF 4
ENDMDL
MODEL 5
REMARK VINA RESULT:      -7.6      1.895      2.703
REMARK  Name = 
REMARK  5 active torsions:
REMARK  status: ('A' for Active; 'I' for Inactive)
REMARK    1  A    between atoms: C_1  and  S_2
REMARK    2  A    between atoms: S_2  and  C_5
REMARK    3  A    between atoms: C_9  and  C_10
REMARK    4  A    between atoms: N_13  and  C_14
REMARK    5  A    between atoms: C_14  and  C_15
REMARK                            x       y       z     vdW  Elec       q    Type
REMARK                         _______ _______ _______ _____ _____    ______ ____
ROOT
ATOM      1  C   UNL     1       3.489   4.551  18.794  0.00  0.00    +0.000 C 
ATOM      2  C   UNL     1       2.600   5.101  17.664  0.00  0.00    +0.000 C 
ATOM      3  C   UNL     1       2.435   6.631  17.692  0.00  0.00    +0.000 C 
ATOM      4  N   UNL     1       1.962   7.167  18.977  0.00  0.00    +0.000 NA
ATOM      5  C   UNL     1       2.676   6.588  20.137  0.00  0.00    +0.000 C 
ATOM      6  C   UNL     1       2.879   5.065  20.111  0.00  0.00    +0.000 C 
ENDROOT
BRANCH   1  11
ATOM      7  C   UNL     1       5.762   5.110  17.512  0.00  0.00    +0.000 A 
ATOM      8  S   UNL     1       7.379   5.343  18.056  0.00  0.00    +0.000 S 
ATOM      9  N   UNL     1       6.966   5.268  19.657  0.00  0.00    +0.000 NA
ATOM     10  N   UNL     1       5.689   5.018  19.839  0.00  0.00    +0.000 NA
ATOM     11  C   UNL     1       4.970   4.897  18.646  0.00  0.00    +0.000 A 
BRANCH   7  13
ATOM     12  C   UNL     1       7.265   4.894  15.135  0.00  0.00    +0.000 C 
ATOM     13  S   UNL     1       5.614   5.174  15.761  0.00  0.00    +0.000 S 
ATOM     14  O   UNL     1       5.235   6.544  15.468  0.00  0.00    +0.000 OA
ATOM     15  O   UNL     1       4.774   4.057  15.392  0.00  0.00    +0.000 OA
ENDBRANCH   7  13
ENDBRANCH   1  11
BRANCH   4  16
ATOM     16  C   UNL     1       2.142   8.645  19.030  0.00  0.00    +0.000 C 
BRANCH  16  17
ATOM     17  C   UNL     1       0.881   9.490  18.971  0.00  0.00    +0.000 A 
ATOM     18  C   UNL     1       0.511  10.295  20.056  0.00  0.00    +0.000 A 
ATOM     19  C   UNL     1      -0.688  11.013  20.025  0.00  0.00    +0.000 A 
ATOM     20  C   UNL     1      -1.544  10.946  18.934  0.00  0.00    +0.000 A 
ATOM     21  N   UNL     1      -2.696  11.648  18.947  0.00  0.00    +0.000 NA
ATOM     22  C   UNL     1      -3.482  11.530  17.856  0.00  0.00    +0.000 A 
ATOM     23  C   UNL     1      -3.134  10.738  16.783  0.00  0.00    +0.000 A 
ATOM     24  N   UNL     1      -1.985  10.029  16.750  0.00  0.00    +0.000 NA
ATOM     25  C   UNL     1      -1.182  10.133  17.830  0.00  0.00    +0.000 A 
ATOM     26  C   UNL     1       0.015   9.423  17.873  0.00  0.00    +0.000 A 
ENDBRANCH  16  17
ENDBRANCH   4  16
TORSDOF 4
ENDMDL
MODEL 6
REMARK VINA RESULT:      -7.6      1.215      1.580
REMARK  Name = 
REMARK  5 active torsions:
REMARK  status: ('A' for Active; 'I' for Inactive)
REMARK    1  A    between atoms: C_1  and  S_2
REMARK    2  A    between atoms: S_2  and  C_5
REMARK    3  A    between atoms: C_9  and  C_10
REMARK    4  A    between atoms: N_13  and  C_14
REMARK    5  A    between atoms: C_14  and  C_15
REMARK                            x       y       z     vdW  Elec       q    Type
REMARK                         _______ _______ _______ _____ _____    ______ ____
ROOT
ATOM      1  C   UNL     1       3.984   4.225  18.790  0.00  0.00    +0.000 C 
ATOM      2  C   UNL     1       3.188   4.574  17.519  0.00  0.00    +0.000 C 
ATOM      3  C   UNL     1       2.931   6.081  17.340  0.00  0.00    +0.000 C 
ATOM      4  N   UNL     1       2.295   6.730  18.497  0.00  0.00    +0.000 NA
ATOM      5  C   UNL     1       2.916   6.343  19.783  0.00  0.00    +0.000 C 
ATOM      6  C   UNL     1       3.210   4.846  19.967  0.00  0.00    +0.000 C 
ENDROOT
BRANCH   1  11
ATOM      7  C   UNL     1       6.360   4.728  17.684  0.00  0.00    +0.000 A 
ATOM      8  S   UNL     1       7.883   5.180  18.350  0.00  0.00    +0.000 S 
ATOM      9  N   UNL     1       7.282   5.355  19.883  0.00  0.00    +0.000 NA
ATOM     10  N   UNL     1       6.009   5.040  19.966  0.00  0.00    +0.000 NA
ATOM     11  C   UNL     1       5.449   4.656  18.743  0.00  0.00    +0.000 A 
BRANCH   7  13
ATOM     12  C   UNL     1       5.481   5.816  15.235  0.00  0.00    +0.000 C 
ATOM     13  S   UNL     1       6.423   4.473  15.945  0.00  0.00    +0.000 S 
ATOM     14  O   UNL     1       5.700   3.234  15.723  0.00  0.00    +0.000 OA
ATOM     15  O   UNL     1       7.812   4.621  15.571  0.00  0.00    +0.000 OA
ENDBRANCH   7  13
ENDBRANCH   1  11
BRANCH   4  16
ATOM     16  C   UNL     1       2.381   8.213  18.383  0.00  0.00    +0.000 C 
BRANCH  16  17
ATOM     17  C   UNL     1       1.374   9.020  19.183  0.00  0.00    +0.000 A 
ATOM     18  C   UNL     1       0.653  10.059  18.581  0.00  0.00    +0.000 A 
ATOM     19  C   UNL     1      -0.219  10.845  19.340  0.00  0.00    +0.000 A 
ATOM     20  C   UNL     1      -0.390  10.628  20.701  0.00  0.00    +0.000 A 
ATOM     21  N   UNL     1      -1.235  11.414  21.399  0.00  0.00    +0.000 NA
ATOM     22  C   UNL     1      -1.347  11.151  22.718  0.00  0.00    +0.000 A 
ATOM     23  C   UNL     1      -0.640  10.136  23.326  0.00  0.00    +0.000 A 
ATOM     24  N   UNL     1       0.209   9.337  22.645  0.00  0.00    +0.000 NA
ATOM     25  C   UNL     1       0.335   9.581  21.322  0.00  0.00    +0.000 A 
ATOM     26  C   UNL     1       1.200   8.805  20.555  0.00  0.00    +0.000 A 
ENDBRANCH  16  17
ENDBRANCH   4  16
TORSDOF 4
ENDMDL
MODEL 7
REMARK VINA RESULT:      -7.6      1.116      1.745
REMARK  Name = 
REMARK  5 active torsions:
REMARK  status: ('A' for Active; 'I' for Inactive)
REMARK    1  A    between atoms: C_1  and  S_2
REMARK    2  A    between atoms: S_2  and  C_5
REMARK    3  A    between atoms: C_9  and  C_10
REMARK    4  A    between atoms: N_13  and  C_14
REMARK    5  A    between atoms: C_14  and  C_15
REMARK                            x       y       z     vdW  Elec       q    Type
REMARK                         _______ _______ _______ _____ _____    ______ ____
ROOT
ATOM      1  C   UNL     1       3.915   4.173  18.780  0.00  0.00    +0.000 C 
ATOM      2  C   UNL     1       3.037   4.671  17.617  0.00  0.00    +0.000 C 
ATOM      3  C   UNL     1       2.729   6.177  17.673  0.00  0.00    +0.000 C 
ATOM      4  N   UNL     1       2.142   6.630  18.945  0.00  0.00    +0.000 NA
ATOM      5  C   UNL     1       2.847   6.086  20.126  0.00  0.00    +0.000 C 
ATOM      6  C   UNL     1       3.194   4.589  20.074  0.00  0.00    +0.000 C 
ENDROOT
BRANCH   1  11
ATOM      7  C   UNL     1       6.252   4.786  17.647  0.00  0.00    +0.000 A 
ATOM      8  S   UNL     1       7.768   5.280  18.297  0.00  0.00    +0.000 S 
ATOM      9  N   UNL     1       7.188   5.401  19.843  0.00  0.00    +0.000 NA
ATOM     10  N   UNL     1       5.928   5.037  19.940  0.00  0.00    +0.000 NA
ATOM     11  C   UNL     1       5.362   4.658  18.719  0.00  0.00    +0.000 A 
BRANCH   7  13
ATOM     12  C   UNL     1       5.337   5.921  15.233  0.00  0.00    +0.000 C 
ATOM     13  S   UNL     1       6.295   4.568  15.902  0.00  0.00    +0.000 S 
ATOM     14  O   UNL     1       5.576   3.330  15.661  0.00  0.00    +0.000 OA
ATOM     15  O   UNL     1       7.678   4.733  15.515  0.00  0.00    +0.000 OA
ENDBRANCH   7  13
ENDBRANCH   1  11
BRANCH   4  16
ATOM     16  C   UNL     1       2.180   8.117  19.043  0.00  0.00    +0.000 C 
BRANCH  16  17
ATOM     17  C   UNL     1       1.357   8.750  20.151  0.00  0.00    +0.000 A 
ATOM     18  C   UNL     1       0.785   7.959  21.155  0.00  0.00    +0.000 A 
ATOM     19  C   UNL     1      -0.032   8.538  22.131  0.00  0.00    +0.000 A 
ATOM     20  C   UNL     1      -0.304   9.900  22.130  0.00  0.00    +0.000 A 
ATOM     21  N   UNL     1      -1.104  10.419  23.085  0.00  0.00    +0.000 NA
ATOM     22  C   UNL     1      -1.330  11.748  23.019  0.00  0.00    +0.000 A 
ATOM     23  C   UNL     1      -0.778  12.539  22.034  0.00  0.00    +0.000 A 
ATOM     24  N   UNL     1       0.025  12.039  21.072  0.00  0.00    +0.000 NA
ATOM     25  C   UNL     1       0.268  10.711  21.118  0.00  0.00    +0.000 A 
ATOM     26  C   UNL     1       1.080  10.122  20.153  0.00  0.00    +0.000 A 
ENDBRANCH  16  17
ENDBRANCH   4  16
TORSDOF 4
ENDMDL
MODEL 8
REMARK VINA RESULT:      -7.6      1.050      1.366
REMARK  Name = 
REMARK  5 active torsions:
REMARK  status: ('A' for Active; 'I' for Inactive)
REMARK    1  A    between atoms: C_1  and  S_2
REMARK    2  A    between atoms: S_2  and  C_5
REMARK    3  A    between atoms: C_9  and  C_10
REMARK    4  A    between atoms: N_13  and  C_14
REMARK    5  A    between atoms: C_14  and  C_15
REMARK                            x       y       z     vdW  Elec       q    Type
REMARK                         _______ _______ _______ _____ _____    ______ ____
ROOT
ATOM      1  C   UNL     1       3.709   4.643  18.587  0.00  0.00    +0.000 C 
ATOM      2  C   UNL     1       2.892   5.347  17.489  0.00  0.00    +0.000 C 
ATOM      3  C   UNL     1       2.664   6.847  17.750  0.00  0.00    +0.000 C 
ATOM      4  N   UNL     1       2.067   7.151  19.061  0.00  0.00    +0.000 NA
ATOM      5  C   UNL     1       2.708   6.407  20.168  0.00  0.00    +0.000 C 
ATOM      6  C   UNL     1       2.975   4.915  19.912  0.00  0.00    +0.000 C 
ENDROOT
BRANCH   1  11
ATOM      7  C   UNL     1       6.075   5.387  17.603  0.00  0.00    +0.000 A 
ATOM      8  S   UNL     1       7.618   5.622  18.331  0.00  0.00    +0.000 S 
ATOM      9  N   UNL     1       7.048   5.389  19.868  0.00  0.00    +0.000 NA
ATOM     10  N   UNL     1       5.770   5.083  19.892  0.00  0.00    +0.000 NA
ATOM     11  C   UNL     1       5.182   5.048  18.624  0.00  0.00    +0.000 A 
BRANCH   7  13
ATOM     12  C   UNL     1       5.355   4.127  15.185  0.00  0.00    +0.000 C 
ATOM     13  S   UNL     1       6.102   5.605  15.858  0.00  0.00    +0.000 S 
ATOM     14  O   UNL     1       7.509   5.614  15.504  0.00  0.00    +0.000 OA
ATOM     15  O   UNL     1       5.242   6.735  15.585  0.00  0.00    +0.000 OA
ENDBRANCH   7  13
ENDBRANCH   1  11
BRANCH   4  16
ATOM     16  C   UNL     1       2.182   8.604  19.367  0.00  0.00    +0.000 C 
BRANCH  16  17
ATOM     17  C   UNL     1       0.905   9.421  19.293  0.00  0.00    +0.000 A 
ATOM     18  C   UNL     1       0.204   9.542  18.086  0.00  0.00    +0.000 A 
ATOM     19  C   UNL     1      -0.931  10.354  18.008  0.00  0.00    +0.000 A 
ATOM     20  C   UNL     1      -1.390  11.066  19.109  0.00  0.00    +0.000 A 
ATOM     21  N   UNL     1      -2.484  11.845  18.988  0.00  0.00    +0.000 NA
ATOM     22  C   UNL     1      -2.869  12.513  20.097  0.00  0.00    +0.000 A 
ATOM     23  C   UNL     1      -2.187  12.408  21.290  0.00  0.00    +0.000 A 
ATOM     24  N   UNL     1      -1.091  11.633  21.431  0.00  0.00    +0.000 NA
ATOM     25  C   UNL     1      -0.688  10.954  20.335  0.00  0.00    +0.000 A 
ATOM     26  C   UNL     1       0.440  10.141  20.401  0.00  0.00    +0.000 A 
ENDBRANCH  16  17
ENDBRANCH   4  16
TORSDOF 4
ENDMDL
MODEL 9
REMARK VINA RESULT:      -7.4      1.075      1.429
REMARK  Name = 
REMARK  5 active torsions:
REMARK  status: ('A' for Active; 'I' for Inactive)
REMARK    1  A    between atoms: C_1  and  S_2
REMARK    2  A    between atoms: S_2  and  C_5
REMARK    3  A    between atoms: C_9  and  C_10
REMARK    4  A    between atoms: N_13  and  C_14
REMARK    5  A    between atoms: C_14  and  C_15
REMARK                            x       y       z     vdW  Elec       q    Type
REMARK                         _______ _______ _______ _____ _____    ______ ____
ROOT
ATOM      1  C   UNL     1       3.638   4.518  18.930  0.00  0.00    +0.000 C 
ATOM      2  C   UNL     1       2.725   4.808  17.725  0.00  0.00    +0.000 C 
ATOM      3  C   UNL     1       2.492   6.308  17.469  0.00  0.00    +0.000 C 
ATOM      4  N   UNL     1       1.995   7.053  18.637  0.00  0.00    +0.000 NA
ATOM      5  C   UNL     1       2.734   6.731  19.878  0.00  0.00    +0.000 C 
ATOM      6  C   UNL     1       3.006   5.240  20.133  0.00  0.00    +0.000 C 
ENDROOT
BRANCH   1  11
ATOM      7  C   UNL     1       5.835   5.110  17.535  0.00  0.00    +0.000 A 
ATOM      8  S   UNL     1       7.470   5.387  17.998  0.00  0.00    +0.000 S 
ATOM      9  N   UNL     1       7.134   5.324  19.618  0.00  0.00    +0.000 NA
ATOM     10  N   UNL     1       5.873   5.048  19.863  0.00  0.00    +0.000 NA
ATOM     11  C   UNL     1       5.102   4.895  18.707  0.00  0.00    +0.000 A 
BRANCH   7  13
ATOM     12  C   UNL     1       7.218   4.839  15.092  0.00  0.00    +0.000 C 
ATOM     13  S   UNL     1       5.602   5.147  15.791  0.00  0.00    +0.000 S 
ATOM     14  O   UNL     1       5.223   6.516  15.494  0.00  0.00    +0.000 OA
ATOM     15  O   UNL     1       4.734   4.033  15.482  0.00  0.00    +0.000 OA
ENDBRANCH   7  13
ENDBRANCH   1  11
BRANCH   4  16
ATOM     16  C   UNL     1       2.109   8.521  18.412  0.00  0.00    +0.000 C 
BRANCH  16  17
ATOM     17  C   UNL     1       1.174   9.409  19.214  0.00  0.00    +0.000 A 
ATOM     18  C   UNL     1       0.718  10.625  18.688  0.00  0.00    +0.000 A 
ATOM     19  C   UNL     1      -0.083  11.472  19.459  0.00  0.00    +0.000 A 
ATOM     20  C   UNL     1      -0.443  11.142  20.759  0.00  0.00    +0.000 A 
ATOM     21  N   UNL     1      -1.211  11.991  21.473  0.00  0.00    +0.000 NA
ATOM     22  C   UNL     1      -1.516  11.609  22.732  0.00  0.00    +0.000 A 
ATOM     23  C   UNL     1      -1.072  10.418  23.265  0.00  0.00    +0.000 A 
ATOM     24  N   UNL     1      -0.304   9.555  22.567  0.00  0.00    +0.000 NA
ATOM     25  C   UNL     1       0.013   9.915  21.304  0.00  0.00    +0.000 A 
ATOM     26  C   UNL     1       0.810   9.081  20.526  0.00  0.00    +0.000 A 
ENDBRANCH  16  17
ENDBRANCH   4  16
TORSDOF 4
ENDMDL
