MODEL 1
REMARK VINA RESULT:      -7.6      0.000      0.000
REMARK  Name = 
REMARK  6 active torsions:
REMARK  status: ('A' for Active; 'I' for Inactive)
REMARK    1  A    between atoms: C_1  and  C_2
REMARK    2  A    between atoms: C_5  and  C_6
REMARK    3  A    between atoms: N_9  and  C_10
REMARK    4  A    between atoms: C_10  and  C_11
REMARK    5  A    between atoms: N_15  and  C_16
REMARK    6  A    between atoms: N_19  and  C_20
REMARK                            x       y       z     vdW  Elec       q    Type
REMARK                         _______ _______ _______ _____ _____    ______ ____
ROOT
ATOM      1  C   UNL     1       6.890   5.206  16.552  0.00  0.00    +0.000 C 
ATOM      2  C   UNL     1       6.170   4.222  17.476  0.00  0.00    +0.000 C 
ATOM      3  C   UNL     1       4.649   4.398  17.507  0.00  0.00    +0.000 C 
ATOM      4  N   UNL     1       4.283   5.789  17.824  0.00  0.00    +0.000 NA
ATOM      5  C   UNL     1       4.806   6.679  16.769  0.00  0.00    +0.000 C 
ATOM      6  C   UNL     1       6.330   6.626  16.674  0.00  0.00    +0.000 C 
ENDROOT
BRANCH   1  11
ATOM      7  C   UNL     1       6.130   3.134  12.110  0.00  0.00    +0.000 C 
ATOM      8  C   UNL     1       6.652   3.958  13.216  0.00  0.00    +0.000 A 
ATOM      9  N   UNL     1       7.537   4.943  13.015  0.00  0.00    +0.000 NA
ATOM     10  O   UNL     1       7.718   5.471  14.291  0.00  0.00    +0.000 OA
ATOM     11  C   UNL     1       6.917   4.749  15.132  0.00  0.00    +0.000 A 
ATOM     12  N   UNL     1       6.246   3.797  14.519  0.00  0.00    +0.000 NA
ENDBRANCH   1  11
BRANCH   4  13
ATOM     13  C   UNL     1       2.814   5.966  17.914  0.00  0.00    +0.000 C 
BRANCH  13  14
ATOM     14  C   UNL     1       2.330   7.234  18.615  0.00  0.00    +0.000 A 
ATOM     15  C   UNL     1       2.289   8.377  17.922  0.00  0.00    +0.000 A 
ATOM     16  C   UNL     1       1.819   9.621  18.544  0.00  0.00    +0.000 A 
ATOM     17  O   UNL     1       1.920  10.671  17.910  0.00  0.00    +0.000 OA
ATOM     18  N   UNL     1       1.271   9.497  19.800  0.00  0.00    +0.000 N 
ATOM     19  C   UNL     1       0.664  10.662  20.414  0.00  0.00    +0.000 C 
ATOM     20  C   UNL     1       1.339   8.337  20.564  0.00  0.00    +0.000 A 
ATOM     21  O   UNL     1       0.893   8.295  21.712  0.00  0.00    +0.000 OA
ATOM     22  N   UNL     1       1.953   7.234  19.959  0.00  0.00    +0.000 N 
ATOM     23  C   UNL     1       2.146   6.053  20.788  0.00  0.00    +0.000 C 
ENDBRANCH  13  14
ENDBRANCH   4  13
TORSDOF 3
ENDMDL
MODEL 2
REMARK VINA RESULT:      -7.4      2.232      3.544
REMARK  Name = 
REMARK  6 active torsions:
REMARK  status: ('A' for Active; 'I' for Inactive)
REMARK    1  A    between atoms: C_1  and  C_2
REMARK    2  A    between atoms: C_5  and  C_6
REMARK    3  A    between atoms: N_9  and  C_10
REMARK    4  A    between atoms: C_10  and  C_11
REMARK    5  A    between atoms: N_15  and  C_16
REMARK    6  A    between atoms: N_19  and  C_20
REMARK                            x       y       z     vdW  Elec       q    Type
REMARK                         _______ _______ _______ _____ _____    ______ ____
ROOT
ATOM      1  C   UNL     1       7.245   5.637  17.509  0.00  0.00    +0.000 C 
ATOM      2  C   UNL     1       6.351   5.521  16.273  0.00  0.00    +0.000 C 
ATOM      3  C   UNL     1       4.865   5.754  16.558  0.00  0.00    +0.000 C 
ATOM      4  N   UNL     1       4.388   4.878  17.642  0.00  0.00    +0.000 NA
ATOM      5  C   UNL     1       5.127   5.197  18.880  0.00  0.00    +0.000 C 
ATOM      6  C   UNL     1       6.628   4.955  18.733  0.00  0.00    +0.000 C 
ENDROOT
BRANCH   1  11
ATOM      7  C   UNL     1       9.218   9.876  19.168  0.00  0.00    +0.000 C 
ATOM      8  C   UNL     1       8.434   8.880  18.414  0.00  0.00    +0.000 A 
ATOM      9  N   UNL     1       7.729   9.206  17.323  0.00  0.00    +0.000 NA
ATOM     10  O   UNL     1       7.193   7.986  16.916  0.00  0.00    +0.000 OA
ATOM     11  C   UNL     1       7.635   7.047  17.807  0.00  0.00    +0.000 A 
ATOM     12  N   UNL     1       8.396   7.549  18.756  0.00  0.00    +0.000 NA
ENDBRANCH   1  11
BRANCH   4  13
ATOM     13  C   UNL     1       2.938   5.050  17.894  0.00  0.00    +0.000 C 
BRANCH  13  14
ATOM     14  C   UNL     1       2.509   6.397  18.473  0.00  0.00    +0.000 A 
ATOM     15  C   UNL     1       2.502   7.469  17.673  0.00  0.00    +0.000 A 
ATOM     16  C   UNL     1       2.087   8.783  18.175  0.00  0.00    +0.000 A 
ATOM     17  O   UNL     1       2.219   9.763  17.442  0.00  0.00    +0.000 OA
ATOM     18  N   UNL     1       1.550   8.802  19.442  0.00  0.00    +0.000 N 
ATOM     19  C   UNL     1       0.995  10.044  19.946  0.00  0.00    +0.000 C 
ATOM     20  C   UNL     1       1.584   7.720  20.315  0.00  0.00    +0.000 A 
ATOM     21  O   UNL     1       1.151   7.806  21.466  0.00  0.00    +0.000 OA
ATOM     22  N   UNL     1       2.150   6.540  19.814  0.00  0.00    +0.000 N 
ATOM     23  C   UNL     1       2.309   5.438  20.752  0.00  0.00    +0.000 C 
ENDBRANCH  13  14
ENDBRANCH   4  13
TORSDOF 3
ENDMDL
MODEL 3
REMARK VINA RESULT:      -7.3      3.544      8.078
REMARK  Name = 
REMARK  6 active torsions:
REMARK  status: ('A' for Active; 'I' for Inactive)
REMARK    1  A    between atoms: C_1  and  C_2
REMARK    2  A    between atoms: C_5  and  C_6
REMARK    3  A    between atoms: N_9  and  C_10
REMARK    4  A    between atoms: C_10  and  C_11
REMARK    5  A    between atoms: N_15  and  C_16
REMARK    6  A    between atoms: N_19  and  C_20
REMARK                            x       y       z     vdW  Elec       q    Type
REMARK                         _______ _______ _______ _____ _____    ______ ____
ROOT
ATOM      1  C   UNL     1       0.284  10.119  19.684  0.00  0.00    +0.000 C 
ATOM      2  C   UNL     1       0.730   8.914  20.514  0.00  0.00    +0.000 C 
ATOM      3  C   UNL     1       1.999   8.235  19.989  0.00  0.00    +0.000 C 
ATOM      4  N   UNL     1       1.859   7.878  18.566  0.00  0.00    +0.000 NA
ATOM      5  C   UNL     1       1.664   9.109  17.777  0.00  0.00    +0.000 C 
ATOM      6  C   UNL     1       0.392   9.855  18.179  0.00  0.00    +0.000 C 
ENDROOT
BRANCH   1  11
ATOM      7  C   UNL     1       2.718  14.434  19.930  0.00  0.00    +0.000 C 
ATOM      8  C   UNL     1       1.971  13.210  20.273  0.00  0.00    +0.000 A 
ATOM      9  N   UNL     1       1.486  12.992  21.502  0.00  0.00    +0.000 NA
ATOM     10  O   UNL     1       0.831  11.769  21.371  0.00  0.00    +0.000 OA
ATOM     11  C   UNL     1       0.987  11.378  20.070  0.00  0.00    +0.000 A 
ATOM     12  N   UNL     1       1.691  12.228  19.353  0.00  0.00    +0.000 NA
ENDBRANCH   1  11
BRANCH   4  13
ATOM     13  C   UNL     1       3.057   7.168  18.056  0.00  0.00    +0.000 C 
BRANCH  13  14
ATOM     14  C   UNL     1       3.092   5.657  18.281  0.00  0.00    +0.000 A 
ATOM     15  C   UNL     1       2.009   4.935  17.976  0.00  0.00    +0.000 A 
ATOM     16  C   UNL     1       1.994   3.480  18.161  0.00  0.00    +0.000 A 
ATOM     17  O   UNL     1       0.936   2.875  17.990  0.00  0.00    +0.000 OA
ATOM     18  N   UNL     1       3.199   2.902  18.492  0.00  0.00    +0.000 N 
ATOM     19  C   UNL     1       3.285   1.456  18.555  0.00  0.00    +0.000 C 
ATOM     20  C   UNL     1       4.329   3.625  18.860  0.00  0.00    +0.000 A 
ATOM     21  O   UNL     1       5.367   3.061  19.214  0.00  0.00    +0.000 OA
ATOM     22  N   UNL     1       4.212   5.020  18.816  0.00  0.00    +0.000 N 
ATOM     23  C   UNL     1       5.341   5.789  19.318  0.00  0.00    +0.000 C 
ENDBRANCH  13  14
ENDBRANCH   4  13
TORSDOF 3
ENDMDL
MODEL 4
REMARK VINA RESULT:      -7.0      2.763      8.085
REMARK  Name = 
REMARK  6 active torsions:
REMARK  status: ('A' for Active; 'I' for Inactive)
REMARK    1  A    between atoms: C_1  and  C_2
REMARK    2  A    between atoms: C_5  and  C_6
REMARK    3  A    between atoms: N_9  and  C_10
REMARK    4  A    between atoms: C_10  and  C_11
REMARK    5  A    between atoms: N_15  and  C_16
REMARK    6  A    between atoms: N_19  and  C_20
REMARK                            x       y       z     vdW  Elec       q    Type
REMARK                         _______ _______ _______ _____ _____    ______ ____
ROOT
ATOM      1  C   UNL     1       0.952  10.954  19.630  0.00  0.00    +0.000 C 
ATOM      2  C   UNL     1       1.856  10.757  18.412  0.00  0.00    +0.000 C 
ATOM      3  C   UNL     1       1.840   9.332  17.852  0.00  0.00    +0.000 C 
ATOM      4  N   UNL     1       2.143   8.345  18.903  0.00  0.00    +0.000 NA
ATOM      5  C   UNL     1       1.101   8.416  19.946  0.00  0.00    +0.000 C 
ATOM      6  C   UNL     1       1.052   9.788  20.618  0.00  0.00    +0.000 C 
ENDROOT
BRANCH   1  11
ATOM      7  C   UNL     1      -3.650  11.030  17.780  0.00  0.00    +0.000 C 
ATOM      8  C   UNL     1      -2.435  11.322  18.563  0.00  0.00    +0.000 A 
ATOM      9  N   UNL     1      -2.443  12.171  19.599  0.00  0.00    +0.000 NA
ATOM     10  O   UNL     1      -1.130  12.116  20.062  0.00  0.00    +0.000 OA
ATOM     11  C   UNL     1      -0.466  11.233  19.256  0.00  0.00    +0.000 A 
ATOM     12  N   UNL     1      -1.225  10.722  18.310  0.00  0.00    +0.000 NA
ENDBRANCH   1  11
BRANCH   4  13
ATOM     13  C   UNL     1       2.188   6.964  18.367  0.00  0.00    +0.000 C 
BRANCH  13  14
ATOM     14  C   UNL     1       3.577   6.355  18.187  0.00  0.00    +0.000 A 
ATOM     15  C   UNL     1       4.424   6.928  17.325  0.00  0.00    +0.000 A 
ATOM     16  C   UNL     1       5.775   6.392  17.124  0.00  0.00    +0.000 A 
ATOM     17  O   UNL     1       6.472   6.871  16.230  0.00  0.00    +0.000 OA
ATOM     18  N   UNL     1       6.163   5.395  17.990  0.00  0.00    +0.000 N 
ATOM     19  C   UNL     1       7.531   4.917  17.936  0.00  0.00    +0.000 C 
ATOM     20  C   UNL     1       5.296   4.748  18.864  0.00  0.00    +0.000 A 
ATOM     21  O   UNL     1       5.675   3.813  19.572  0.00  0.00    +0.000 OA
ATOM     22  N   UNL     1       3.974   5.210  18.879  0.00  0.00    +0.000 N 
ATOM     23  C   UNL     1       3.026   4.463  19.692  0.00  0.00    +0.000 C 
ENDBRANCH  13  14
ENDBRANCH   4  13
TORSDOF 3
ENDMDL
MODEL 5
REMARK VINA RESULT:      -6.9      3.507      8.518
REMARK  Name = 
REMARK  6 active torsions:
REMARK  status: ('A' for Active; 'I' for Inactive)
REMARK    1  A    between atoms: C_1  and  C_2
REMARK    2  A    between atoms: C_5  and  C_6
REMARK    3  A    between atoms: N_9  and  C_10
REMARK    4  A    between atoms: C_10  and  C_11
REMARK    5  A    between atoms: N_15  and  C_16
REMARK    6  A    between atoms: N_19  and  C_20
REMARK                            x       y       z     vdW  Elec       q    Type
REMARK                         _______ _______ _______ _____ _____    ______ ____
ROOT
ATOM      1  C   UNL     1      -0.265  10.573  20.092  0.00  0.00    +0.000 C 
ATOM      2  C   UNL     1      -0.098   9.545  21.212  0.00  0.00    +0.000 C 
ATOM      3  C   UNL     1       1.208   8.749  21.135  0.00  0.00    +0.000 C 
ATOM      4  N   UNL     1       1.369   8.122  19.811  0.00  0.00    +0.000 NA
ATOM      5  C   UNL     1       1.439   9.177  18.782  0.00  0.00    +0.000 C 
ATOM      6  C   UNL     1       0.162  10.016  18.730  0.00  0.00    +0.000 C 
ENDROOT
BRANCH   1  11
ATOM      7  C   UNL     1       2.059  14.956  20.039  0.00  0.00    +0.000 C 
ATOM      8  C   UNL     1       1.355  13.732  20.467  0.00  0.00    +0.000 A 
ATOM      9  N   UNL     1       0.915  13.566  21.721  0.00  0.00    +0.000 NA
ATOM     10  O   UNL     1       0.290  12.321  21.674  0.00  0.00    +0.000 OA
ATOM     11  C   UNL     1       0.416  11.867  20.391  0.00  0.00    +0.000 A 
ATOM     12  N   UNL     1       1.074  12.697  19.609  0.00  0.00    +0.000 NA
ENDBRANCH   1  11
BRANCH   4  13
ATOM     13  C   UNL     1       2.600   7.300  19.736  0.00  0.00    +0.000 C 
BRANCH  13  14
ATOM     14  C   UNL     1       2.398   5.801  19.523  0.00  0.00    +0.000 A 
ATOM     15  C   UNL     1       1.726   5.104  20.447  0.00  0.00    +0.000 A 
ATOM     16  C   UNL     1       1.492   3.665  20.285  0.00  0.00    +0.000 A 
ATOM     17  O   UNL     1       0.985   3.042  21.217  0.00  0.00    +0.000 OA
ATOM     18  N   UNL     1       1.845   3.130  19.067  0.00  0.00    +0.000 N 
ATOM     19  C   UNL     1       1.516   1.745  18.791  0.00  0.00    +0.000 C 
ATOM     20  C   UNL     1       2.584   3.812  18.106  0.00  0.00    +0.000 A 
ATOM     21  O   UNL     1       2.936   3.268  17.057  0.00  0.00    +0.000 OA
ATOM     22  N   UNL     1       2.912   5.140  18.407  0.00  0.00    +0.000 N 
ATOM     23  C   UNL     1       3.791   5.828  17.471  0.00  0.00    +0.000 C 
ENDBRANCH  13  14
ENDBRANCH   4  13
TORSDOF 3
ENDMDL
MODEL 6
REMARK VINA RESULT:      -6.9      2.205      3.326
REMARK  Name = 
REMARK  6 active torsions:
REMARK  status: ('A' for Active; 'I' for Inactive)
REMARK    1  A    between atoms: C_1  and  C_2
REMARK    2  A    between atoms: C_5  and  C_6
REMARK    3  A    between atoms: N_9  and  C_10
REMARK    4  A    between atoms: C_10  and  C_11
REMARK    5  A    between atoms: N_15  and  C_16
REMARK    6  A    between atoms: N_19  and  C_20
REMARK                            x       y       z     vdW  Elec       q    Type
REMARK                         _______ _______ _______ _____ _____    ______ ____
ROOT
ATOM      1  C   UNL     1       6.963   5.030  17.442  0.00  0.00    +0.000 C 
ATOM      2  C   UNL     1       6.023   4.984  16.236  0.00  0.00    +0.000 C 
ATOM      3  C   UNL     1       4.575   5.356  16.563  0.00  0.00    +0.000 C 
ATOM      4  N   UNL     1       4.054   4.539  17.673  0.00  0.00    +0.000 NA
ATOM      5  C   UNL     1       4.858   4.800  18.883  0.00  0.00    +0.000 C 
ATOM      6  C   UNL     1       6.326   4.419  18.694  0.00  0.00    +0.000 C 
ENDROOT
BRANCH   1  11
ATOM      7  C   UNL     1       8.027   9.872  17.591  0.00  0.00    +0.000 C 
ATOM      8  C   UNL     1       7.976   8.426  17.873  0.00  0.00    +0.000 A 
ATOM      9  N   UNL     1       8.546   7.891  18.961  0.00  0.00    +0.000 NA
ATOM     10  O   UNL     1       8.226   6.539  18.854  0.00  0.00    +0.000 OA
ATOM     11  C   UNL     1       7.490   6.400  17.710  0.00  0.00    +0.000 A 
ATOM     12  N   UNL     1       7.316   7.533  17.064  0.00  0.00    +0.000 NA
ENDBRANCH   1  11
BRANCH   4  13
ATOM     13  C   UNL     1       2.634   4.846  17.967  0.00  0.00    +0.000 C 
BRANCH  13  14
ATOM     14  C   UNL     1       2.348   6.243  18.516  0.00  0.00    +0.000 A 
ATOM     15  C   UNL     1       2.400   7.286  17.682  0.00  0.00    +0.000 A 
ATOM     16  C   UNL     1       2.119   8.647  18.155  0.00  0.00    +0.000 A 
ATOM     17  O   UNL     1       2.306   9.589  17.385  0.00  0.00    +0.000 OA
ATOM     18  N   UNL     1       1.638   8.751  19.440  0.00  0.00    +0.000 N 
ATOM     19  C   UNL     1       1.213  10.050  19.923  0.00  0.00    +0.000 C 
ATOM     20  C   UNL     1       1.615   7.696  20.346  0.00  0.00    +0.000 A 
ATOM     21  O   UNL     1       1.238   7.854  21.509  0.00  0.00    +0.000 OA
ATOM     22  N   UNL     1       2.056   6.457  19.864  0.00  0.00    +0.000 N 
ATOM     23  C   UNL     1       2.158   5.374  20.832  0.00  0.00    +0.000 C 
ENDBRANCH  13  14
ENDBRANCH   4  13
TORSDOF 3
ENDMDL
MODEL 7
REMARK VINA RESULT:      -6.9      2.807      8.434
REMARK  Name = 
REMARK  6 active torsions:
REMARK  status: ('A' for Active; 'I' for Inactive)
REMARK    1  A    between atoms: C_1  and  C_2
REMARK    2  A    between atoms: C_5  and  C_6
REMARK    3  A    between atoms: N_9  and  C_10
REMARK    4  A    between atoms: C_10  and  C_11
REMARK    5  A    between atoms: N_15  and  C_16
REMARK    6  A    between atoms: N_19  and  C_20
REMARK                            x       y       z     vdW  Elec       q    Type
REMARK                         _______ _______ _______ _____ _____    ______ ____
ROOT
ATOM      1  C   UNL     1      -0.205  10.330  19.809  0.00  0.00    +0.000 C 
ATOM      2  C   UNL     1       0.424   9.214  20.646  0.00  0.00    +0.000 C 
ATOM      3  C   UNL     1       1.755   8.698  20.094  0.00  0.00    +0.000 C 
ATOM      4  N   UNL     1       1.622   8.293  18.683  0.00  0.00    +0.000 NA
ATOM      5  C   UNL     1       1.240   9.468  17.877  0.00  0.00    +0.000 C 
ATOM      6  C   UNL     1      -0.107  10.048  18.307  0.00  0.00    +0.000 C 
ENDROOT
BRANCH   1  11
ATOM      7  C   UNL     1       1.151  15.097  20.026  0.00  0.00    +0.000 C 
ATOM      8  C   UNL     1       0.915  13.677  20.347  0.00  0.00    +0.000 A 
ATOM      9  N   UNL     1       1.131  13.179  21.572  0.00  0.00    +0.000 NA
ATOM     10  O   UNL     1       0.748  11.845  21.442  0.00  0.00    +0.000 OA
ATOM     11  C   UNL     1       0.336  11.680  20.149  0.00  0.00    +0.000 A 
ATOM     12  N   UNL     1       0.428  12.778  19.430  0.00  0.00    +0.000 NA
ENDBRANCH   1  11
BRANCH   4  13
ATOM     13  C   UNL     1       2.888   7.737  18.147  0.00  0.00    +0.000 C 
BRANCH  13  14
ATOM     14  C   UNL     1       3.006   6.214  18.142  0.00  0.00    +0.000 A 
ATOM     15  C   UNL     1       2.118   5.497  18.839  0.00  0.00    +0.000 A 
ATOM     16  C   UNL     1       2.179   4.031  18.857  0.00  0.00    +0.000 A 
ATOM     17  O   UNL     1       1.424   3.419  19.613  0.00  0.00    +0.000 OA
ATOM     18  N   UNL     1       3.077   3.454  17.988  0.00  0.00    +0.000 N 
ATOM     19  C   UNL     1       3.091   2.010  17.856  0.00  0.00    +0.000 C 
ATOM     20  C   UNL     1       4.043   4.167  17.286  0.00  0.00    +0.000 A 
ATOM     21  O   UNL     1       4.871   3.599  16.571  0.00  0.00    +0.000 OA
ATOM     22  N   UNL     1       4.025   5.558  17.450  0.00  0.00    +0.000 N 
ATOM     23  C   UNL     1       5.105   6.307  16.825  0.00  0.00    +0.000 C 
ENDBRANCH  13  14
ENDBRANCH   4  13
TORSDOF 3
ENDMDL
MODEL 8
REMARK VINA RESULT:      -6.8      2.613      7.868
REMARK  Name = 
REMARK  6 active torsions:
REMARK  status: ('A' for Active; 'I' for Inactive)
REMARK    1  A    between atoms: C_1  and  C_2
REMARK    2  A    between atoms: C_5  and  C_6
REMARK    3  A    between atoms: N_9  and  C_10
REMARK    4  A    between atoms: C_10  and  C_11
REMARK    5  A    between atoms: N_15  and  C_16
REMARK    6  A    between atoms: N_19  and  C_20
REMARK                            x       y       z     vdW  Elec       q    Type
REMARK                         _______ _______ _______ _____ _____    ______ ____
ROOT
ATOM      1  C   UNL     1       0.949  10.712  18.997  0.00  0.00    +0.000 C 
ATOM      2  C   UNL     1       1.813  10.033  17.932  0.00  0.00    +0.000 C 
ATOM      3  C   UNL     1       1.828   8.505  18.026  0.00  0.00    +0.000 C 
ATOM      4  N   UNL     1       2.206   8.061  19.380  0.00  0.00    +0.000 NA
ATOM      5  C   UNL     1       1.203   8.549  20.345  0.00  0.00    +0.000 C 
ATOM      6  C   UNL     1       1.129  10.075  20.378  0.00  0.00    +0.000 C 
ENDROOT
BRANCH   1  11
ATOM      7  C   UNL     1      -3.636  10.035  17.229  0.00  0.00    +0.000 C 
ATOM      8  C   UNL     1      -2.459  10.562  17.945  0.00  0.00    +0.000 A 
ATOM      9  N   UNL     1      -2.557  11.541  18.854  0.00  0.00    +0.000 NA
ATOM     10  O   UNL     1      -1.246  11.692  19.299  0.00  0.00    +0.000 OA
ATOM     11  C   UNL     1      -0.491  10.782  18.611  0.00  0.00    +0.000 A 
ATOM     12  N   UNL     1      -1.191  10.067  17.757  0.00  0.00    +0.000 NA
ENDBRANCH   1  11
BRANCH   4  13
ATOM     13  C   UNL     1       2.280   6.583  19.475  0.00  0.00    +0.000 C 
BRANCH  13  14
ATOM     14  C   UNL     1       3.160   5.885  18.439  0.00  0.00    +0.000 A 
ATOM     15  C   UNL     1       4.030   6.617  17.735  0.00  0.00    +0.000 A 
ATOM     16  C   UNL     1       4.908   5.994  16.738  0.00  0.00    +0.000 A 
ATOM     17  O   UNL     1       5.599   6.721  16.024  0.00  0.00    +0.000 OA
ATOM     18  N   UNL     1       4.902   4.618  16.705  0.00  0.00    +0.000 N 
ATOM     19  C   UNL     1       5.845   3.937  15.840  0.00  0.00    +0.000 C 
ATOM     20  C   UNL     1       3.981   3.831  17.388  0.00  0.00    +0.000 A 
ATOM     21  O   UNL     1       3.971   2.604  17.273  0.00  0.00    +0.000 OA
ATOM     22  N   UNL     1       3.064   4.514  18.196  0.00  0.00    +0.000 N 
ATOM     23  C   UNL     1       2.015   3.718  18.817  0.00  0.00    +0.000 C 
ENDBRANCH  13  14
ENDBRANCH   4  13
TORSDOF 3
ENDMDL
MODEL 9
REMARK VINA RESULT:      -6.7      2.975      3.930
REMARK  Name = 
REMARK  6 active torsions:
REMARK  status: ('A' for Active; 'I' for Inactive)
REMARK    1  A    between atoms: C_1  and  C_2
REMARK    2  A    between atoms: C_5  and  C_6
REMARK    3  A    between atoms: N_9  and  C_10
REMARK    4  A    between atoms: C_10  and  C_11
REMARK    5  A    between atoms: N_15  and  C_16
REMARK    6  A    between atoms: N_19  and  C_20
REMARK                            x       y       z     vdW  Elec       q    Type
REMARK                         _______ _______ _______ _____ _____    ______ ____
ROOT
ATOM      1  C   UNL     1       7.124   5.484  16.514  0.00  0.00    +0.000 C 
ATOM      2  C   UNL     1       6.592   4.516  17.573  0.00  0.00    +0.000 C 
ATOM      3  C   UNL     1       5.076   4.595  17.779  0.00  0.00    +0.000 C 
ATOM      4  N   UNL     1       4.650   5.977  18.061  0.00  0.00    +0.000 NA
ATOM      5  C   UNL     1       4.978   6.828  16.901  0.00  0.00    +0.000 C 
ATOM      6  C   UNL     1       6.480   6.869  16.623  0.00  0.00    +0.000 C 
ENDROOT
BRANCH   1  11
ATOM      7  C   UNL     1       5.915   3.180  12.290  0.00  0.00    +0.000 C 
ATOM      8  C   UNL     1       6.561   4.044  13.295  0.00  0.00    +0.000 A 
ATOM      9  N   UNL     1       7.470   4.970  12.961  0.00  0.00    +0.000 NA
ATOM     10  O   UNL     1       7.777   5.567  14.182  0.00  0.00    +0.000 OA
ATOM     11  C   UNL     1       7.016   4.938  15.128  0.00  0.00    +0.000 A 
ATOM     12  N   UNL     1       6.255   3.985  14.634  0.00  0.00    +0.000 NA
ENDBRANCH   1  11
BRANCH   4  13
ATOM     13  C   UNL     1       3.193   6.063  18.320  0.00  0.00    +0.000 C 
BRANCH  13  14
ATOM     14  C   UNL     1       2.597   4.960  19.192  0.00  0.00    +0.000 A 
ATOM     15  C   UNL     1       2.884   4.947  20.499  0.00  0.00    +0.000 A 
ATOM     16  C   UNL     1       2.327   3.917  21.383  0.00  0.00    +0.000 A 
ATOM     17  O   UNL     1       2.719   3.867  22.549  0.00  0.00    +0.000 OA
ATOM     18  N   UNL     1       1.374   3.095  20.827  0.00  0.00    +0.000 N 
ATOM     19  C   UNL     1       0.686   2.147  21.681  0.00  0.00    +0.000 C 
ATOM     20  C   UNL     1       1.087   3.051  19.466  0.00  0.00    +0.000 A 
ATOM     21  O   UNL     1       0.274   2.249  19.005  0.00  0.00    +0.000 OA
ATOM     22  N   UNL     1       1.785   3.958  18.659  0.00  0.00    +0.000 N 
ATOM     23  C   UNL     1       1.591   3.841  17.221  0.00  0.00    +0.000 C 
ENDBRANCH  13  14
ENDBRANCH   4  13
TORSDOF 3
ENDMDL
