MODEL 1
REMARK VINA RESULT:      -8.8      0.000      0.000
REMARK  Name = 
REMARK  4 active torsions:
REMARK  status: ('A' for Active; 'I' for Inactive)
REMARK    1  A    between atoms: C_1  and  O_2
REMARK    2  A    between atoms: O_2  and  C_3
REMARK    3  A    between atoms: C_9  and  C_10
REMARK    4  A    between atoms: N_15  and  C_16
REMARK                            x       y       z     vdW  Elec       q    Type
REMARK                         _______ _______ _______ _____ _____    ______ ____
ROOT
ATOM      1  C   UNL     1       1.089   9.674  18.662  0.00  0.00    +0.000 C 
ATOM      2  O   UNL     1       1.684   9.240  17.674  0.00  0.00    +0.000 OA
ATOM      3  N   UNL     1       1.129   9.027  19.891  0.00  0.00    +0.000 N 
ATOM      4  C   UNL     1       1.835   7.890  20.217  0.00  0.00    +0.000 C 
ATOM      5  O   UNL     1       1.832   7.472  21.373  0.00  0.00    +0.000 OA
ATOM      6  N   UNL     1       2.522   7.310  19.200  0.00  0.00    +0.000 N 
ATOM      7  H   UNL     1       0.686   9.472  20.681  0.00  0.00    +0.000 HD
ATOM      8  H   UNL     1       2.308   7.641  18.262  0.00  0.00    +0.000 HD
ENDROOT
BRANCH   6   9
ATOM      9  C   UNL     1       3.269   6.084  19.311  0.00  0.00    +0.000 C 
ATOM     10  C   UNL     1       2.351   4.868  19.274  0.00  0.00    +0.000 A 
ATOM     11  C   UNL     1       1.348   4.523  20.166  0.00  0.00    +0.000 A 
ATOM     12  C   UNL     1       0.611   3.365  19.911  0.00  0.00    +0.000 A 
ATOM     13  C   UNL     1       0.887   2.571  18.785  0.00  0.00    +0.000 A 
ATOM     14  C   UNL     1       1.911   2.916  17.897  0.00  0.00    +0.000 A 
ATOM     15  C   UNL     1       2.641   4.066  18.149  0.00  0.00    +0.000 A 
ATOM     16  C   UNL     1       3.735   4.665  17.416  0.00  0.00    +0.000 A 
ATOM     17  C   UNL     1       4.376   4.252  16.258  0.00  0.00    +0.000 A 
ATOM     18  C   UNL     1       5.417   5.038  15.755  0.00  0.00    +0.000 A 
ATOM     19  C   UNL     1       5.804   6.222  16.406  0.00  0.00    +0.000 A 
ATOM     20  C   UNL     1       5.157   6.639  17.573  0.00  0.00    +0.000 A 
ATOM     21  C   UNL     1       4.126   5.854  18.071  0.00  0.00    +0.000 A 
ENDBRANCH   6   9
BRANCH   1  28
ATOM     22  C   UNL     1      -1.127  10.897  18.428  0.00  0.00    +0.000 A 
ATOM     23  C   UNL     1      -1.849  12.100  18.396  0.00  0.00    +0.000 A 
ATOM     24  C   UNL     1      -1.197  13.328  18.469  0.00  0.00    +0.000 A 
ATOM     25  C   UNL     1       0.187  13.370  18.574  0.00  0.00    +0.000 A 
ATOM     26  C   UNL     1       0.929  12.184  18.614  0.00  0.00    +0.000 A 
ATOM     27 CL   UNL     1       2.647  12.400  18.683  0.00  0.00    +0.000 Cl
ATOM     28  C   UNL     1       0.283  10.930  18.552  0.00  0.00    +0.000 A 
BRANCH  22  30
ATOM     29  C   UNL     1      -2.992   9.584  17.717  0.00  0.00    +0.000 C 
ATOM     30  O   UNL     1      -1.740   9.668  18.396  0.00  0.00    +0.000 OA
ENDBRANCH  22  30
ENDBRANCH   1  28
TORSDOF 3
ENDMDL
MODEL 2
REMARK VINA RESULT:      -8.7      1.382      2.078
REMARK  Name = 
REMARK  4 active torsions:
REMARK  status: ('A' for Active; 'I' for Inactive)
REMARK    1  A    between atoms: C_1  and  O_2
REMARK    2  A    between atoms: O_2  and  C_3
REMARK    3  A    between atoms: C_9  and  C_10
REMARK    4  A    between atoms: N_15  and  C_16
REMARK                            x       y       z     vdW  Elec       q    Type
REMARK                         _______ _______ _______ _____ _____    ______ ____
ROOT
ATOM      1  C   UNL     1       0.968   9.606  18.897  0.00  0.00    +0.000 C 
ATOM      2  O   UNL     1       1.535   9.211  17.877  0.00  0.00    +0.000 OA
ATOM      3  N   UNL     1       1.068   8.929  20.106  0.00  0.00    +0.000 N 
ATOM      4  C   UNL     1       1.811   7.800  20.376  0.00  0.00    +0.000 C 
ATOM      5  O   UNL     1       1.861   7.353  21.520  0.00  0.00    +0.000 OA
ATOM      6  N   UNL     1       2.472   7.263  19.319  0.00  0.00    +0.000 N 
ATOM      7  H   UNL     1       0.646   9.343  20.924  0.00  0.00    +0.000 HD
ATOM      8  H   UNL     1       2.216   7.613  18.399  0.00  0.00    +0.000 HD
ENDROOT
BRANCH   6   9
ATOM      9  C   UNL     1       3.250   6.051  19.370  0.00  0.00    +0.000 C 
ATOM     10  C   UNL     1       2.359   4.816  19.313  0.00  0.00    +0.000 A 
ATOM     11  C   UNL     1       1.386   4.417  20.216  0.00  0.00    +0.000 A 
ATOM     12  C   UNL     1       0.671   3.251  19.939  0.00  0.00    +0.000 A 
ATOM     13  C   UNL     1       0.937   2.502  18.780  0.00  0.00    +0.000 A 
ATOM     14  C   UNL     1       1.930   2.902  17.881  0.00  0.00    +0.000 A 
ATOM     15  C   UNL     1       2.640   4.059  18.155  0.00  0.00    +0.000 A 
ATOM     16  C   UNL     1       3.702   4.709  17.417  0.00  0.00    +0.000 A 
ATOM     17  C   UNL     1       4.323   4.351  16.230  0.00  0.00    +0.000 A 
ATOM     18  C   UNL     1       5.333   5.178  15.731  0.00  0.00    +0.000 A 
ATOM     19  C   UNL     1       5.708   6.348  16.412  0.00  0.00    +0.000 A 
ATOM     20  C   UNL     1       5.081   6.711  17.608  0.00  0.00    +0.000 A 
ATOM     21  C   UNL     1       4.081   5.884  18.103  0.00  0.00    +0.000 A 
ENDBRANCH   6   9
BRANCH   1  28
ATOM     22  C   UNL     1       0.484  12.006  19.577  0.00  0.00    +0.000 A 
ATOM     23  C   UNL     1      -0.293  13.168  19.452  0.00  0.00    +0.000 A 
ATOM     24  C   UNL     1      -1.419  13.190  18.633  0.00  0.00    +0.000 A 
ATOM     25  C   UNL     1      -1.783  12.051  17.929  0.00  0.00    +0.000 A 
ATOM     26  C   UNL     1      -1.021  10.882  18.033  0.00  0.00    +0.000 A 
ATOM     27 CL   UNL     1      -1.636   9.527  17.144  0.00  0.00    +0.000 Cl
ATOM     28  C   UNL     1       0.130  10.845  18.850  0.00  0.00    +0.000 A 
BRANCH  22  30
ATOM     29  C   UNL     1       2.303  13.193  20.575  0.00  0.00    +0.000 C 
ATOM     30  O   UNL     1       1.622  11.960  20.347  0.00  0.00    +0.000 OA
ENDBRANCH  22  30
ENDBRANCH   1  28
TORSDOF 3
ENDMDL
MODEL 3
REMARK VINA RESULT:      -8.2      2.398      4.277
REMARK  Name = 
REMARK  4 active torsions:
REMARK  status: ('A' for Active; 'I' for Inactive)
REMARK    1  A    between atoms: C_1  and  O_2
REMARK    2  A    between atoms: O_2  and  C_3
REMARK    3  A    between atoms: C_9  and  C_10
REMARK    4  A    between atoms: N_15  and  C_16
REMARK                            x       y       z     vdW  Elec       q    Type
REMARK                         _______ _______ _______ _____ _____    ______ ____
ROOT
ATOM      1  C   UNL     1       1.193   9.430  20.320  0.00  0.00    +0.000 C 
ATOM      2  O   UNL     1       1.359   8.416  20.999  0.00  0.00    +0.000 OA
ATOM      3  N   UNL     1       1.486   9.465  18.962  0.00  0.00    +0.000 N 
ATOM      4  C   UNL     1       1.935   8.427  18.175  0.00  0.00    +0.000 C 
ATOM      5  O   UNL     1       2.081   8.589  16.965  0.00  0.00    +0.000 OA
ATOM      6  N   UNL     1       2.169   7.256  18.820  0.00  0.00    +0.000 N 
ATOM      7  H   UNL     1       1.256  10.299  18.443  0.00  0.00    +0.000 HD
ATOM      8  H   UNL     1       2.181   7.293  19.836  0.00  0.00    +0.000 HD
ENDROOT
BRANCH   6   9
ATOM      9  C   UNL     1       2.702   6.071  18.198  0.00  0.00    +0.000 C 
ATOM     10  C   UNL     1       4.223   6.120  18.119  0.00  0.00    +0.000 A 
ATOM     11  C   UNL     1       5.019   7.027  17.437  0.00  0.00    +0.000 A 
ATOM     12  C   UNL     1       6.404   6.888  17.534  0.00  0.00    +0.000 A 
ATOM     13  C   UNL     1       6.972   5.853  18.295  0.00  0.00    +0.000 A 
ATOM     14  C   UNL     1       6.164   4.932  18.968  0.00  0.00    +0.000 A 
ATOM     15  C   UNL     1       4.789   5.069  18.874  0.00  0.00    +0.000 A 
ATOM     16  C   UNL     1       3.722   4.284  19.456  0.00  0.00    +0.000 A 
ATOM     17  C   UNL     1       3.771   3.158  20.265  0.00  0.00    +0.000 A 
ATOM     18  C   UNL     1       2.567   2.595  20.697  0.00  0.00    +0.000 A 
ATOM     19  C   UNL     1       1.334   3.157  20.324  0.00  0.00    +0.000 A 
ATOM     20  C   UNL     1       1.285   4.293  19.510  0.00  0.00    +0.000 A 
ATOM     21  C   UNL     1       2.482   4.847  19.080  0.00  0.00    +0.000 A 
ENDBRANCH   6   9
BRANCH   1  28
ATOM     22  C   UNL     1       1.026  11.961  20.481  0.00  0.00    +0.000 A 
ATOM     23  C   UNL     1       0.461  13.103  21.069  0.00  0.00    +0.000 A 
ATOM     24  C   UNL     1      -0.435  12.992  22.130  0.00  0.00    +0.000 A 
ATOM     25  C   UNL     1      -0.777  11.738  22.616  0.00  0.00    +0.000 A 
ATOM     26  C   UNL     1      -0.231  10.584  22.043  0.00  0.00    +0.000 A 
ATOM     27 CL   UNL     1      -0.704   9.098  22.800  0.00  0.00    +0.000 Cl
ATOM     28  C   UNL     1       0.671  10.678  20.960  0.00  0.00    +0.000 A 
BRANCH  22  30
ATOM     29  C   UNL     1       1.657  13.074  18.463  0.00  0.00    +0.000 C 
ATOM     30  O   UNL     1       1.884  12.031  19.410  0.00  0.00    +0.000 OA
ENDBRANCH  22  30
ENDBRANCH   1  28
TORSDOF 3
ENDMDL
MODEL 4
REMARK VINA RESULT:      -7.9      1.706      3.548
REMARK  Name = 
REMARK  4 active torsions:
REMARK  status: ('A' for Active; 'I' for Inactive)
REMARK    1  A    between atoms: C_1  and  O_2
REMARK    2  A    between atoms: O_2  and  C_3
REMARK    3  A    between atoms: C_9  and  C_10
REMARK    4  A    between atoms: N_15  and  C_16
REMARK                            x       y       z     vdW  Elec       q    Type
REMARK                         _______ _______ _______ _____ _____    ______ ____
ROOT
ATOM      1  C   UNL     1       1.595   9.543  18.743  0.00  0.00    +0.000 C 
ATOM      2  O   UNL     1       1.851   9.591  17.539  0.00  0.00    +0.000 OA
ATOM      3  N   UNL     1       1.927   8.443  19.524  0.00  0.00    +0.000 N 
ATOM      4  C   UNL     1       2.601   7.308  19.130  0.00  0.00    +0.000 C 
ATOM      5  O   UNL     1       2.890   6.444  19.955  0.00  0.00    +0.000 OA
ATOM      6  N   UNL     1       2.925   7.241  17.813  0.00  0.00    +0.000 N 
ATOM      7  H   UNL     1       1.763   8.493  20.519  0.00  0.00    +0.000 HD
ATOM      8  H   UNL     1       2.483   7.925  17.203  0.00  0.00    +0.000 HD
ENDROOT
BRANCH   6   9
ATOM      9  C   UNL     1       3.570   6.117  17.184  0.00  0.00    +0.000 C 
ATOM     10  C   UNL     1       5.048   6.048  17.549  0.00  0.00    +0.000 A 
ATOM     11  C   UNL     1       6.043   6.973  17.277  0.00  0.00    +0.000 A 
ATOM     12  C   UNL     1       7.333   6.705  17.739  0.00  0.00    +0.000 A 
ATOM     13  C   UNL     1       7.611   5.527  18.451  0.00  0.00    +0.000 A 
ATOM     14  C   UNL     1       6.606   4.590  18.709  0.00  0.00    +0.000 A 
ATOM     15  C   UNL     1       5.326   4.856  18.252  0.00  0.00    +0.000 A 
ATOM     16  C   UNL     1       4.105   4.088  18.373  0.00  0.00    +0.000 A 
ATOM     17  C   UNL     1       3.871   2.858  18.968  0.00  0.00    +0.000 A 
ATOM     18  C   UNL     1       2.572   2.342  18.943  0.00  0.00    +0.000 A 
ATOM     19  C   UNL     1       1.526   3.054  18.333  0.00  0.00    +0.000 A 
ATOM     20  C   UNL     1       1.761   4.295  17.734  0.00  0.00    +0.000 A 
ATOM     21  C   UNL     1       3.053   4.802  17.758  0.00  0.00    +0.000 A 
ENDBRANCH   6   9
BRANCH   1  28
ATOM     22  C   UNL     1      -0.173  10.485  20.307  0.00  0.00    +0.000 A 
ATOM     23  C   UNL     1      -0.756  11.585  20.954  0.00  0.00    +0.000 A 
ATOM     24  C   UNL     1      -0.307  12.881  20.707  0.00  0.00    +0.000 A 
ATOM     25  C   UNL     1       0.730  13.092  19.810  0.00  0.00    +0.000 A 
ATOM     26  C   UNL     1       1.332  12.010  19.156  0.00  0.00    +0.000 A 
ATOM     27 CL   UNL     1       2.569  12.439  18.020  0.00  0.00    +0.000 Cl
ATOM     28  C   UNL     1       0.896  10.690  19.403  0.00  0.00    +0.000 A 
BRANCH  22  30
ATOM     29  C   UNL     1      -0.462   8.727  21.899  0.00  0.00    +0.000 C 
ATOM     30  O   UNL     1      -0.566   9.191  20.554  0.00  0.00    +0.000 OA
ENDBRANCH  22  30
ENDBRANCH   1  28
TORSDOF 3
ENDMDL
MODEL 5
REMARK VINA RESULT:      -7.9      2.218      3.989
REMARK  Name = 
REMARK  4 active torsions:
REMARK  status: ('A' for Active; 'I' for Inactive)
REMARK    1  A    between atoms: C_1  and  O_2
REMARK    2  A    between atoms: O_2  and  C_3
REMARK    3  A    between atoms: C_9  and  C_10
REMARK    4  A    between atoms: N_15  and  C_16
REMARK                            x       y       z     vdW  Elec       q    Type
REMARK                         _______ _______ _______ _____ _____    ______ ____
ROOT
ATOM      1  C   UNL     1       1.152   8.761  19.812  0.00  0.00    +0.000 C 
ATOM      2  O   UNL     1       1.232   7.667  20.373  0.00  0.00    +0.000 OA
ATOM      3  N   UNL     1       1.774   9.015  18.596  0.00  0.00    +0.000 N 
ATOM      4  C   UNL     1       2.500   8.133  17.826  0.00  0.00    +0.000 C 
ATOM      5  O   UNL     1       2.932   8.482  16.729  0.00  0.00    +0.000 OA
ATOM      6  N   UNL     1       2.668   6.892  18.350  0.00  0.00    +0.000 N 
ATOM      7  H   UNL     1       1.608   9.904  18.149  0.00  0.00    +0.000 HD
ATOM      8  H   UNL     1       2.420   6.777  19.330  0.00  0.00    +0.000 HD
ENDROOT
BRANCH   6   9
ATOM      9  C   UNL     1       3.446   5.844  17.741  0.00  0.00    +0.000 C 
ATOM     10  C   UNL     1       4.940   6.075  17.936  0.00  0.00    +0.000 A 
ATOM     11  C   UNL     1       5.713   7.130  17.478  0.00  0.00    +0.000 A 
ATOM     12  C   UNL     1       7.069   7.142  17.806  0.00  0.00    +0.000 A 
ATOM     13  C   UNL     1       7.633   6.108  18.572  0.00  0.00    +0.000 A 
ATOM     14  C   UNL     1       6.851   5.038  19.018  0.00  0.00    +0.000 A 
ATOM     15  C   UNL     1       5.505   5.026  18.693  0.00  0.00    +0.000 A 
ATOM     16  C   UNL     1       4.468   4.069  19.015  0.00  0.00    +0.000 A 
ATOM     17  C   UNL     1       4.528   2.881  19.728  0.00  0.00    +0.000 A 
ATOM     18  C   UNL     1       3.353   2.143  19.895  0.00  0.00    +0.000 A 
ATOM     19  C   UNL     1       2.137   2.595  19.356  0.00  0.00    +0.000 A 
ATOM     20  C   UNL     1       2.075   3.794  18.639  0.00  0.00    +0.000 A 
ATOM     21  C   UNL     1       3.245   4.521  18.472  0.00  0.00    +0.000 A 
ENDBRANCH   6   9
BRANCH   1  28
ATOM     22  C   UNL     1      -0.481  10.705  19.695  0.00  0.00    +0.000 A 
ATOM     23  C   UNL     1      -1.243  11.689  20.344  0.00  0.00    +0.000 A 
ATOM     24  C   UNL     1      -1.158  11.865  21.723  0.00  0.00    +0.000 A 
ATOM     25  C   UNL     1      -0.309  11.059  22.471  0.00  0.00    +0.000 A 
ATOM     26  C   UNL     1       0.457  10.068  21.847  0.00  0.00    +0.000 A 
ATOM     27 CL   UNL     1       1.513   9.188  22.902  0.00  0.00    +0.000 Cl
ATOM     28  C   UNL     1       0.374   9.869  20.451  0.00  0.00    +0.000 A 
BRANCH  22  30
ATOM     29  C   UNL     1      -1.842  10.094  17.828  0.00  0.00    +0.000 C 
ATOM     30  O   UNL     1      -0.568  10.480  18.341  0.00  0.00    +0.000 OA
ENDBRANCH  22  30
ENDBRANCH   1  28
TORSDOF 3
ENDMDL
MODEL 6
REMARK VINA RESULT:      -7.9      1.979      2.513
REMARK  Name = 
REMARK  4 active torsions:
REMARK  status: ('A' for Active; 'I' for Inactive)
REMARK    1  A    between atoms: C_1  and  O_2
REMARK    2  A    between atoms: O_2  and  C_3
REMARK    3  A    between atoms: C_9  and  C_10
REMARK    4  A    between atoms: N_15  and  C_16
REMARK                            x       y       z     vdW  Elec       q    Type
REMARK                         _______ _______ _______ _____ _____    ______ ____
ROOT
ATOM      1  C   UNL     1       1.367   9.192  20.419  0.00  0.00    +0.000 C 
ATOM      2  O   UNL     1       1.854   8.670  21.424  0.00  0.00    +0.000 OA
ATOM      3  N   UNL     1       1.519   8.640  19.154  0.00  0.00    +0.000 N 
ATOM      4  C   UNL     1       2.155   7.463  18.823  0.00  0.00    +0.000 C 
ATOM      5  O   UNL     1       2.146   7.062  17.661  0.00  0.00    +0.000 OA
ATOM      6  N   UNL     1       2.745   6.803  19.852  0.00  0.00    +0.000 N 
ATOM      7  H   UNL     1       1.032   9.070  18.381  0.00  0.00    +0.000 HD
ATOM      8  H   UNL     1       2.838   7.315  20.726  0.00  0.00    +0.000 HD
ENDROOT
BRANCH   6   9
ATOM      9  C   UNL     1       3.515   5.593  19.714  0.00  0.00    +0.000 C 
ATOM     10  C   UNL     1       2.613   4.378  19.534  0.00  0.00    +0.000 A 
ATOM     11  C   UNL     1       1.674   3.867  20.416  0.00  0.00    +0.000 A 
ATOM     12  C   UNL     1       0.940   2.748  20.019  0.00  0.00    +0.000 A 
ATOM     13  C   UNL     1       1.154   2.156  18.764  0.00  0.00    +0.000 A 
ATOM     14  C   UNL     1       2.114   2.666  17.884  0.00  0.00    +0.000 A 
ATOM     15  C   UNL     1       2.843   3.776  18.278  0.00  0.00    +0.000 A 
ATOM     16  C   UNL     1       3.880   4.514  17.588  0.00  0.00    +0.000 A 
ATOM     17  C   UNL     1       4.451   4.311  16.341  0.00  0.00    +0.000 A 
ATOM     18  C   UNL     1       5.447   5.194  15.912  0.00  0.00    +0.000 A 
ATOM     19  C   UNL     1       5.857   6.264  16.724  0.00  0.00    +0.000 A 
ATOM     20  C   UNL     1       5.280   6.471  17.981  0.00  0.00    +0.000 A 
ATOM     21  C   UNL     1       4.295   5.590  18.404  0.00  0.00    +0.000 A 
ENDBRANCH   6   9
BRANCH   1  28
ATOM     22  C   UNL     1       0.784  11.540  19.642  0.00  0.00    +0.000 A 
ATOM     23  C   UNL     1      -0.011  12.691  19.754  0.00  0.00    +0.000 A 
ATOM     24  C   UNL     1      -0.976  12.800  20.753  0.00  0.00    +0.000 A 
ATOM     25  C   UNL     1      -1.158  11.758  21.652  0.00  0.00    +0.000 A 
ATOM     26  C   UNL     1      -0.382  10.597  21.557  0.00  0.00    +0.000 A 
ATOM     27 CL   UNL     1      -0.683   9.414  22.787  0.00  0.00    +0.000 Cl
ATOM     28  C   UNL     1       0.593  10.467  20.544  0.00  0.00    +0.000 A 
BRANCH  22  30
ATOM     29  C   UNL     1       2.435  12.549  18.240  0.00  0.00    +0.000 C 
ATOM     30  O   UNL     1       1.719  11.384  18.646  0.00  0.00    +0.000 OA
ENDBRANCH  22  30
ENDBRANCH   1  28
TORSDOF 3
ENDMDL
MODEL 7
REMARK VINA RESULT:      -7.7      1.975      3.958
REMARK  Name = 
REMARK  4 active torsions:
REMARK  status: ('A' for Active; 'I' for Inactive)
REMARK    1  A    between atoms: C_1  and  O_2
REMARK    2  A    between atoms: O_2  and  C_3
REMARK    3  A    between atoms: C_9  and  C_10
REMARK    4  A    between atoms: N_15  and  C_16
REMARK                            x       y       z     vdW  Elec       q    Type
REMARK                         _______ _______ _______ _____ _____    ______ ____
ROOT
ATOM      1  C   UNL     1       1.187   9.092  18.914  0.00  0.00    +0.000 C 
ATOM      2  O   UNL     1       1.467   9.249  17.724  0.00  0.00    +0.000 OA
ATOM      3  N   UNL     1       1.646   8.003  19.643  0.00  0.00    +0.000 N 
ATOM      4  C   UNL     1       2.483   6.997  19.211  0.00  0.00    +0.000 C 
ATOM      5  O   UNL     1       2.866   6.132  19.996  0.00  0.00    +0.000 OA
ATOM      6  N   UNL     1       2.850   7.056  17.905  0.00  0.00    +0.000 N 
ATOM      7  H   UNL     1       1.448   7.969  20.632  0.00  0.00    +0.000 HD
ATOM      8  H   UNL     1       2.335   7.708  17.318  0.00  0.00    +0.000 HD
ENDROOT
BRANCH   6   9
ATOM      9  C   UNL     1       3.663   6.072  17.237  0.00  0.00    +0.000 C 
ATOM     10  C   UNL     1       5.125   6.185  17.651  0.00  0.00    +0.000 A 
ATOM     11  C   UNL     1       5.989   7.253  17.468  0.00  0.00    +0.000 A 
ATOM     12  C   UNL     1       7.290   7.137  17.960  0.00  0.00    +0.000 A 
ATOM     13  C   UNL     1       7.710   5.967  18.615  0.00  0.00    +0.000 A 
ATOM     14  C   UNL     1       6.838   4.887  18.783  0.00  0.00    +0.000 A 
ATOM     15  C   UNL     1       5.547   5.002  18.296  0.00  0.00    +0.000 A 
ATOM     16  C   UNL     1       4.442   4.067  18.329  0.00  0.00    +0.000 A 
ATOM     17  C   UNL     1       4.365   2.782  18.845  0.00  0.00    +0.000 A 
ATOM     18  C   UNL     1       3.152   2.095  18.745  0.00  0.00    +0.000 A 
ATOM     19  C   UNL     1       2.035   2.693  18.138  0.00  0.00    +0.000 A 
ATOM     20  C   UNL     1       2.112   3.988  17.618  0.00  0.00    +0.000 A 
ATOM     21  C   UNL     1       3.319   4.666  17.717  0.00  0.00    +0.000 A 
ENDBRANCH   6   9
BRANCH   1  28
ATOM     22  C   UNL     1       0.614  10.550  20.915  0.00  0.00    +0.000 A 
ATOM     23  C   UNL     1      -0.191  11.536  21.505  0.00  0.00    +0.000 A 
ATOM     24  C   UNL     1      -1.292  12.059  20.830  0.00  0.00    +0.000 A 
ATOM     25  C   UNL     1      -1.602  11.601  19.556  0.00  0.00    +0.000 A 
ATOM     26  C   UNL     1      -0.810  10.622  18.945  0.00  0.00    +0.000 A 
ATOM     27 CL   UNL     1      -1.359  10.109  17.383  0.00  0.00    +0.000 Cl
ATOM     28  C   UNL     1       0.316  10.090  19.611  0.00  0.00    +0.000 A 
BRANCH  22  30
ATOM     29  C   UNL     1       1.520   9.297  22.737  0.00  0.00    +0.000 C 
ATOM     30  O   UNL     1       1.729  10.040  21.537  0.00  0.00    +0.000 OA
ENDBRANCH  22  30
ENDBRANCH   1  28
TORSDOF 3
ENDMDL
MODEL 8
REMARK VINA RESULT:      -7.7      2.046      7.809
REMARK  Name = 
REMARK  4 active torsions:
REMARK  status: ('A' for Active; 'I' for Inactive)
REMARK    1  A    between atoms: C_1  and  O_2
REMARK    2  A    between atoms: O_2  and  C_3
REMARK    3  A    between atoms: C_9  and  C_10
REMARK    4  A    between atoms: N_15  and  C_16
REMARK                            x       y       z     vdW  Elec       q    Type
REMARK                         _______ _______ _______ _____ _____    ______ ____
ROOT
ATOM      1  C   UNL     1       2.351   7.051  19.330  0.00  0.00    +0.000 C 
ATOM      2  O   UNL     1       1.877   7.588  18.327  0.00  0.00    +0.000 OA
ATOM      3  N   UNL     1       2.072   7.508  20.612  0.00  0.00    +0.000 N 
ATOM      4  C   UNL     1       1.232   8.539  20.971  0.00  0.00    +0.000 C 
ATOM      5  O   UNL     1       1.025   8.783  22.158  0.00  0.00    +0.000 OA
ATOM      6  N   UNL     1       0.659   9.217  19.943  0.00  0.00    +0.000 N 
ATOM      7  H   UNL     1       2.427   6.981  21.397  0.00  0.00    +0.000 HD
ATOM      8  H   UNL     1       1.039   9.041  19.016  0.00  0.00    +0.000 HD
ENDROOT
BRANCH   6   9
ATOM      9  C   UNL     1      -0.197  10.365  20.096  0.00  0.00    +0.000 C 
ATOM     10  C   UNL     1       0.582  11.665  19.936  0.00  0.00    +0.000 A 
ATOM     11  C   UNL     1       1.626  12.142  20.714  0.00  0.00    +0.000 A 
ATOM     12  C   UNL     1       2.210  13.358  20.357  0.00  0.00    +0.000 A 
ATOM     13  C   UNL     1       1.745  14.079  19.244  0.00  0.00    +0.000 A 
ATOM     14  C   UNL     1       0.682  13.601  18.472  0.00  0.00    +0.000 A 
ATOM     15  C   UNL     1       0.102  12.393  18.826  0.00  0.00    +0.000 A 
ATOM     16  C   UNL     1      -0.989  11.660  18.222  0.00  0.00    +0.000 A 
ATOM     17  C   UNL     1      -1.779  11.965  17.123  0.00  0.00    +0.000 A 
ATOM     18  C   UNL     1      -2.777  11.060  16.748  0.00  0.00    +0.000 A 
ATOM     19  C   UNL     1      -2.973   9.868  17.465  0.00  0.00    +0.000 A 
ATOM     20  C   UNL     1      -2.176   9.560  18.572  0.00  0.00    +0.000 A 
ATOM     21  C   UNL     1      -1.189  10.462  18.943  0.00  0.00    +0.000 A 
ENDBRANCH   6   9
BRANCH   1  28
ATOM     22  C   UNL     1       3.113   4.713  19.973  0.00  0.00    +0.000 A 
ATOM     23  C   UNL     1       3.953   3.610  19.756  0.00  0.00    +0.000 A 
ATOM     24  C   UNL     1       4.950   3.651  18.784  0.00  0.00    +0.000 A 
ATOM     25  C   UNL     1       5.120   4.795  18.017  0.00  0.00    +0.000 A 
ATOM     26  C   UNL     1       4.291   5.906  18.210  0.00  0.00    +0.000 A 
ATOM     27 CL   UNL     1       4.667   7.279  17.221  0.00  0.00    +0.000 Cl
ATOM     28  C   UNL     1       3.268   5.878  19.184  0.00  0.00    +0.000 A 
BRANCH  22  30
ATOM     29  C   UNL     1       1.671   3.418  21.370  0.00  0.00    +0.000 C 
ATOM     30  O   UNL     1       2.095   4.695  20.897  0.00  0.00    +0.000 OA
ENDBRANCH  22  30
ENDBRANCH   1  28
TORSDOF 3
ENDMDL
MODEL 9
REMARK VINA RESULT:      -7.7      2.220      4.033
REMARK  Name = 
REMARK  4 active torsions:
REMARK  status: ('A' for Active; 'I' for Inactive)
REMARK    1  A    between atoms: C_1  and  O_2
REMARK    2  A    between atoms: O_2  and  C_3
REMARK    3  A    between atoms: C_9  and  C_10
REMARK    4  A    between atoms: N_15  and  C_16
REMARK                            x       y       z     vdW  Elec       q    Type
REMARK                         _______ _______ _______ _____ _____    ______ ____
ROOT
ATOM      1  C   UNL     1       1.305   9.207  19.525  0.00  0.00    +0.000 C 
ATOM      2  O   UNL     1       1.264   9.330  18.299  0.00  0.00    +0.000 OA
ATOM      3  N   UNL     1       1.886   8.103  20.137  0.00  0.00    +0.000 N 
ATOM      4  C   UNL     1       2.523   7.045  19.526  0.00  0.00    +0.000 C 
ATOM      5  O   UNL     1       3.057   6.170  20.205  0.00  0.00    +0.000 OA
ATOM      6  N   UNL     1       2.529   7.064  18.168  0.00  0.00    +0.000 N 
ATOM      7  H   UNL     1       1.958   8.095  21.143  0.00  0.00    +0.000 HD
ATOM      8  H   UNL     1       1.910   7.737  17.722  0.00  0.00    +0.000 HD
ENDROOT
BRANCH   6   9
ATOM      9  C   UNL     1       3.082   6.025  17.337  0.00  0.00    +0.000 C 
ATOM     10  C   UNL     1       4.600   5.969  17.452  0.00  0.00    +0.000 A 
ATOM     11  C   UNL     1       5.523   6.947  17.116  0.00  0.00    +0.000 A 
ATOM     12  C   UNL     1       6.875   6.678  17.336  0.00  0.00    +0.000 A 
ATOM     13  C   UNL     1       7.285   5.448  17.876  0.00  0.00    +0.000 A 
ATOM     14  C   UNL     1       6.350   4.460  18.199  0.00  0.00    +0.000 A 
ATOM     15  C   UNL     1       5.008   4.726  17.981  0.00  0.00    +0.000 A 
ATOM     16  C   UNL     1       3.836   3.912  18.220  0.00  0.00    +0.000 A 
ATOM     17  C   UNL     1       3.722   2.624  18.722  0.00  0.00    +0.000 A 
ATOM     18  C   UNL     1       2.445   2.071  18.855  0.00  0.00    +0.000 A 
ATOM     19  C   UNL     1       1.302   2.804  18.493  0.00  0.00    +0.000 A 
ATOM     20  C   UNL     1       1.417   4.103  17.989  0.00  0.00    +0.000 A 
ATOM     21  C   UNL     1       2.687   4.647  17.854  0.00  0.00    +0.000 A 
ENDBRANCH   6   9
BRANCH   1  28
ATOM     22  C   UNL     1       0.993  11.635  20.208  0.00  0.00    +0.000 A 
ATOM     23  C   UNL     1       0.357  12.596  21.008  0.00  0.00    +0.000 A 
ATOM     24  C   UNL     1      -0.544  12.218  22.001  0.00  0.00    +0.000 A 
ATOM     25  C   UNL     1      -0.820  10.873  22.206  0.00  0.00    +0.000 A 
ATOM     26  C   UNL     1      -0.202   9.896  21.417  0.00  0.00    +0.000 A 
ATOM     27 CL   UNL     1      -0.600   8.261  21.835  0.00  0.00    +0.000 Cl
ATOM     28  C   UNL     1       0.705  10.262  20.400  0.00  0.00    +0.000 A 
BRANCH  22  30
ATOM     29  C   UNL     1       1.682  13.255  18.592  0.00  0.00    +0.000 C 
ATOM     30  O   UNL     1       1.859  11.974  19.196  0.00  0.00    +0.000 OA
ENDBRANCH  22  30
ENDBRANCH   1  28
TORSDOF 3
ENDMDL
