MODEL 1
REMARK VINA RESULT:      -8.5      0.000      0.000
REMARK  Name = 
REMARK  7 active torsions:
REMARK  status: ('A' for Active; 'I' for Inactive)
REMARK    1  A    between atoms: C_1  and  N_2
REMARK    2  A    between atoms: C_4  and  C_5
REMARK    3  A    between atoms: C_10  and  C_11
REMARK    4  A    between atoms: C_12  and  C_13
REMARK    5  A    between atoms: N_15  and  C_16
REMARK    6  A    between atoms: C_19  and  C_20
REMARK    7  A    between atoms: C_20  and  N_21
REMARK                            x       y       z     vdW  Elec       q    Type
REMARK                         _______ _______ _______ _____ _____    ______ ____
ROOT
ATOM      1  C   UNL     1       1.093   9.199  18.359  0.00  0.00    +0.000 C 
ATOM      2  O   UNL     1       0.112   9.685  17.811  0.00  0.00    +0.000 OA
ATOM      3  N   UNL     1       1.467   9.355  19.677  0.00  0.00    +0.000 N 
ATOM      4  H   UNL     1       2.228   8.785  20.029  0.00  0.00    +0.000 HD
ENDROOT
BRANCH   3   5
ATOM      5  C   UNL     1       0.767  10.072  20.676  0.00  0.00    +0.000 A 
ATOM      6  C   UNL     1       0.701  11.463  20.752  0.00  0.00    +0.000 A 
ATOM      7  C   UNL     1      -0.147  12.080  21.686  0.00  0.00    +0.000 A 
ATOM      8  C   UNL     1      -0.954  11.319  22.545  0.00  0.00    +0.000 A 
ATOM      9  C   UNL     1      -0.788   9.928  22.546  0.00  0.00    +0.000 A 
ATOM     10  C   UNL     1       0.062   9.324  21.624  0.00  0.00    +0.000 A 
ATOM     11  F   UNL     1       0.153   7.984  21.610  0.00  0.00    +0.000 F 
BRANCH   8  12
ATOM     12  C   UNL     1      -1.977  11.966  23.451  0.00  0.00    +0.000 C 
BRANCH  12  13
ATOM     13  N   UNL     1      -3.358  12.091  22.972  0.00  0.00    +0.000 NA
ATOM     14  C   UNL     1      -3.570  12.652  21.631  0.00  0.00    +0.000 C 
ATOM     15  C   UNL     1      -3.780  14.178  21.584  0.00  0.00    +0.000 C 
ATOM     16  O   UNL     1      -4.767  14.622  22.523  0.00  0.00    +0.000 OA
ATOM     17  C   UNL     1      -4.455  14.187  23.851  0.00  0.00    +0.000 C 
ATOM     18  C   UNL     1      -4.328  12.660  23.916  0.00  0.00    +0.000 C 
ENDBRANCH  12  13
ENDBRANCH   8  12
ENDBRANCH   3   5
BRANCH   1  20
ATOM     19  C   UNL     1       2.782   7.413  18.300  0.00  0.00    +0.000 C 
ATOM     20  C   UNL     1       2.009   8.277  17.624  0.00  0.00    +0.000 C 
BRANCH  19  26
ATOM     21  C   UNL     1       3.693   5.109  17.690  0.00  0.00    +0.000 A 
ATOM     22  C   UNL     1       4.647   4.383  16.960  0.00  0.00    +0.000 A 
ATOM     23  C   UNL     1       5.571   5.061  16.186  0.00  0.00    +0.000 A 
ATOM     24  N   UNL     1       5.617   6.401  16.088  0.00  0.00    +0.000 NA
ATOM     25  C   UNL     1       4.697   7.089  16.804  0.00  0.00    +0.000 A 
ATOM     26  C   UNL     1       3.716   6.509  17.617  0.00  0.00    +0.000 A 
BRANCH  21  30
ATOM     27  C   UNL     1       1.518   2.918  21.575  0.00  0.00    +0.000 C 
ATOM     28  N   UNL     1       1.802   3.402  20.245  0.00  0.00    +0.000 N 
ATOM     29  C   UNL     1       2.941   4.020  19.825  0.00  0.00    +0.000 A 
ATOM     30  C   UNL     1       2.735   4.365  18.502  0.00  0.00    +0.000 A 
ATOM     31  C   UNL     1       1.438   3.869  18.226  0.00  0.00    +0.000 A 
ATOM     32  N   UNL     1       0.874   3.281  19.281  0.00  0.00    +0.000 NA
ENDBRANCH  21  30
ENDBRANCH  19  26
ENDBRANCH   1  20
TORSDOF 6
ENDMDL
MODEL 2
REMARK VINA RESULT:      -8.5      1.109      1.246
REMARK  Name = 
REMARK  7 active torsions:
REMARK  status: ('A' for Active; 'I' for Inactive)
REMARK    1  A    between atoms: C_1  and  N_2
REMARK    2  A    between atoms: C_4  and  C_5
REMARK    3  A    between atoms: C_10  and  C_11
REMARK    4  A    between atoms: C_12  and  C_13
REMARK    5  A    between atoms: N_15  and  C_16
REMARK    6  A    between atoms: C_19  and  C_20
REMARK    7  A    between atoms: C_20  and  N_21
REMARK                            x       y       z     vdW  Elec       q    Type
REMARK                         _______ _______ _______ _____ _____    ______ ____
ROOT
ATOM      1  C   UNL     1       2.036   9.082  18.096  0.00  0.00    +0.000 C 
ATOM      2  O   UNL     1       2.040  10.201  17.601  0.00  0.00    +0.000 OA
ATOM      3  N   UNL     1       1.491   8.714  19.308  0.00  0.00    +0.000 N 
ATOM      4  H   UNL     1       1.440   7.726  19.530  0.00  0.00    +0.000 HD
ENDROOT
BRANCH   3   5
ATOM      5  C   UNL     1       0.785   9.549  20.206  0.00  0.00    +0.000 A 
ATOM      6  C   UNL     1       0.035  10.662  19.828  0.00  0.00    +0.000 A 
ATOM      7  C   UNL     1      -0.757  11.335  20.773  0.00  0.00    +0.000 A 
ATOM      8  C   UNL     1      -0.826  10.897  22.104  0.00  0.00    +0.000 A 
ATOM      9  C   UNL     1       0.026   9.857  22.501  0.00  0.00    +0.000 A 
ATOM     10  C   UNL     1       0.816   9.202  21.560  0.00  0.00    +0.000 A 
ATOM     11  F   UNL     1       1.575   8.169  21.961  0.00  0.00    +0.000 F 
BRANCH   8  12
ATOM     12  C   UNL     1      -1.784  11.519  23.095  0.00  0.00    +0.000 C 
BRANCH  12  13
ATOM     13  N   UNL     1      -2.510  12.731  22.701  0.00  0.00    +0.000 NA
ATOM     14  C   UNL     1      -1.972  14.025  23.143  0.00  0.00    +0.000 C 
ATOM     15  C   UNL     1      -2.527  14.543  24.485  0.00  0.00    +0.000 C 
ATOM     16  O   UNL     1      -3.959  14.501  24.534  0.00  0.00    +0.000 OA
ATOM     17  C   UNL     1      -4.452  13.188  24.246  0.00  0.00    +0.000 C 
ATOM     18  C   UNL     1      -3.967  12.705  22.873  0.00  0.00    +0.000 C 
ENDBRANCH  12  13
ENDBRANCH   8  12
ENDBRANCH   3   5
BRANCH   1  20
ATOM     19  C   UNL     1       3.744   7.341  17.775  0.00  0.00    +0.000 C 
ATOM     20  C   UNL     1       2.602   7.912  17.361  0.00  0.00    +0.000 C 
BRANCH  19  26
ATOM     21  C   UNL     1       4.041   4.856  17.279  0.00  0.00    +0.000 A 
ATOM     22  C   UNL     1       4.694   3.888  16.502  0.00  0.00    +0.000 A 
ATOM     23  C   UNL     1       5.608   4.288  15.543  0.00  0.00    +0.000 A 
ATOM     24  N   UNL     1       5.920   5.573  15.307  0.00  0.00    +0.000 NA
ATOM     25  C   UNL     1       5.290   6.497  16.070  0.00  0.00    +0.000 A 
ATOM     26  C   UNL     1       4.347   6.208  17.064  0.00  0.00    +0.000 A 
BRANCH  21  30
ATOM     27  C   UNL     1       2.111   3.370  21.603  0.00  0.00    +0.000 C 
ATOM     28  N   UNL     1       2.266   3.743  20.217  0.00  0.00    +0.000 N 
ATOM     29  C   UNL     1       3.431   4.034  19.574  0.00  0.00    +0.000 A 
ATOM     30  C   UNL     1       3.086   4.402  18.285  0.00  0.00    +0.000 A 
ATOM     31  C   UNL     1       1.677   4.261  18.264  0.00  0.00    +0.000 A 
ATOM     32  N   UNL     1       1.181   3.857  19.433  0.00  0.00    +0.000 NA
ENDBRANCH  21  30
ENDBRANCH  19  26
ENDBRANCH   1  20
TORSDOF 6
ENDMDL
MODEL 3
REMARK VINA RESULT:      -8.3      1.784      2.092
REMARK  Name = 
REMARK  7 active torsions:
REMARK  status: ('A' for Active; 'I' for Inactive)
REMARK    1  A    between atoms: C_1  and  N_2
REMARK    2  A    between atoms: C_4  and  C_5
REMARK    3  A    between atoms: C_10  and  C_11
REMARK    4  A    between atoms: C_12  and  C_13
REMARK    5  A    between atoms: N_15  and  C_16
REMARK    6  A    between atoms: C_19  and  C_20
REMARK    7  A    between atoms: C_20  and  N_21
REMARK                            x       y       z     vdW  Elec       q    Type
REMARK                         _______ _______ _______ _____ _____    ______ ____
ROOT
ATOM      1  C   UNL     1       1.603   8.826  18.688  0.00  0.00    +0.000 C 
ATOM      2  O   UNL     1       1.492   8.615  19.888  0.00  0.00    +0.000 OA
ATOM      3  N   UNL     1       0.906   9.754  17.942  0.00  0.00    +0.000 N 
ATOM      4  H   UNL     1       1.197   9.914  16.984  0.00  0.00    +0.000 HD
ENDROOT
BRANCH   3   5
ATOM      5  C   UNL     1      -0.048  10.681  18.424  0.00  0.00    +0.000 A 
ATOM      6  C   UNL     1      -1.423  10.576  18.227  0.00  0.00    +0.000 A 
ATOM      7  C   UNL     1      -2.301  11.460  18.876  0.00  0.00    +0.000 A 
ATOM      8  C   UNL     1      -1.819  12.450  19.745  0.00  0.00    +0.000 A 
ATOM      9  C   UNL     1      -0.431  12.628  19.839  0.00  0.00    +0.000 A 
ATOM     10  C   UNL     1       0.431  11.754  19.183  0.00  0.00    +0.000 A 
ATOM     11  F   UNL     1       1.756  11.913  19.342  0.00  0.00    +0.000 F 
BRANCH   8  12
ATOM     12  C   UNL     1      -2.755  13.311  20.563  0.00  0.00    +0.000 C 
BRANCH  12  13
ATOM     13  N   UNL     1      -3.592  12.666  21.580  0.00  0.00    +0.000 NA
ATOM     14  C   UNL     1      -5.000  13.072  21.667  0.00  0.00    +0.000 C 
ATOM     15  C   UNL     1      -5.292  14.223  22.651  0.00  0.00    +0.000 C 
ATOM     16  O   UNL     1      -4.709  13.997  23.941  0.00  0.00    +0.000 OA
ATOM     17  C   UNL     1      -3.302  13.751  23.840  0.00  0.00    +0.000 C 
ATOM     18  C   UNL     1      -3.015  12.554  22.925  0.00  0.00    +0.000 C 
ENDBRANCH  12  13
ENDBRANCH   8  12
ENDBRANCH   3   5
BRANCH   1  20
ATOM     19  C   UNL     1       2.937   6.828  18.160  0.00  0.00    +0.000 C 
ATOM     20  C   UNL     1       2.615   8.098  17.867  0.00  0.00    +0.000 C 
BRANCH  19  26
ATOM     21  C   UNL     1       4.087   4.691  17.372  0.00  0.00    +0.000 A 
ATOM     22  C   UNL     1       5.095   4.132  16.573  0.00  0.00    +0.000 A 
ATOM     23  C   UNL     1       5.913   4.962  15.828  0.00  0.00    +0.000 A 
ATOM     24  N   UNL     1       5.802   6.301  15.823  0.00  0.00    +0.000 NA
ATOM     25  C   UNL     1       4.831   6.829  16.605  0.00  0.00    +0.000 A 
ATOM     26  C   UNL     1       3.947   6.087  17.397  0.00  0.00    +0.000 A 
BRANCH  21  30
ATOM     27  C   UNL     1       1.827   2.501  21.209  0.00  0.00    +0.000 C 
ATOM     28  N   UNL     1       2.263   2.840  19.876  0.00  0.00    +0.000 N 
ATOM     29  C   UNL     1       3.214   3.754  19.533  0.00  0.00    +0.000 A 
ATOM     30  C   UNL     1       3.244   3.789  18.151  0.00  0.00    +0.000 A 
ATOM     31  C   UNL     1       2.283   2.821  17.771  0.00  0.00    +0.000 A 
ATOM     32  N   UNL     1       1.692   2.242  18.816  0.00  0.00    +0.000 NA
ENDBRANCH  21  30
ENDBRANCH  19  26
ENDBRANCH   1  20
TORSDOF 6
ENDMDL
MODEL 4
REMARK VINA RESULT:      -8.2      1.371      1.487
REMARK  Name = 
REMARK  7 active torsions:
REMARK  status: ('A' for Active; 'I' for Inactive)
REMARK    1  A    between atoms: C_1  and  N_2
REMARK    2  A    between atoms: C_4  and  C_5
REMARK    3  A    between atoms: C_10  and  C_11
REMARK    4  A    between atoms: C_12  and  C_13
REMARK    5  A    between atoms: N_15  and  C_16
REMARK    6  A    between atoms: C_19  and  C_20
REMARK    7  A    between atoms: C_20  and  N_21
REMARK                            x       y       z     vdW  Elec       q    Type
REMARK                         _______ _______ _______ _____ _____    ______ ____
ROOT
ATOM      1  C   UNL     1       2.081   9.281  18.076  0.00  0.00    +0.000 C 
ATOM      2  O   UNL     1       2.388  10.434  17.804  0.00  0.00    +0.000 OA
ATOM      3  N   UNL     1       1.163   8.868  19.018  0.00  0.00    +0.000 N 
ATOM      4  H   UNL     1       0.909   7.887  19.042  0.00  0.00    +0.000 HD
ENDROOT
BRANCH   3   5
ATOM      5  C   UNL     1       0.356   9.698  19.832  0.00  0.00    +0.000 A 
ATOM      6  C   UNL     1       0.584   9.942  21.185  0.00  0.00    +0.000 A 
ATOM      7  C   UNL     1      -0.179  10.902  21.870  0.00  0.00    +0.000 A 
ATOM      8  C   UNL     1      -1.169  11.645  21.209  0.00  0.00    +0.000 A 
ATOM      9  C   UNL     1      -1.475  11.305  19.884  0.00  0.00    +0.000 A 
ATOM     10  C   UNL     1      -0.720  10.344  19.216  0.00  0.00    +0.000 A 
ATOM     11  F   UNL     1      -0.999  10.085  17.928  0.00  0.00    +0.000 F 
BRANCH   8  12
ATOM     12  C   UNL     1      -1.895  12.782  21.892  0.00  0.00    +0.000 C 
BRANCH  12  13
ATOM     13  N   UNL     1      -3.274  12.562  22.340  0.00  0.00    +0.000 NA
ATOM     14  C   UNL     1      -4.330  13.390  21.741  0.00  0.00    +0.000 C 
ATOM     15  C   UNL     1      -4.654  14.692  22.501  0.00  0.00    +0.000 C 
ATOM     16  O   UNL     1      -4.866  14.467  23.901  0.00  0.00    +0.000 OA
ATOM     17  C   UNL     1      -3.753  13.789  24.493  0.00  0.00    +0.000 C 
ATOM     18  C   UNL     1      -3.481  12.453  23.790  0.00  0.00    +0.000 C 
ENDBRANCH  12  13
ENDBRANCH   8  12
ENDBRANCH   3   5
BRANCH   1  20
ATOM     19  C   UNL     1       3.650   7.399  17.857  0.00  0.00    +0.000 C 
ATOM     20  C   UNL     1       2.660   8.130  17.320  0.00  0.00    +0.000 C 
BRANCH  19  26
ATOM     21  C   UNL     1       3.977   4.921  17.342  0.00  0.00    +0.000 A 
ATOM     22  C   UNL     1       4.639   3.967  16.556  0.00  0.00    +0.000 A 
ATOM     23  C   UNL     1       5.544   4.385  15.597  0.00  0.00    +0.000 A 
ATOM     24  N   UNL     1       5.839   5.676  15.368  0.00  0.00    +0.000 NA
ATOM     25  C   UNL     1       5.200   6.586  16.140  0.00  0.00    +0.000 A 
ATOM     26  C   UNL     1       4.265   6.278  17.136  0.00  0.00    +0.000 A 
BRANCH  21  30
ATOM     27  C   UNL     1       2.089   3.353  21.656  0.00  0.00    +0.000 C 
ATOM     28  N   UNL     1       2.231   3.752  20.276  0.00  0.00    +0.000 N 
ATOM     29  C   UNL     1       3.390   4.055  19.627  0.00  0.00    +0.000 A 
ATOM     30  C   UNL     1       3.032   4.448  18.349  0.00  0.00    +0.000 A 
ATOM     31  C   UNL     1       1.623   4.307  18.339  0.00  0.00    +0.000 A 
ATOM     32  N   UNL     1       1.138   3.880  19.505  0.00  0.00    +0.000 NA
ENDBRANCH  21  30
ENDBRANCH  19  26
ENDBRANCH   1  20
TORSDOF 6
ENDMDL
MODEL 5
REMARK VINA RESULT:      -8.2      1.820      2.254
REMARK  Name = 
REMARK  7 active torsions:
REMARK  status: ('A' for Active; 'I' for Inactive)
REMARK    1  A    between atoms: C_1  and  N_2
REMARK    2  A    between atoms: C_4  and  C_5
REMARK    3  A    between atoms: C_10  and  C_11
REMARK    4  A    between atoms: C_12  and  C_13
REMARK    5  A    between atoms: N_15  and  C_16
REMARK    6  A    between atoms: C_19  and  C_20
REMARK    7  A    between atoms: C_20  and  N_21
REMARK                            x       y       z     vdW  Elec       q    Type
REMARK                         _______ _______ _______ _____ _____    ______ ____
ROOT
ATOM      1  C   UNL     1       1.486   8.961  18.708  0.00  0.00    +0.000 C 
ATOM      2  O   UNL     1       1.478   8.798  19.921  0.00  0.00    +0.000 OA
ATOM      3  N   UNL     1       0.813   9.934  17.998  0.00  0.00    +0.000 N 
ATOM      4  H   UNL     1       1.019  10.035  17.011  0.00  0.00    +0.000 HD
ENDROOT
BRANCH   3   5
ATOM      5  C   UNL     1       0.011  10.968  18.534  0.00  0.00    +0.000 A 
ATOM      6  C   UNL     1      -1.378  10.920  18.639  0.00  0.00    +0.000 A 
ATOM      7  C   UNL     1      -2.072  11.928  19.328  0.00  0.00    +0.000 A 
ATOM      8  C   UNL     1      -1.387  12.991  19.937  0.00  0.00    +0.000 A 
ATOM      9  C   UNL     1      -0.007  13.098  19.719  0.00  0.00    +0.000 A 
ATOM     10  C   UNL     1       0.671  12.099  19.026  0.00  0.00    +0.000 A 
ATOM     11  F   UNL     1       2.004  12.200  18.887  0.00  0.00    +0.000 F 
BRANCH   8  12
ATOM     12  C   UNL     1      -2.103  14.002  20.804  0.00  0.00    +0.000 C 
BRANCH  12  13
ATOM     13  N   UNL     1      -1.796  14.037  22.237  0.00  0.00    +0.000 NA
ATOM     14  C   UNL     1      -1.782  12.763  22.967  0.00  0.00    +0.000 C 
ATOM     15  C   UNL     1      -3.123  12.362  23.615  0.00  0.00    +0.000 C 
ATOM     16  O   UNL     1      -3.694  13.426  24.387  0.00  0.00    +0.000 OA
ATOM     17  C   UNL     1      -3.835  14.617  23.605  0.00  0.00    +0.000 C 
ATOM     18  C   UNL     1      -2.487  15.064  23.028  0.00  0.00    +0.000 C 
ENDBRANCH  12  13
ENDBRANCH   8  12
ENDBRANCH   3   5
BRANCH   1  20
ATOM     19  C   UNL     1       3.021   7.076  18.333  0.00  0.00    +0.000 C 
ATOM     20  C   UNL     1       2.332   8.108  17.821  0.00  0.00    +0.000 C 
BRANCH  19  26
ATOM     21  C   UNL     1       3.837   4.831  17.438  0.00  0.00    +0.000 A 
ATOM     22  C   UNL     1       4.723   4.167  16.575  0.00  0.00    +0.000 A 
ATOM     23  C   UNL     1       5.606   4.904  15.807  0.00  0.00    +0.000 A 
ATOM     24  N   UNL     1       5.673   6.246  15.838  0.00  0.00    +0.000 NA
ATOM     25  C   UNL     1       4.820   6.874  16.681  0.00  0.00    +0.000 A 
ATOM     26  C   UNL     1       3.885   6.231  17.501  0.00  0.00    +0.000 A 
BRANCH  21  30
ATOM     27  C   UNL     1       1.720   2.570  21.315  0.00  0.00    +0.000 C 
ATOM     28  N   UNL     1       2.012   3.034  19.980  0.00  0.00    +0.000 N 
ATOM     29  C   UNL     1       3.104   3.747  19.582  0.00  0.00    +0.000 A 
ATOM     30  C   UNL     1       2.922   4.025  18.239  0.00  0.00    +0.000 A 
ATOM     31  C   UNL     1       1.692   3.394  17.931  0.00  0.00    +0.000 A 
ATOM     32  N   UNL     1       1.143   2.790  18.985  0.00  0.00    +0.000 NA
ENDBRANCH  21  30
ENDBRANCH  19  26
ENDBRANCH   1  20
TORSDOF 6
ENDMDL
MODEL 6
REMARK VINA RESULT:      -8.1      1.642      2.021
REMARK  Name = 
REMARK  7 active torsions:
REMARK  status: ('A' for Active; 'I' for Inactive)
REMARK    1  A    between atoms: C_1  and  N_2
REMARK    2  A    between atoms: C_4  and  C_5
REMARK    3  A    between atoms: C_10  and  C_11
REMARK    4  A    between atoms: C_12  and  C_13
REMARK    5  A    between atoms: N_15  and  C_16
REMARK    6  A    between atoms: C_19  and  C_20
REMARK    7  A    between atoms: C_20  and  N_21
REMARK                            x       y       z     vdW  Elec       q    Type
REMARK                         _______ _______ _______ _____ _____    ______ ____
ROOT
ATOM      1  C   UNL     1       1.588   8.729  19.076  0.00  0.00    +0.000 C 
ATOM      2  O   UNL     1       1.554   8.414  20.258  0.00  0.00    +0.000 OA
ATOM      3  N   UNL     1       1.047   9.862  18.505  0.00  0.00    +0.000 N 
ATOM      4  H   UNL     1       1.269  10.063  17.536  0.00  0.00    +0.000 HD
ENDROOT
BRANCH   3   5
ATOM      5  C   UNL     1       0.379  10.912  19.178  0.00  0.00    +0.000 A 
ATOM      6  C   UNL     1       1.017  11.958  19.844  0.00  0.00    +0.000 A 
ATOM      7  C   UNL     1       0.271  13.036  20.347  0.00  0.00    +0.000 A 
ATOM      8  C   UNL     1      -1.121  13.095  20.178  0.00  0.00    +0.000 A 
ATOM      9  C   UNL     1      -1.765  11.982  19.620  0.00  0.00    +0.000 A 
ATOM     10  C   UNL     1      -1.019  10.913  19.133  0.00  0.00    +0.000 A 
ATOM     11  F   UNL     1      -1.662   9.889  18.548  0.00  0.00    +0.000 F 
BRANCH   8  12
ATOM     12  C   UNL     1      -1.917  14.314  20.583  0.00  0.00    +0.000 C 
BRANCH  12  13
ATOM     13  N   UNL     1      -2.483  14.364  21.935  0.00  0.00    +0.000 NA
ATOM     14  C   UNL     1      -1.845  13.547  22.976  0.00  0.00    +0.000 C 
ATOM     15  C   UNL     1      -2.434  12.133  23.153  0.00  0.00    +0.000 C 
ATOM     16  O   UNL     1      -3.862  12.149  23.271  0.00  0.00    +0.000 OA
ATOM     17  C   UNL     1      -4.469  12.824  22.164  0.00  0.00    +0.000 C 
ATOM     18  C   UNL     1      -3.944  14.260  22.036  0.00  0.00    +0.000 C 
ENDBRANCH  12  13
ENDBRANCH   8  12
ENDBRANCH   3   5
BRANCH   1  20
ATOM     19  C   UNL     1       3.162   6.933  18.487  0.00  0.00    +0.000 C 
ATOM     20  C   UNL     1       2.324   7.898  18.077  0.00  0.00    +0.000 C 
BRANCH  19  26
ATOM     21  C   UNL     1       3.841   4.719  17.417  0.00  0.00    +0.000 A 
ATOM     22  C   UNL     1       4.626   4.081  16.445  0.00  0.00    +0.000 A 
ATOM     23  C   UNL     1       5.447   4.838  15.629  0.00  0.00    +0.000 A 
ATOM     24  N   UNL     1       5.546   6.176  15.714  0.00  0.00    +0.000 NA
ATOM     25  C   UNL     1       4.791   6.778  16.662  0.00  0.00    +0.000 A 
ATOM     26  C   UNL     1       3.925   6.113  17.539  0.00  0.00    +0.000 A 
BRANCH  21  30
ATOM     27  C   UNL     1       1.871   2.558  21.428  0.00  0.00    +0.000 C 
ATOM     28  N   UNL     1       2.143   2.950  20.065  0.00  0.00    +0.000 N 
ATOM     29  C   UNL     1       3.172   3.729  19.628  0.00  0.00    +0.000 A 
ATOM     30  C   UNL     1       2.989   3.891  18.266  0.00  0.00    +0.000 A 
ATOM     31  C   UNL     1       1.827   3.130  17.992  0.00  0.00    +0.000 A 
ATOM     32  N   UNL     1       1.318   2.555  19.082  0.00  0.00    +0.000 NA
ENDBRANCH  21  30
ENDBRANCH  19  26
ENDBRANCH   1  20
TORSDOF 6
ENDMDL
MODEL 7
REMARK VINA RESULT:      -8.1      6.734     10.173
REMARK  Name = 
REMARK  7 active torsions:
REMARK  status: ('A' for Active; 'I' for Inactive)
REMARK    1  A    between atoms: C_1  and  N_2
REMARK    2  A    between atoms: C_4  and  C_5
REMARK    3  A    between atoms: C_10  and  C_11
REMARK    4  A    between atoms: C_12  and  C_13
REMARK    5  A    between atoms: N_15  and  C_16
REMARK    6  A    between atoms: C_19  and  C_20
REMARK    7  A    between atoms: C_20  and  N_21
REMARK                            x       y       z     vdW  Elec       q    Type
REMARK                         _______ _______ _______ _____ _____    ______ ____
ROOT
ATOM      1  C   UNL     1       7.840   7.799  18.089  0.00  0.00    +0.000 C 
ATOM      2  O   UNL     1       8.276   6.985  18.893  0.00  0.00    +0.000 OA
ATOM      3  N   UNL     1       6.690   7.685  17.336  0.00  0.00    +0.000 N 
ATOM      4  H   UNL     1       6.379   8.495  16.812  0.00  0.00    +0.000 HD
ENDROOT
BRANCH   3   5
ATOM      5  C   UNL     1       5.757   6.623  17.373  0.00  0.00    +0.000 A 
ATOM      6  C   UNL     1       4.509   6.686  17.992  0.00  0.00    +0.000 A 
ATOM      7  C   UNL     1       3.590   5.636  17.840  0.00  0.00    +0.000 A 
ATOM      8  C   UNL     1       3.895   4.514  17.055  0.00  0.00    +0.000 A 
ATOM      9  C   UNL     1       5.195   4.402  16.543  0.00  0.00    +0.000 A 
ATOM     10  C   UNL     1       6.104   5.443  16.706  0.00  0.00    +0.000 A 
ATOM     11  F   UNL     1       7.322   5.332  16.150  0.00  0.00    +0.000 F 
BRANCH   8  12
ATOM     12  C   UNL     1       2.865   3.446  16.763  0.00  0.00    +0.000 C 
BRANCH  12  13
ATOM     13  N   UNL     1       2.604   2.427  17.785  0.00  0.00    +0.000 NA
ATOM     14  C   UNL     1       1.510   2.673  18.734  0.00  0.00    +0.000 C 
ATOM     15  C   UNL     1       1.920   3.384  20.039  0.00  0.00    +0.000 C 
ATOM     16  O   UNL     1       3.053   2.767  20.663  0.00  0.00    +0.000 OA
ATOM     17  C   UNL     1       4.159   2.675  19.757  0.00  0.00    +0.000 C 
ATOM     18  C   UNL     1       3.775   1.896  18.493  0.00  0.00    +0.000 C 
ENDBRANCH  12  13
ENDBRANCH   8  12
ENDBRANCH   3   5
BRANCH   1  20
ATOM     19  C   UNL     1       8.978   9.813  18.924  0.00  0.00    +0.000 C 
ATOM     20  C   UNL     1       8.519   9.111  17.876  0.00  0.00    +0.000 C 
BRANCH  19  26
ATOM     21  C   UNL     1       9.627  12.152  19.708  0.00  0.00    +0.000 A 
ATOM     22  C   UNL     1      10.311  13.340  19.407  0.00  0.00    +0.000 A 
ATOM     23  C   UNL     1      10.970  13.457  18.197  0.00  0.00    +0.000 A 
ATOM     24  N   UNL     1      10.995  12.485  17.268  0.00  0.00    +0.000 NA
ATOM     25  C   UNL     1      10.324  11.349  17.568  0.00  0.00    +0.000 A 
ATOM     26  C   UNL     1       9.626  11.119  18.760  0.00  0.00    +0.000 A 
BRANCH  21  30
ATOM     27  C   UNL     1       6.651  13.210  23.536  0.00  0.00    +0.000 C 
ATOM     28  N   UNL     1       7.609  12.564  22.672  0.00  0.00    +0.000 N 
ATOM     29  C   UNL     1       8.113  13.048  21.502  0.00  0.00    +0.000 A 
ATOM     30  C   UNL     1       8.937  12.061  20.991  0.00  0.00    +0.000 A 
ATOM     31  C   UNL     1       8.874  11.036  21.966  0.00  0.00    +0.000 A 
ATOM     32  N   UNL     1       8.073  11.343  22.987  0.00  0.00    +0.000 NA
ENDBRANCH  21  30
ENDBRANCH  19  26
ENDBRANCH   1  20
TORSDOF 6
ENDMDL
MODEL 8
REMARK VINA RESULT:      -8.1      1.101      1.394
REMARK  Name = 
REMARK  7 active torsions:
REMARK  status: ('A' for Active; 'I' for Inactive)
REMARK    1  A    between atoms: C_1  and  N_2
REMARK    2  A    between atoms: C_4  and  C_5
REMARK    3  A    between atoms: C_10  and  C_11
REMARK    4  A    between atoms: C_12  and  C_13
REMARK    5  A    between atoms: N_15  and  C_16
REMARK    6  A    between atoms: C_19  and  C_20
REMARK    7  A    between atoms: C_20  and  N_21
REMARK                            x       y       z     vdW  Elec       q    Type
REMARK                         _______ _______ _______ _____ _____    ______ ____
ROOT
ATOM      1  C   UNL     1       1.095   9.382  18.301  0.00  0.00    +0.000 C 
ATOM      2  O   UNL     1       0.052   9.575  17.691  0.00  0.00    +0.000 OA
ATOM      3  N   UNL     1       1.393   9.791  19.585  0.00  0.00    +0.000 N 
ATOM      4  H   UNL     1       2.243   9.443  20.013  0.00  0.00    +0.000 HD
ENDROOT
BRANCH   3   5
ATOM      5  C   UNL     1       0.534  10.480  20.473  0.00  0.00    +0.000 A 
ATOM      6  C   UNL     1      -0.090   9.904  21.578  0.00  0.00    +0.000 A 
ATOM      7  C   UNL     1      -0.798  10.705  22.489  0.00  0.00    +0.000 A 
ATOM      8  C   UNL     1      -0.878  12.095  22.319  0.00  0.00    +0.000 A 
ATOM      9  C   UNL     1      -0.356  12.648  21.142  0.00  0.00    +0.000 A 
ATOM     10  C   UNL     1       0.335  11.845  20.239  0.00  0.00    +0.000 A 
ATOM     11  F   UNL     1       0.876  12.415  19.150  0.00  0.00    +0.000 F 
BRANCH   8  12
ATOM     12  C   UNL     1      -1.509  12.986  23.366  0.00  0.00    +0.000 C 
BRANCH  12  13
ATOM     13  N   UNL     1      -2.951  12.871  23.606  0.00  0.00    +0.000 NA
ATOM     14  C   UNL     1      -3.831  12.722  22.440  0.00  0.00    +0.000 C 
ATOM     15  C   UNL     1      -4.382  14.040  21.860  0.00  0.00    +0.000 C 
ATOM     16  O   UNL     1      -4.952  14.883  22.869  0.00  0.00    +0.000 OA
ATOM     17  C   UNL     1      -4.019  15.135  23.925  0.00  0.00    +0.000 C 
ATOM     18  C   UNL     1      -3.533  13.825  24.558  0.00  0.00    +0.000 C 
ENDBRANCH  12  13
ENDBRANCH   8  12
ENDBRANCH   3   5
BRANCH   1  20
ATOM     19  C   UNL     1       2.520   7.378  18.222  0.00  0.00    +0.000 C 
ATOM     20  C   UNL     1       2.199   8.574  17.703  0.00  0.00    +0.000 C 
BRANCH  19  26
ATOM     21  C   UNL     1       3.738   5.175  17.809  0.00  0.00    +0.000 A 
ATOM     22  C   UNL     1       4.841   4.541  17.216  0.00  0.00    +0.000 A 
ATOM     23  C   UNL     1       5.766   5.296  16.518  0.00  0.00    +0.000 A 
ATOM     24  N   UNL     1       5.676   6.628  16.371  0.00  0.00    +0.000 NA
ATOM     25  C   UNL     1       4.613   7.229  16.955  0.00  0.00    +0.000 A 
ATOM     26  C   UNL     1       3.616   6.567  17.681  0.00  0.00    +0.000 A 
BRANCH  21  30
ATOM     27  C   UNL     1       1.475   2.754  21.503  0.00  0.00    +0.000 C 
ATOM     28  N   UNL     1       1.808   3.289  20.204  0.00  0.00    +0.000 N 
ATOM     29  C   UNL     1       2.929   3.988  19.869  0.00  0.00    +0.000 A 
ATOM     30  C   UNL     1       2.782   4.352  18.543  0.00  0.00    +0.000 A 
ATOM     31  C   UNL     1       1.539   3.782  18.175  0.00  0.00    +0.000 A 
ATOM     32  N   UNL     1       0.952   3.133  19.180  0.00  0.00    +0.000 NA
ENDBRANCH  21  30
ENDBRANCH  19  26
ENDBRANCH   1  20
TORSDOF 6
ENDMDL
MODEL 9
REMARK VINA RESULT:      -8.0      6.399      9.890
REMARK  Name = 
REMARK  7 active torsions:
REMARK  status: ('A' for Active; 'I' for Inactive)
REMARK    1  A    between atoms: C_1  and  N_2
REMARK    2  A    between atoms: C_4  and  C_5
REMARK    3  A    between atoms: C_10  and  C_11
REMARK    4  A    between atoms: C_12  and  C_13
REMARK    5  A    between atoms: N_15  and  C_16
REMARK    6  A    between atoms: C_19  and  C_20
REMARK    7  A    between atoms: C_20  and  N_21
REMARK                            x       y       z     vdW  Elec       q    Type
REMARK                         _______ _______ _______ _____ _____    ______ ____
ROOT
ATOM      1  C   UNL     1       8.057   7.969  18.212  0.00  0.00    +0.000 C 
ATOM      2  O   UNL     1       8.614   7.254  19.034  0.00  0.00    +0.000 OA
ATOM      3  N   UNL     1       6.957   7.648  17.444  0.00  0.00    +0.000 N 
ATOM      4  H   UNL     1       6.518   8.385  16.904  0.00  0.00    +0.000 HD
ENDROOT
BRANCH   3   5
ATOM      5  C   UNL     1       6.222   6.439  17.484  0.00  0.00    +0.000 A 
ATOM      6  C   UNL     1       6.295   5.502  18.514  0.00  0.00    +0.000 A 
ATOM      7  C   UNL     1       5.412   4.411  18.541  0.00  0.00    +0.000 A 
ATOM      8  C   UNL     1       4.432   4.248  17.550  0.00  0.00    +0.000 A 
ATOM      9  C   UNL     1       4.448   5.123  16.455  0.00  0.00    +0.000 A 
ATOM     10  C   UNL     1       5.334   6.196  16.431  0.00  0.00    +0.000 A 
ATOM     11  F   UNL     1       5.284   7.053  15.397  0.00  0.00    +0.000 F 
BRANCH   8  12
ATOM     12  C   UNL     1       3.382   3.164  17.644  0.00  0.00    +0.000 C 
BRANCH  12  13
ATOM     13  N   UNL     1       2.047   3.522  18.134  0.00  0.00    +0.000 NA
ATOM     14  C   UNL     1       1.892   4.811  18.821  0.00  0.00    +0.000 C 
ATOM     15  C   UNL     1       2.066   4.764  20.353  0.00  0.00    +0.000 C 
ATOM     16  O   UNL     1       1.283   3.727  20.958  0.00  0.00    +0.000 OA
ATOM     17  C   UNL     1       1.564   2.452  20.368  0.00  0.00    +0.000 C 
ATOM     18  C   UNL     1       1.313   2.475  18.856  0.00  0.00    +0.000 C 
ENDBRANCH  12  13
ENDBRANCH   8  12
ENDBRANCH   3   5
BRANCH   1  20
ATOM     19  C   UNL     1       9.086  10.067  18.980  0.00  0.00    +0.000 C 
ATOM     20  C   UNL     1       8.500   9.378  17.989  0.00  0.00    +0.000 C 
BRANCH  19  26
ATOM     21  C   UNL     1       9.398  12.470  19.778  0.00  0.00    +0.000 A 
ATOM     22  C   UNL     1       9.869  13.754  19.467  0.00  0.00    +0.000 A 
ATOM     23  C   UNL     1      10.439  13.989  18.229  0.00  0.00    +0.000 A 
ATOM     24  N   UNL     1      10.569  13.045  17.282  0.00  0.00    +0.000 NA
ATOM     25  C   UNL     1      10.101  11.813  17.591  0.00  0.00    +0.000 A 
ATOM     26  C   UNL     1       9.510  11.461  18.810  0.00  0.00    +0.000 A 
BRANCH  21  30
ATOM     27  C   UNL     1       6.605  13.091  23.834  0.00  0.00    +0.000 C 
ATOM     28  N   UNL     1       7.547  12.565  22.875  0.00  0.00    +0.000 N 
ATOM     29  C   UNL     1       7.944  13.152  21.711  0.00  0.00    +0.000 A 
ATOM     30  C   UNL     1       8.797  12.256  21.091  0.00  0.00    +0.000 A 
ATOM     31  C   UNL     1       8.862  11.173  22.001  0.00  0.00    +0.000 A 
ATOM     32  N   UNL     1       8.109  11.363  23.084  0.00  0.00    +0.000 NA
ENDBRANCH  21  30
ENDBRANCH  19  26
ENDBRANCH   1  20
TORSDOF 6
ENDMDL
