MODEL 1
REMARK VINA RESULT:      -6.9      0.000      0.000
REMARK  Name = 
REMARK  6 active torsions:
REMARK  status: ('A' for Active; 'I' for Inactive)
REMARK    1  A    between atoms: C_1  and  C_2
REMARK    2  A    between atoms: C_3  and  C_4
REMARK    3  A    between atoms: C_4  and  C_5
REMARK    4  A    between atoms: C_5  and  O_6
REMARK    5  A    between atoms: N_10  and  S_11
REMARK    6  A    between atoms: S_11  and  C_14
REMARK                            x       y       z     vdW  Elec       q    Type
REMARK                         _______ _______ _______ _____ _____    ______ ____
ROOT
ATOM      1  C   UNL     1       3.342   6.389  17.780  0.00  0.00    +0.000 C 
ATOM      2  C   UNL     1       3.468   4.911  17.874  0.00  0.00    +0.000 A 
ATOM      3  C   UNL     1       2.709   4.040  18.568  0.00  0.00    +0.000 A 
ATOM      4  C   UNL     1       3.198   2.657  18.317  0.00  0.00    +0.000 A 
ATOM      5  O   UNL     1       2.727   1.639  18.785  0.00  0.00    +0.000 OA
ATOM      6  N   UNL     1       4.268   2.789  17.473  0.00  0.00    +0.000 N 
ATOM      7  N   UNL     1       4.469   4.156  17.210  0.00  0.00    +0.000 N 
ATOM      8  H   UNL     1       4.819   2.047  17.051  0.00  0.00    +0.000 HD
ENDROOT
BRANCH   7   9
ATOM      9  S   UNL     1       5.595   4.734  16.105  0.00  0.00    +0.000 S 
ATOM     10  O   UNL     1       6.361   3.601  15.617  0.00  0.00    +0.000 OA
ATOM     11  O   UNL     1       4.943   5.644  15.187  0.00  0.00    +0.000 OA
BRANCH   9  12
ATOM     12  C   UNL     1       6.688   5.679  17.146  0.00  0.00    +0.000 A 
ATOM     13  C   UNL     1       7.244   5.067  18.274  0.00  0.00    +0.000 A 
ATOM     14  C   UNL     1       8.045   5.816  19.134  0.00  0.00    +0.000 A 
ATOM     15  C   UNL     1       8.291   7.164  18.863  0.00  0.00    +0.000 A 
ATOM     16  C   UNL     1       7.753   7.762  17.722  0.00  0.00    +0.000 A 
ATOM     17  C   UNL     1       6.958   7.019  16.851  0.00  0.00    +0.000 A 
ENDBRANCH   9  12
ENDBRANCH   7   9
BRANCH   3  18
ATOM     18  C   UNL     1       1.521   4.292  19.436  0.00  0.00    +0.000 C 
BRANCH  18  19
ATOM     19  C   UNL     1       1.800   4.130  20.929  0.00  0.00    +0.000 C 
BRANCH  19  20
ATOM     20  O   UNL     1       1.393   2.843  21.383  0.00  0.00    +0.000 OA
ATOM     21  H   UNL     1       2.122   2.485  21.918  0.00  0.00    +0.000 HD
ENDBRANCH  19  20
ENDBRANCH  18  19
ENDBRANCH   3  18
TORSDOF 5
ENDMDL
MODEL 2
REMARK VINA RESULT:      -6.9      0.657      1.292
REMARK  Name = 
REMARK  6 active torsions:
REMARK  status: ('A' for Active; 'I' for Inactive)
REMARK    1  A    between atoms: C_1  and  C_2
REMARK    2  A    between atoms: C_3  and  C_4
REMARK    3  A    between atoms: C_4  and  C_5
REMARK    4  A    between atoms: C_5  and  O_6
REMARK    5  A    between atoms: N_10  and  S_11
REMARK    6  A    between atoms: S_11  and  C_14
REMARK                            x       y       z     vdW  Elec       q    Type
REMARK                         _______ _______ _______ _____ _____    ______ ____
ROOT
ATOM      1  C   UNL     1       3.302   6.277  17.810  0.00  0.00    +0.000 C 
ATOM      2  C   UNL     1       3.477   4.802  17.864  0.00  0.00    +0.000 A 
ATOM      3  C   UNL     1       2.736   3.887  18.519  0.00  0.00    +0.000 A 
ATOM      4  C   UNL     1       3.275   2.528  18.237  0.00  0.00    +0.000 A 
ATOM      5  O   UNL     1       2.832   1.482  18.668  0.00  0.00    +0.000 OA
ATOM      6  N   UNL     1       4.354   2.721  17.416  0.00  0.00    +0.000 N 
ATOM      7  N   UNL     1       4.513   4.101  17.196  0.00  0.00    +0.000 N 
ATOM      8  H   UNL     1       4.937   2.010  16.983  0.00  0.00    +0.000 HD
ENDROOT
BRANCH   7   9
ATOM      9  S   UNL     1       5.637   4.748  16.128  0.00  0.00    +0.000 S 
ATOM     10  O   UNL     1       6.477   3.662  15.654  0.00  0.00    +0.000 OA
ATOM     11  O   UNL     1       4.962   5.628  15.196  0.00  0.00    +0.000 OA
BRANCH   9  12
ATOM     12  C   UNL     1       6.646   5.743  17.206  0.00  0.00    +0.000 A 
ATOM     13  C   UNL     1       6.907   7.070  16.853  0.00  0.00    +0.000 A 
ATOM     14  C   UNL     1       7.754   7.837  17.652  0.00  0.00    +0.000 A 
ATOM     15  C   UNL     1       8.325   7.281  18.799  0.00  0.00    +0.000 A 
ATOM     16  C   UNL     1       8.040   5.962  19.159  0.00  0.00    +0.000 A 
ATOM     17  C   UNL     1       7.189   5.189  18.370  0.00  0.00    +0.000 A 
ENDBRANCH   9  12
ENDBRANCH   7   9
BRANCH   3  18
ATOM     18  C   UNL     1       1.526   4.074  19.373  0.00  0.00    +0.000 C 
BRANCH  18  19
ATOM     19  C   UNL     1       1.833   4.182  20.866  0.00  0.00    +0.000 C 
BRANCH  19  20
ATOM     20  O   UNL     1       2.351   5.472  21.183  0.00  0.00    +0.000 OA
ATOM     21  H   UNL     1       2.241   5.595  22.142  0.00  0.00    +0.000 HD
ENDBRANCH  19  20
ENDBRANCH  18  19
ENDBRANCH   3  18
TORSDOF 5
ENDMDL
MODEL 3
REMARK VINA RESULT:      -6.8      2.392      5.809
REMARK  Name = 
REMARK  6 active torsions:
REMARK  status: ('A' for Active; 'I' for Inactive)
REMARK    1  A    between atoms: C_1  and  C_2
REMARK    2  A    between atoms: C_3  and  C_4
REMARK    3  A    between atoms: C_4  and  C_5
REMARK    4  A    between atoms: C_5  and  O_6
REMARK    5  A    between atoms: N_10  and  S_11
REMARK    6  A    between atoms: S_11  and  C_14
REMARK                            x       y       z     vdW  Elec       q    Type
REMARK                         _______ _______ _______ _____ _____    ______ ____
ROOT
ATOM      1  C   UNL     1       3.355   3.425  16.509  0.00  0.00    +0.000 C 
ATOM      2  C   UNL     1       4.662   3.822  17.095  0.00  0.00    +0.000 A 
ATOM      3  C   UNL     1       5.588   4.668  16.603  0.00  0.00    +0.000 A 
ATOM      4  C   UNL     1       6.713   4.781  17.571  0.00  0.00    +0.000 A 
ATOM      5  O   UNL     1       7.704   5.469  17.434  0.00  0.00    +0.000 OA
ATOM      6  N   UNL     1       6.389   3.953  18.612  0.00  0.00    +0.000 N 
ATOM      7  N   UNL     1       5.156   3.337  18.333  0.00  0.00    +0.000 N 
ATOM      8  H   UNL     1       6.905   3.815  19.477  0.00  0.00    +0.000 HD
ENDROOT
BRANCH   7   9
ATOM      9  S   UNL     1       4.339   2.355  19.425  0.00  0.00    +0.000 S 
ATOM     10  O   UNL     1       3.784   1.234  18.687  0.00  0.00    +0.000 OA
ATOM     11  O   UNL     1       5.171   2.140  20.591  0.00  0.00    +0.000 OA
BRANCH   9  12
ATOM     12  C   UNL     1       2.967   3.385  19.900  0.00  0.00    +0.000 A 
ATOM     13  C   UNL     1       1.694   2.815  19.994  0.00  0.00    +0.000 A 
ATOM     14  C   UNL     1       0.602   3.626  20.296  0.00  0.00    +0.000 A 
ATOM     15  C   UNL     1       0.785   4.994  20.509  0.00  0.00    +0.000 A 
ATOM     16  C   UNL     1       2.062   5.553  20.438  0.00  0.00    +0.000 A 
ATOM     17  C   UNL     1       3.163   4.749  20.144  0.00  0.00    +0.000 A 
ENDBRANCH   9  12
ENDBRANCH   7   9
BRANCH   3  18
ATOM     18  C   UNL     1       5.578   5.460  15.337  0.00  0.00    +0.000 C 
BRANCH  18  19
ATOM     19  C   UNL     1       6.492   4.898  14.250  0.00  0.00    +0.000 C 
BRANCH  19  20
ATOM     20  O   UNL     1       7.790   5.481  14.328  0.00  0.00    +0.000 OA
ATOM     21  H   UNL     1       8.338   5.050  13.650  0.00  0.00    +0.000 HD
ENDBRANCH  19  20
ENDBRANCH  18  19
ENDBRANCH   3  18
TORSDOF 5
ENDMDL
MODEL 4
REMARK VINA RESULT:      -6.8      2.542      3.381
REMARK  Name = 
REMARK  6 active torsions:
REMARK  status: ('A' for Active; 'I' for Inactive)
REMARK    1  A    between atoms: C_1  and  C_2
REMARK    2  A    between atoms: C_3  and  C_4
REMARK    3  A    between atoms: C_4  and  C_5
REMARK    4  A    between atoms: C_5  and  O_6
REMARK    5  A    between atoms: N_10  and  S_11
REMARK    6  A    between atoms: S_11  and  C_14
REMARK                            x       y       z     vdW  Elec       q    Type
REMARK                         _______ _______ _______ _____ _____    ______ ____
ROOT
ATOM      1  C   UNL     1       4.459   6.617  17.079  0.00  0.00    +0.000 C 
ATOM      2  C   UNL     1       4.623   5.382  17.889  0.00  0.00    +0.000 A 
ATOM      3  C   UNL     1       3.696   4.701  18.591  0.00  0.00    +0.000 A 
ATOM      4  C   UNL     1       4.329   3.501  19.204  0.00  0.00    +0.000 A 
ATOM      5  O   UNL     1       3.767   2.673  19.892  0.00  0.00    +0.000 OA
ATOM      6  N   UNL     1       5.646   3.547  18.834  0.00  0.00    +0.000 N 
ATOM      7  N   UNL     1       5.856   4.700  18.054  0.00  0.00    +0.000 N 
ATOM      8  H   UNL     1       6.369   2.862  19.031  0.00  0.00    +0.000 HD
ENDROOT
BRANCH   7   9
ATOM      9  S   UNL     1       7.308   5.049  17.285  0.00  0.00    +0.000 S 
ATOM     10  O   UNL     1       7.523   6.483  17.371  0.00  0.00    +0.000 OA
ATOM     11  O   UNL     1       8.322   4.116  17.730  0.00  0.00    +0.000 OA
BRANCH   9  12
ATOM     12  C   UNL     1       6.925   4.690  15.584  0.00  0.00    +0.000 A 
ATOM     13  C   UNL     1       5.932   3.749  15.298  0.00  0.00    +0.000 A 
ATOM     14  C   UNL     1       5.673   3.408  13.972  0.00  0.00    +0.000 A 
ATOM     15  C   UNL     1       6.397   4.012  12.941  0.00  0.00    +0.000 A 
ATOM     16  C   UNL     1       7.370   4.970  13.232  0.00  0.00    +0.000 A 
ATOM     17  C   UNL     1       7.631   5.323  14.555  0.00  0.00    +0.000 A 
ENDBRANCH   9  12
ENDBRANCH   7   9
BRANCH   3  18
ATOM     18  C   UNL     1       2.238   4.974  18.759  0.00  0.00    +0.000 C 
BRANCH  18  19
ATOM     19  C   UNL     1       1.353   4.256  17.741  0.00  0.00    +0.000 C 
BRANCH  19  20
ATOM     20  O   UNL     1       1.136   2.902  18.126  0.00  0.00    +0.000 OA
ATOM     21  H   UNL     1       0.333   2.886  18.675  0.00  0.00    +0.000 HD
ENDBRANCH  19  20
ENDBRANCH  18  19
ENDBRANCH   3  18
TORSDOF 5
ENDMDL
MODEL 5
REMARK VINA RESULT:      -6.8      2.651      3.443
REMARK  Name = 
REMARK  6 active torsions:
REMARK  status: ('A' for Active; 'I' for Inactive)
REMARK    1  A    between atoms: C_1  and  C_2
REMARK    2  A    between atoms: C_3  and  C_4
REMARK    3  A    between atoms: C_4  and  C_5
REMARK    4  A    between atoms: C_5  and  O_6
REMARK    5  A    between atoms: N_10  and  S_11
REMARK    6  A    between atoms: S_11  and  C_14
REMARK                            x       y       z     vdW  Elec       q    Type
REMARK                         _______ _______ _______ _____ _____    ______ ____
ROOT
ATOM      1  C   UNL     1       4.216   6.811  17.174  0.00  0.00    +0.000 C 
ATOM      2  C   UNL     1       4.273   5.329  17.260  0.00  0.00    +0.000 A 
ATOM      3  C   UNL     1       3.290   4.461  17.573  0.00  0.00    +0.000 A 
ATOM      4  C   UNL     1       3.817   3.071  17.485  0.00  0.00    +0.000 A 
ATOM      5  O   UNL     1       3.186   2.056  17.698  0.00  0.00    +0.000 OA
ATOM      6  N   UNL     1       5.133   3.196  17.129  0.00  0.00    +0.000 N 
ATOM      7  N   UNL     1       5.441   4.564  17.012  0.00  0.00    +0.000 N 
ATOM      8  H   UNL     1       5.794   2.451  16.930  0.00  0.00    +0.000 HD
ENDROOT
BRANCH   7   9
ATOM      9  S   UNL     1       6.918   5.139  16.453  0.00  0.00    +0.000 S 
ATOM     10  O   UNL     1       6.906   6.586  16.573  0.00  0.00    +0.000 OA
ATOM     11  O   UNL     1       7.988   4.353  17.031  0.00  0.00    +0.000 OA
BRANCH   9  12
ATOM     12  C   UNL     1       6.829   4.769  14.714  0.00  0.00    +0.000 A 
ATOM     13  C   UNL     1       5.894   3.829  14.270  0.00  0.00    +0.000 A 
ATOM     14  C   UNL     1       5.863   3.479  12.921  0.00  0.00    +0.000 A 
ATOM     15  C   UNL     1       6.754   4.073  12.025  0.00  0.00    +0.000 A 
ATOM     16  C   UNL     1       7.668   5.030  12.471  0.00  0.00    +0.000 A 
ATOM     17  C   UNL     1       7.702   5.392  13.816  0.00  0.00    +0.000 A 
ENDBRANCH   9  12
ENDBRANCH   7   9
BRANCH   3  18
ATOM     18  C   UNL     1       1.861   4.723  17.918  0.00  0.00    +0.000 C 
BRANCH  18  19
ATOM     19  C   UNL     1       1.530   4.499  19.392  0.00  0.00    +0.000 C 
BRANCH  19  20
ATOM     20  O   UNL     1       1.007   3.190  19.599  0.00  0.00    +0.000 OA
ATOM     21  H   UNL     1       1.766   2.597  19.738  0.00  0.00    +0.000 HD
ENDBRANCH  19  20
ENDBRANCH  18  19
ENDBRANCH   3  18
TORSDOF 5
ENDMDL
MODEL 6
REMARK VINA RESULT:      -6.7      2.687      3.456
REMARK  Name = 
REMARK  6 active torsions:
REMARK  status: ('A' for Active; 'I' for Inactive)
REMARK    1  A    between atoms: C_1  and  C_2
REMARK    2  A    between atoms: C_3  and  C_4
REMARK    3  A    between atoms: C_4  and  C_5
REMARK    4  A    between atoms: C_5  and  O_6
REMARK    5  A    between atoms: N_10  and  S_11
REMARK    6  A    between atoms: S_11  and  C_14
REMARK                            x       y       z     vdW  Elec       q    Type
REMARK                         _______ _______ _______ _____ _____    ______ ____
ROOT
ATOM      1  C   UNL     1       4.591   6.904  16.939  0.00  0.00    +0.000 C 
ATOM      2  C   UNL     1       4.709   5.624  17.685  0.00  0.00    +0.000 A 
ATOM      3  C   UNL     1       3.780   4.985  18.422  0.00  0.00    +0.000 A 
ATOM      4  C   UNL     1       4.354   3.712  18.939  0.00  0.00    +0.000 A 
ATOM      5  O   UNL     1       3.774   2.899  19.631  0.00  0.00    +0.000 OA
ATOM      6  N   UNL     1       5.642   3.674  18.479  0.00  0.00    +0.000 N 
ATOM      7  N   UNL     1       5.891   4.841  17.734  0.00  0.00    +0.000 N 
ATOM      8  H   UNL     1       6.319   2.925  18.597  0.00  0.00    +0.000 HD
ENDROOT
BRANCH   7   9
ATOM      9  S   UNL     1       7.312   5.112  16.879  0.00  0.00    +0.000 S 
ATOM     10  O   UNL     1       7.565   6.541  16.877  0.00  0.00    +0.000 OA
ATOM     11  O   UNL     1       8.325   4.177  17.324  0.00  0.00    +0.000 OA
BRANCH   9  12
ATOM     12  C   UNL     1       6.838   4.674  15.219  0.00  0.00    +0.000 A 
ATOM     13  C   UNL     1       5.726   3.848  15.029  0.00  0.00    +0.000 A 
ATOM     14  C   UNL     1       5.388   3.442  13.740  0.00  0.00    +0.000 A 
ATOM     15  C   UNL     1       6.152   3.866  12.650  0.00  0.00    +0.000 A 
ATOM     16  C   UNL     1       7.247   4.711  12.845  0.00  0.00    +0.000 A 
ATOM     17  C   UNL     1       7.588   5.129  14.130  0.00  0.00    +0.000 A 
ENDBRANCH   9  12
ENDBRANCH   7   9
BRANCH   3  18
ATOM     18  C   UNL     1       2.363   5.363  18.704  0.00  0.00    +0.000 C 
BRANCH  18  19
ATOM     19  C   UNL     1       2.177   6.132  20.010  0.00  0.00    +0.000 C 
BRANCH  19  20
ATOM     20  O   UNL     1       2.387   5.281  21.133  0.00  0.00    +0.000 OA
ATOM     21  H   UNL     1       1.511   4.977  21.429  0.00  0.00    +0.000 HD
ENDBRANCH  19  20
ENDBRANCH  18  19
ENDBRANCH   3  18
TORSDOF 5
ENDMDL
MODEL 7
REMARK VINA RESULT:      -6.6      2.663      3.544
REMARK  Name = 
REMARK  6 active torsions:
REMARK  status: ('A' for Active; 'I' for Inactive)
REMARK    1  A    between atoms: C_1  and  C_2
REMARK    2  A    between atoms: C_3  and  C_4
REMARK    3  A    between atoms: C_4  and  C_5
REMARK    4  A    between atoms: C_5  and  O_6
REMARK    5  A    between atoms: N_10  and  S_11
REMARK    6  A    between atoms: S_11  and  C_14
REMARK                            x       y       z     vdW  Elec       q    Type
REMARK                         _______ _______ _______ _____ _____    ______ ____
ROOT
ATOM      1  C   UNL     1       4.457   6.891  16.888  0.00  0.00    +0.000 C 
ATOM      2  C   UNL     1       4.482   5.446  17.231  0.00  0.00    +0.000 A 
ATOM      3  C   UNL     1       3.475   4.661  17.663  0.00  0.00    +0.000 A 
ATOM      4  C   UNL     1       3.976   3.269  17.832  0.00  0.00    +0.000 A 
ATOM      5  O   UNL     1       3.320   2.316  18.200  0.00  0.00    +0.000 OA
ATOM      6  N   UNL     1       5.302   3.310  17.495  0.00  0.00    +0.000 N 
ATOM      7  N   UNL     1       5.641   4.632  17.151  0.00  0.00    +0.000 N 
ATOM      8  H   UNL     1       5.953   2.531  17.446  0.00  0.00    +0.000 HD
ENDROOT
BRANCH   7   9
ATOM      9  S   UNL     1       7.141   5.078  16.541  0.00  0.00    +0.000 S 
ATOM     10  O   UNL     1       7.247   6.523  16.633  0.00  0.00    +0.000 OA
ATOM     11  O   UNL     1       8.162   4.219  17.106  0.00  0.00    +0.000 OA
BRANCH   9  12
ATOM     12  C   UNL     1       6.974   4.685  14.813  0.00  0.00    +0.000 A 
ATOM     13  C   UNL     1       7.826   5.304  13.894  0.00  0.00    +0.000 A 
ATOM     14  C   UNL     1       7.658   5.059  12.532  0.00  0.00    +0.000 A 
ATOM     15  C   UNL     1       6.651   4.194  12.097  0.00  0.00    +0.000 A 
ATOM     16  C   UNL     1       5.819   3.560  13.022  0.00  0.00    +0.000 A 
ATOM     17  C   UNL     1       5.984   3.793  14.387  0.00  0.00    +0.000 A 
ENDBRANCH   9  12
ENDBRANCH   7   9
BRANCH   3  18
ATOM     18  C   UNL     1       2.044   5.001  17.919  0.00  0.00    +0.000 C 
BRANCH  18  19
ATOM     19  C   UNL     1       1.681   5.076  19.401  0.00  0.00    +0.000 C 
BRANCH  19  20
ATOM     20  O   UNL     1       1.119   3.845  19.847  0.00  0.00    +0.000 OA
ATOM     21  H   UNL     1       0.580   3.496  19.115  0.00  0.00    +0.000 HD
ENDBRANCH  19  20
ENDBRANCH  18  19
ENDBRANCH   3  18
TORSDOF 5
ENDMDL
MODEL 8
REMARK VINA RESULT:      -6.6      3.064      5.677
REMARK  Name = 
REMARK  6 active torsions:
REMARK  status: ('A' for Active; 'I' for Inactive)
REMARK    1  A    between atoms: C_1  and  C_2
REMARK    2  A    between atoms: C_3  and  C_4
REMARK    3  A    between atoms: C_4  and  C_5
REMARK    4  A    between atoms: C_5  and  O_6
REMARK    5  A    between atoms: N_10  and  S_11
REMARK    6  A    between atoms: S_11  and  C_14
REMARK                            x       y       z     vdW  Elec       q    Type
REMARK                         _______ _______ _______ _____ _____    ______ ____
ROOT
ATOM      1  C   UNL     1       4.475   3.490  16.268  0.00  0.00    +0.000 C 
ATOM      2  C   UNL     1       5.623   4.231  15.685  0.00  0.00    +0.000 A 
ATOM      3  C   UNL     1       5.994   4.337  14.394  0.00  0.00    +0.000 A 
ATOM      4  C   UNL     1       7.187   5.223  14.298  0.00  0.00    +0.000 A 
ATOM      5  O   UNL     1       7.765   5.531  13.275  0.00  0.00    +0.000 OA
ATOM      6  N   UNL     1       7.478   5.593  15.583  0.00  0.00    +0.000 N 
ATOM      7  N   UNL     1       6.555   4.980  16.450  0.00  0.00    +0.000 N 
ATOM      8  H   UNL     1       8.201   6.235  15.894  0.00  0.00    +0.000 HD
ENDROOT
BRANCH   7   9
ATOM      9  S   UNL     1       6.481   5.291  18.099  0.00  0.00    +0.000 S 
ATOM     10  O   UNL     1       6.427   4.015  18.791  0.00  0.00    +0.000 OA
ATOM     11  O   UNL     1       7.477   6.284  18.445  0.00  0.00    +0.000 OA
BRANCH   9  12
ATOM     12  C   UNL     1       4.871   6.032  18.268  0.00  0.00    +0.000 A 
ATOM     13  C   UNL     1       4.498   7.047  17.382  0.00  0.00    +0.000 A 
ATOM     14  C   UNL     1       3.269   7.683  17.548  0.00  0.00    +0.000 A 
ATOM     15  C   UNL     1       2.418   7.298  18.586  0.00  0.00    +0.000 A 
ATOM     16  C   UNL     1       2.785   6.266  19.452  0.00  0.00    +0.000 A 
ATOM     17  C   UNL     1       4.009   5.619  19.289  0.00  0.00    +0.000 A 
ENDBRANCH   9  12
ENDBRANCH   7   9
BRANCH   3  18
ATOM     18  C   UNL     1       5.366   3.754  13.171  0.00  0.00    +0.000 C 
BRANCH  18  19
ATOM     19  C   UNL     1       6.364   3.101  12.216  0.00  0.00    +0.000 C 
BRANCH  19  20
ATOM     20  O   UNL     1       5.888   1.832  11.777  0.00  0.00    +0.000 OA
ATOM     21  H   UNL     1       6.657   1.341  11.438  0.00  0.00    +0.000 HD
ENDBRANCH  19  20
ENDBRANCH  18  19
ENDBRANCH   3  18
TORSDOF 5
ENDMDL
MODEL 9
REMARK VINA RESULT:      -6.5      2.047      5.336
REMARK  Name = 
REMARK  6 active torsions:
REMARK  status: ('A' for Active; 'I' for Inactive)
REMARK    1  A    between atoms: C_1  and  C_2
REMARK    2  A    between atoms: C_3  and  C_4
REMARK    3  A    between atoms: C_4  and  C_5
REMARK    4  A    between atoms: C_5  and  O_6
REMARK    5  A    between atoms: N_10  and  S_11
REMARK    6  A    between atoms: S_11  and  C_14
REMARK                            x       y       z     vdW  Elec       q    Type
REMARK                         _______ _______ _______ _____ _____    ______ ____
ROOT
ATOM      1  C   UNL     1       3.455   6.217  18.709  0.00  0.00    +0.000 C 
ATOM      2  C   UNL     1       4.313   5.347  17.863  0.00  0.00    +0.000 A 
ATOM      3  C   UNL     1       5.609   5.505  17.530  0.00  0.00    +0.000 A 
ATOM      4  C   UNL     1       6.046   4.350  16.699  0.00  0.00    +0.000 A 
ATOM      5  O   UNL     1       7.158   4.182  16.241  0.00  0.00    +0.000 OA
ATOM      6  N   UNL     1       4.942   3.551  16.566  0.00  0.00    +0.000 N 
ATOM      7  N   UNL     1       3.866   4.152  17.245  0.00  0.00    +0.000 N 
ATOM      8  H   UNL     1       4.883   2.649  16.102  0.00  0.00    +0.000 HD
ENDROOT
BRANCH   7   9
ATOM      9  S   UNL     1       2.367   3.418  17.442  0.00  0.00    +0.000 S 
ATOM     10  O   UNL     1       1.346   4.423  17.204  0.00  0.00    +0.000 OA
ATOM     11  O   UNL     1       2.353   2.158  16.730  0.00  0.00    +0.000 OA
BRANCH   9  12
ATOM     12  C   UNL     1       2.348   3.074  19.189  0.00  0.00    +0.000 A 
ATOM     13  C   UNL     1       1.210   3.406  19.931  0.00  0.00    +0.000 A 
ATOM     14  C   UNL     1       1.210   3.206  21.310  0.00  0.00    +0.000 A 
ATOM     15  C   UNL     1       2.337   2.670  21.938  0.00  0.00    +0.000 A 
ATOM     16  C   UNL     1       3.460   2.317  21.188  0.00  0.00    +0.000 A 
ATOM     17  C   UNL     1       3.466   2.506  19.807  0.00  0.00    +0.000 A 
ENDBRANCH   9  12
ENDBRANCH   7   9
BRANCH   3  18
ATOM     18  C   UNL     1       6.566   6.587  17.910  0.00  0.00    +0.000 C 
BRANCH  18  19
ATOM     19  C   UNL     1       7.712   6.113  18.802  0.00  0.00    +0.000 C 
BRANCH  19  20
ATOM     20  O   UNL     1       7.211   5.459  19.964  0.00  0.00    +0.000 OA
ATOM     21  H   UNL     1       6.252   5.620  19.991  0.00  0.00    +0.000 HD
ENDBRANCH  19  20
ENDBRANCH  18  19
ENDBRANCH   3  18
TORSDOF 5
ENDMDL
