MODEL 1
REMARK VINA RESULT:      -7.3      0.000      0.000
REMARK  Name = 
REMARK  15 active torsions:
REMARK  status: ('A' for Active; 'I' for Inactive)
REMARK    1  A    between atoms: C_1  and  C_2
REMARK    2  A    between atoms: C_2  and  C_3
REMARK    3  A    between atoms: C_3  and  N_4
REMARK    4  A    between atoms: C_9  and  C_10
REMARK    5  A    between atoms: C_13  and  O_14
REMARK    6  A    between atoms: O_14  and  C_15
REMARK    7  A    between atoms: C_15  and  C_16
REMARK    8  A    between atoms: C_16  and  O_18
REMARK    9  A    between atoms: O_18  and  C_19
REMARK   10  A    between atoms: C_19  and  C_20
REMARK   11  A    between atoms: C_22  and  O_23
REMARK   12  A    between atoms: O_23  and  C_24
REMARK   13  A    between atoms: N_27  and  C_28
REMARK   14  A    between atoms: C_28  and  C_29
REMARK   15  A    between atoms: C_29  and  C_30
REMARK                            x       y       z     vdW  Elec       q    Type
REMARK                         _______ _______ _______ _____ _____    ______ ____
ROOT
ATOM      1  N   UNL     1       4.639   5.108  18.391  0.00  0.00    +0.000 N 
ATOM      2  C   UNL     1       4.030   6.350  18.162  0.00  0.00    +0.000 A 
ATOM      3  O   UNL     1       4.408   7.163  17.330  0.00  0.00    +0.000 OA
ATOM      4  C   UNL     1       2.918   6.596  19.024  0.00  0.00    +0.000 A 
ATOM      5  N   UNL     1       2.187   7.751  19.156  0.00  0.00    +0.000 N 
ATOM      6  C   UNL     1       1.327   7.633  20.233  0.00  0.00    +0.000 A 
ATOM      7  C   UNL     1       1.366   6.288  20.603  0.00  0.00    +0.000 A 
ATOM      8  C   UNL     1       2.453   5.693  19.933  0.00  0.00    +0.000 A 
ATOM      9  N   UNL     1       3.087   4.470  20.111  0.00  0.00    +0.000 N 
ATOM     10  C   UNL     1       4.217   4.155  19.338  0.00  0.00    +0.000 A 
ATOM     11  O   UNL     1       4.821   3.089  19.495  0.00  0.00    +0.000 OA
ATOM     12  H   UNL     1       2.343   8.603  18.630  0.00  0.00    +0.000 HD
ENDROOT
BRANCH   6  13
ATOM     13  C   UNL     1       0.670   8.771  20.908  0.00  0.00    +0.000 A 
ATOM     14  C   UNL     1       0.522   8.681  22.307  0.00  0.00    +0.000 A 
ATOM     15  C   UNL     1       0.006   9.733  23.061  0.00  0.00    +0.000 A 
ATOM     16  C   UNL     1      -0.377  10.912  22.439  0.00  0.00    +0.000 A 
ATOM     17  C   UNL     1      -0.272  11.015  21.052  0.00  0.00    +0.000 A 
ATOM     18  C   UNL     1       0.269   9.968  20.277  0.00  0.00    +0.000 A 
BRANCH  18  19
ATOM     19  O   UNL     1       0.406  10.053  18.909  0.00  0.00    +0.000 OA
ATOM     20  C   UNL     1      -0.788  10.301  18.166  0.00  0.00    +0.000 C 
ENDBRANCH  18  19
BRANCH  16  21
ATOM     21  O   UNL     1      -0.878  11.867  23.278  0.00  0.00    +0.000 OA
BRANCH  21  22
ATOM     22  C   UNL     1      -1.728  12.849  22.696  0.00  0.00    +0.000 C 
BRANCH  22  23
ATOM     23  C   UNL     1      -3.182  12.435  22.841  0.00  0.00    +0.000 C 
ATOM     24  O   UNL     1      -3.701  11.967  23.844  0.00  0.00    +0.000 OA
BRANCH  23  25
ATOM     25  O   UNL     1      -3.802  12.573  21.630  0.00  0.00    +0.000 OA
BRANCH  25  26
ATOM     26  C   UNL     1      -5.225  12.751  21.689  0.00  0.00    +0.000 C 
ATOM     27  C   UNL     1      -5.513  14.239  21.596  0.00  0.00    +0.000 C 
ENDBRANCH  25  26
ENDBRANCH  23  25
ENDBRANCH  22  23
ENDBRANCH  21  22
ENDBRANCH  16  21
ENDBRANCH   6  13
BRANCH   1  28
ATOM     28  C   UNL     1       5.827   4.790  17.598  0.00  0.00    +0.000 C 
BRANCH  28  30
ATOM     29  C   UNL     1       5.955   4.846  15.077  0.00  0.00    +0.000 C 
ATOM     30  C   UNL     1       5.477   4.067  16.294  0.00  0.00    +0.000 C 
ENDBRANCH  28  30
ENDBRANCH   1  28
BRANCH   9  31
ATOM     31  C   UNL     1       2.691   3.550  21.182  0.00  0.00    +0.000 C 
BRANCH  31  32
ATOM     32  C   UNL     1       1.348   2.844  20.938  0.00  0.00    +0.000 C 
ATOM     33  C   UNL     1       1.114   2.407  19.498  0.00  0.00    +0.000 C 
ENDBRANCH  31  32
ENDBRANCH   9  31
TORSDOF 11
ENDMDL
MODEL 2
REMARK VINA RESULT:      -7.2      1.125      1.377
REMARK  Name = 
REMARK  15 active torsions:
REMARK  status: ('A' for Active; 'I' for Inactive)
REMARK    1  A    between atoms: C_1  and  C_2
REMARK    2  A    between atoms: C_2  and  C_3
REMARK    3  A    between atoms: C_3  and  N_4
REMARK    4  A    between atoms: C_9  and  C_10
REMARK    5  A    between atoms: C_13  and  O_14
REMARK    6  A    between atoms: O_14  and  C_15
REMARK    7  A    between atoms: C_15  and  C_16
REMARK    8  A    between atoms: C_16  and  O_18
REMARK    9  A    between atoms: O_18  and  C_19
REMARK   10  A    between atoms: C_19  and  C_20
REMARK   11  A    between atoms: C_22  and  O_23
REMARK   12  A    between atoms: O_23  and  C_24
REMARK   13  A    between atoms: N_27  and  C_28
REMARK   14  A    between atoms: C_28  and  C_29
REMARK   15  A    between atoms: C_29  and  C_30
REMARK                            x       y       z     vdW  Elec       q    Type
REMARK                         _______ _______ _______ _____ _____    ______ ____
ROOT
ATOM      1  N   UNL     1       4.670   5.156  18.395  0.00  0.00    +0.000 N 
ATOM      2  C   UNL     1       4.063   6.401  18.177  0.00  0.00    +0.000 A 
ATOM      3  O   UNL     1       4.443   7.220  17.352  0.00  0.00    +0.000 OA
ATOM      4  C   UNL     1       2.952   6.642  19.041  0.00  0.00    +0.000 A 
ATOM      5  N   UNL     1       2.223   7.798  19.183  0.00  0.00    +0.000 N 
ATOM      6  C   UNL     1       1.364   7.673  20.260  0.00  0.00    +0.000 A 
ATOM      7  C   UNL     1       1.399   6.325  20.618  0.00  0.00    +0.000 A 
ATOM      8  C   UNL     1       2.485   5.733  19.943  0.00  0.00    +0.000 A 
ATOM      9  N   UNL     1       3.116   4.508  20.110  0.00  0.00    +0.000 N 
ATOM     10  C   UNL     1       4.245   4.197  19.334  0.00  0.00    +0.000 A 
ATOM     11  O   UNL     1       4.847   3.128  19.483  0.00  0.00    +0.000 OA
ATOM     12  H   UNL     1       2.381   8.654  18.664  0.00  0.00    +0.000 HD
ENDROOT
BRANCH   6  13
ATOM     13  C   UNL     1       0.709   8.807  20.943  0.00  0.00    +0.000 A 
ATOM     14  C   UNL     1       0.207   8.564  22.239  0.00  0.00    +0.000 A 
ATOM     15  C   UNL     1      -0.343   9.580  23.017  0.00  0.00    +0.000 A 
ATOM     16  C   UNL     1      -0.407  10.875  22.525  0.00  0.00    +0.000 A 
ATOM     17  C   UNL     1       0.052  11.137  21.234  0.00  0.00    +0.000 A 
ATOM     18  C   UNL     1       0.632  10.124  20.442  0.00  0.00    +0.000 A 
BRANCH  18  19
ATOM     19  O   UNL     1       1.114  10.360  19.174  0.00  0.00    +0.000 OA
ATOM     20  C   UNL     1       1.260  11.729  18.794  0.00  0.00    +0.000 C 
ENDBRANCH  18  19
BRANCH  16  21
ATOM     21  O   UNL     1      -0.975  11.783  23.373  0.00  0.00    +0.000 OA
BRANCH  21  22
ATOM     22  C   UNL     1      -1.701  12.852  22.774  0.00  0.00    +0.000 C 
BRANCH  22  23
ATOM     23  C   UNL     1      -3.133  12.861  23.281  0.00  0.00    +0.000 C 
ATOM     24  O   UNL     1      -3.700  11.941  23.854  0.00  0.00    +0.000 OA
BRANCH  23  25
ATOM     25  O   UNL     1      -3.728  14.032  22.900  0.00  0.00    +0.000 OA
BRANCH  25  26
ATOM     26  C   UNL     1      -4.436  14.723  23.939  0.00  0.00    +0.000 C 
ATOM     27  C   UNL     1      -3.409  15.368  24.853  0.00  0.00    +0.000 C 
ENDBRANCH  25  26
ENDBRANCH  23  25
ENDBRANCH  22  23
ENDBRANCH  21  22
ENDBRANCH  16  21
ENDBRANCH   6  13
BRANCH   1  28
ATOM     28  C   UNL     1       5.856   4.842  17.600  0.00  0.00    +0.000 C 
BRANCH  28  30
ATOM     29  C   UNL     1       7.672   6.548  18.006  0.00  0.00    +0.000 C 
ATOM     30  C   UNL     1       7.155   5.158  18.347  0.00  0.00    +0.000 C 
ENDBRANCH  28  30
ENDBRANCH   1  28
BRANCH   9  31
ATOM     31  C   UNL     1       2.718   3.579  21.174  0.00  0.00    +0.000 C 
BRANCH  31  32
ATOM     32  C   UNL     1       1.370   2.883  20.927  0.00  0.00    +0.000 C 
ATOM     33  C   UNL     1       1.118   2.484  19.479  0.00  0.00    +0.000 C 
ENDBRANCH  31  32
ENDBRANCH   9  31
TORSDOF 11
ENDMDL
MODEL 3
REMARK VINA RESULT:      -7.1      0.815      1.076
REMARK  Name = 
REMARK  15 active torsions:
REMARK  status: ('A' for Active; 'I' for Inactive)
REMARK    1  A    between atoms: C_1  and  C_2
REMARK    2  A    between atoms: C_2  and  C_3
REMARK    3  A    between atoms: C_3  and  N_4
REMARK    4  A    between atoms: C_9  and  C_10
REMARK    5  A    between atoms: C_13  and  O_14
REMARK    6  A    between atoms: O_14  and  C_15
REMARK    7  A    between atoms: C_15  and  C_16
REMARK    8  A    between atoms: C_16  and  O_18
REMARK    9  A    between atoms: O_18  and  C_19
REMARK   10  A    between atoms: C_19  and  C_20
REMARK   11  A    between atoms: C_22  and  O_23
REMARK   12  A    between atoms: O_23  and  C_24
REMARK   13  A    between atoms: N_27  and  C_28
REMARK   14  A    between atoms: C_28  and  C_29
REMARK   15  A    between atoms: C_29  and  C_30
REMARK                            x       y       z     vdW  Elec       q    Type
REMARK                         _______ _______ _______ _____ _____    ______ ____
ROOT
ATOM      1  N   UNL     1       4.765   5.191  18.409  0.00  0.00    +0.000 N 
ATOM      2  C   UNL     1       4.125   6.418  18.190  0.00  0.00    +0.000 A 
ATOM      3  O   UNL     1       4.493   7.255  17.378  0.00  0.00    +0.000 OA
ATOM      4  C   UNL     1       2.990   6.617  19.035  0.00  0.00    +0.000 A 
ATOM      5  N   UNL     1       2.223   7.748  19.172  0.00  0.00    +0.000 N 
ATOM      6  C   UNL     1       1.348   7.587  20.232  0.00  0.00    +0.000 A 
ATOM      7  C   UNL     1       1.420   6.238  20.580  0.00  0.00    +0.000 A 
ATOM      8  C   UNL     1       2.535   5.686  19.920  0.00  0.00    +0.000 A 
ATOM      9  N   UNL     1       3.201   4.480  20.090  0.00  0.00    +0.000 N 
ATOM     10  C   UNL     1       4.354   4.210  19.333  0.00  0.00    +0.000 A 
ATOM     11  O   UNL     1       4.987   3.160  19.484  0.00  0.00    +0.000 OA
ATOM     12  H   UNL     1       2.363   8.613  18.663  0.00  0.00    +0.000 HD
ENDROOT
BRANCH   6  13
ATOM     13  C   UNL     1       0.646   8.694  20.912  0.00  0.00    +0.000 A 
ATOM     14  C   UNL     1       0.592   8.641  22.320  0.00  0.00    +0.000 A 
ATOM     15  C   UNL     1       0.041   9.676  23.074  0.00  0.00    +0.000 A 
ATOM     16  C   UNL     1      -0.471  10.800  22.443  0.00  0.00    +0.000 A 
ATOM     17  C   UNL     1      -0.459  10.863  21.050  0.00  0.00    +0.000 A 
ATOM     18  C   UNL     1       0.114   9.834  20.273  0.00  0.00    +0.000 A 
BRANCH  18  19
ATOM     19  O   UNL     1       0.160   9.882  18.897  0.00  0.00    +0.000 OA
ATOM     20  C   UNL     1      -0.939  10.521  18.247  0.00  0.00    +0.000 C 
ENDBRANCH  18  19
BRANCH  16  21
ATOM     21  O   UNL     1      -0.993  11.742  23.283  0.00  0.00    +0.000 OA
BRANCH  21  22
ATOM     22  C   UNL     1      -1.776  12.770  22.686  0.00  0.00    +0.000 C 
BRANCH  22  23
ATOM     23  C   UNL     1      -3.222  12.657  23.140  0.00  0.00    +0.000 C 
ATOM     24  O   UNL     1      -3.656  11.875  23.974  0.00  0.00    +0.000 OA
BRANCH  23  25
ATOM     25  O   UNL     1      -3.988  13.503  22.386  0.00  0.00    +0.000 OA
BRANCH  25  26
ATOM     26  C   UNL     1      -3.258  14.349  21.486  0.00  0.00    +0.000 C 
ATOM     27  C   UNL     1      -4.226  15.374  20.920  0.00  0.00    +0.000 C 
ENDBRANCH  25  26
ENDBRANCH  23  25
ENDBRANCH  22  23
ENDBRANCH  21  22
ENDBRANCH  16  21
ENDBRANCH   6  13
BRANCH   1  28
ATOM     28  C   UNL     1       5.976   4.921  17.633  0.00  0.00    +0.000 C 
BRANCH  28  30
ATOM     29  C   UNL     1       7.732   6.668  18.119  0.00  0.00    +0.000 C 
ATOM     30  C   UNL     1       7.251   5.255  18.413  0.00  0.00    +0.000 C 
ENDBRANCH  28  30
ENDBRANCH   1  28
BRANCH   9  31
ATOM     31  C   UNL     1       2.814   3.530  21.138  0.00  0.00    +0.000 C 
BRANCH  31  32
ATOM     32  C   UNL     1       1.523   2.753  20.836  0.00  0.00    +0.000 C 
ATOM     33  C   UNL     1       1.458   2.153  19.437  0.00  0.00    +0.000 C 
ENDBRANCH  31  32
ENDBRANCH   9  31
TORSDOF 11
ENDMDL
MODEL 4
REMARK VINA RESULT:      -7.1      1.435      1.951
REMARK  Name = 
REMARK  15 active torsions:
REMARK  status: ('A' for Active; 'I' for Inactive)
REMARK    1  A    between atoms: C_1  and  C_2
REMARK    2  A    between atoms: C_2  and  C_3
REMARK    3  A    between atoms: C_3  and  N_4
REMARK    4  A    between atoms: C_9  and  C_10
REMARK    5  A    between atoms: C_13  and  O_14
REMARK    6  A    between atoms: O_14  and  C_15
REMARK    7  A    between atoms: C_15  and  C_16
REMARK    8  A    between atoms: C_16  and  O_18
REMARK    9  A    between atoms: O_18  and  C_19
REMARK   10  A    between atoms: C_19  and  C_20
REMARK   11  A    between atoms: C_22  and  O_23
REMARK   12  A    between atoms: O_23  and  C_24
REMARK   13  A    between atoms: N_27  and  C_28
REMARK   14  A    between atoms: C_28  and  C_29
REMARK   15  A    between atoms: C_29  and  C_30
REMARK                            x       y       z     vdW  Elec       q    Type
REMARK                         _______ _______ _______ _____ _____    ______ ____
ROOT
ATOM      1  N   UNL     1       4.854   4.848  18.152  0.00  0.00    +0.000 N 
ATOM      2  C   UNL     1       4.283   6.105  17.910  0.00  0.00    +0.000 A 
ATOM      3  O   UNL     1       4.688   6.899  17.071  0.00  0.00    +0.000 OA
ATOM      4  C   UNL     1       3.177   6.393  18.766  0.00  0.00    +0.000 A 
ATOM      5  N   UNL     1       2.480   7.570  18.885  0.00  0.00    +0.000 N 
ATOM      6  C   UNL     1       1.614   7.488  19.961  0.00  0.00    +0.000 A 
ATOM      7  C   UNL     1       1.611   6.146  20.343  0.00  0.00    +0.000 A 
ATOM      8  C   UNL     1       2.682   5.513  19.682  0.00  0.00    +0.000 A 
ATOM      9  N   UNL     1       3.278   4.273  19.873  0.00  0.00    +0.000 N 
ATOM     10  C   UNL     1       4.401   3.917  19.106  0.00  0.00    +0.000 A 
ATOM     11  O   UNL     1       4.972   2.835  19.276  0.00  0.00    +0.000 OA
ATOM     12  H   UNL     1       2.663   8.412  18.352  0.00  0.00    +0.000 HD
ENDROOT
BRANCH   6  13
ATOM     13  C   UNL     1       0.990   8.652  20.623  0.00  0.00    +0.000 A 
ATOM     14  C   UNL     1       0.698   8.521  21.996  0.00  0.00    +0.000 A 
ATOM     15  C   UNL     1       0.199   9.584  22.746  0.00  0.00    +0.000 A 
ATOM     16  C   UNL     1      -0.024  10.814  22.147  0.00  0.00    +0.000 A 
ATOM     17  C   UNL     1       0.225  10.961  20.782  0.00  0.00    +0.000 A 
ATOM     18  C   UNL     1       0.752   9.902  20.013  0.00  0.00    +0.000 A 
BRANCH  18  19
ATOM     19  O   UNL     1       1.028  10.028  18.670  0.00  0.00    +0.000 OA
ATOM     20  C   UNL     1       1.751  11.195  18.277  0.00  0.00    +0.000 C 
ENDBRANCH  18  19
BRANCH  16  21
ATOM     21  O   UNL     1      -0.524  11.775  22.978  0.00  0.00    +0.000 OA
BRANCH  21  22
ATOM     22  C   UNL     1      -0.721  13.069  22.417  0.00  0.00    +0.000 C 
BRANCH  22  23
ATOM     23  C   UNL     1      -1.550  13.927  23.357  0.00  0.00    +0.000 C 
ATOM     24  O   UNL     1      -2.750  14.143  23.266  0.00  0.00    +0.000 OA
BRANCH  23  25
ATOM     25  O   UNL     1      -0.717  14.511  24.271  0.00  0.00    +0.000 OA
BRANCH  25  26
ATOM     26  C   UNL     1      -1.090  15.835  24.678  0.00  0.00    +0.000 C 
ATOM     27  C   UNL     1      -1.270  15.826  26.187  0.00  0.00    +0.000 C 
ENDBRANCH  25  26
ENDBRANCH  23  25
ENDBRANCH  22  23
ENDBRANCH  21  22
ENDBRANCH  16  21
ENDBRANCH   6  13
BRANCH   1  28
ATOM     28  C   UNL     1       6.034   4.487  17.366  0.00  0.00    +0.000 C 
BRANCH  28  30
ATOM     29  C   UNL     1       6.558   4.568  14.898  0.00  0.00    +0.000 C 
ATOM     30  C   UNL     1       5.665   3.966  15.974  0.00  0.00    +0.000 C 
ENDBRANCH  28  30
ENDBRANCH   1  28
BRANCH   9  31
ATOM     31  C   UNL     1       2.852   3.375  20.951  0.00  0.00    +0.000 C 
BRANCH  31  32
ATOM     32  C   UNL     1       1.463   2.754  20.738  0.00  0.00    +0.000 C 
ATOM     33  C   UNL     1       1.203   2.253  19.324  0.00  0.00    +0.000 C 
ENDBRANCH  31  32
ENDBRANCH   9  31
TORSDOF 11
ENDMDL
MODEL 5
REMARK VINA RESULT:      -7.0      0.910      1.367
REMARK  Name = 
REMARK  15 active torsions:
REMARK  status: ('A' for Active; 'I' for Inactive)
REMARK    1  A    between atoms: C_1  and  C_2
REMARK    2  A    between atoms: C_2  and  C_3
REMARK    3  A    between atoms: C_3  and  N_4
REMARK    4  A    between atoms: C_9  and  C_10
REMARK    5  A    between atoms: C_13  and  O_14
REMARK    6  A    between atoms: O_14  and  C_15
REMARK    7  A    between atoms: C_15  and  C_16
REMARK    8  A    between atoms: C_16  and  O_18
REMARK    9  A    between atoms: O_18  and  C_19
REMARK   10  A    between atoms: C_19  and  C_20
REMARK   11  A    between atoms: C_22  and  O_23
REMARK   12  A    between atoms: O_23  and  C_24
REMARK   13  A    between atoms: N_27  and  C_28
REMARK   14  A    between atoms: C_28  and  C_29
REMARK   15  A    between atoms: C_29  and  C_30
REMARK                            x       y       z     vdW  Elec       q    Type
REMARK                         _______ _______ _______ _____ _____    ______ ____
ROOT
ATOM      1  N   UNL     1       4.675   5.378  18.319  0.00  0.00    +0.000 N 
ATOM      2  C   UNL     1       3.996   6.585  18.098  0.00  0.00    +0.000 A 
ATOM      3  O   UNL     1       4.306   7.407  17.248  0.00  0.00    +0.000 OA
ATOM      4  C   UNL     1       2.900   6.782  18.992  0.00  0.00    +0.000 A 
ATOM      5  N   UNL     1       2.115   7.900  19.137  0.00  0.00    +0.000 N 
ATOM      6  C   UNL     1       1.296   7.749  20.242  0.00  0.00    +0.000 A 
ATOM      7  C   UNL     1       1.415   6.412  20.622  0.00  0.00    +0.000 A 
ATOM      8  C   UNL     1       2.510   5.866  19.923  0.00  0.00    +0.000 A 
ATOM      9  N   UNL     1       3.211   4.680  20.092  0.00  0.00    +0.000 N 
ATOM     10  C   UNL     1       4.332   4.415  19.287  0.00  0.00    +0.000 A 
ATOM     11  O   UNL     1       4.994   3.383  19.434  0.00  0.00    +0.000 OA
ATOM     12  H   UNL     1       2.210   8.753  18.600  0.00  0.00    +0.000 HD
ENDROOT
BRANCH   6  13
ATOM     13  C   UNL     1       0.602   8.859  20.927  0.00  0.00    +0.000 A 
ATOM     14  C   UNL     1       0.417   8.730  22.319  0.00  0.00    +0.000 A 
ATOM     15  C   UNL     1      -0.136   9.754  23.085  0.00  0.00    +0.000 A 
ATOM     16  C   UNL     1      -0.521  10.943  22.483  0.00  0.00    +0.000 A 
ATOM     17  C   UNL     1      -0.379  11.084  21.103  0.00  0.00    +0.000 A 
ATOM     18  C   UNL     1       0.200  10.066  20.316  0.00  0.00    +0.000 A 
BRANCH  18  19
ATOM     19  O   UNL     1       0.372  10.189  18.955  0.00  0.00    +0.000 OA
ATOM     20  C   UNL     1      -0.816  10.290  18.170  0.00  0.00    +0.000 C 
ENDBRANCH  18  19
BRANCH  16  21
ATOM     21  O   UNL     1      -1.060  11.868  23.331  0.00  0.00    +0.000 OA
BRANCH  21  22
ATOM     22  C   UNL     1      -1.564  13.061  22.742  0.00  0.00    +0.000 C 
BRANCH  22  23
ATOM     23  C   UNL     1      -3.072  12.969  22.581  0.00  0.00    +0.000 C 
ATOM     24  O   UNL     1      -3.669  12.597  21.581  0.00  0.00    +0.000 OA
BRANCH  23  25
ATOM     25  O   UNL     1      -3.666  13.471  23.706  0.00  0.00    +0.000 OA
BRANCH  25  26
ATOM     26  C   UNL     1      -4.312  12.500  24.541  0.00  0.00    +0.000 C 
ATOM     27  C   UNL     1      -5.811  12.632  24.336  0.00  0.00    +0.000 C 
ENDBRANCH  25  26
ENDBRANCH  23  25
ENDBRANCH  22  23
ENDBRANCH  21  22
ENDBRANCH  16  21
ENDBRANCH   6  13
BRANCH   1  28
ATOM     28  C   UNL     1       5.852   5.113  17.492  0.00  0.00    +0.000 C 
BRANCH  28  30
ATOM     29  C   UNL     1       7.757   5.673  19.050  0.00  0.00    +0.000 C 
ATOM     30  C   UNL     1       7.002   6.079  17.793  0.00  0.00    +0.000 C 
ENDBRANCH  28  30
ENDBRANCH   1  28
BRANCH   9  31
ATOM     31  C   UNL     1       2.896   3.751  21.183  0.00  0.00    +0.000 C 
BRANCH  31  32
ATOM     32  C   UNL     1       1.573   2.990  20.997  0.00  0.00    +0.000 C 
ATOM     33  C   UNL     1       1.415   2.315  19.641  0.00  0.00    +0.000 C 
ENDBRANCH  31  32
ENDBRANCH   9  31
TORSDOF 11
ENDMDL
MODEL 6
REMARK VINA RESULT:      -6.9      1.112      1.213
REMARK  Name = 
REMARK  15 active torsions:
REMARK  status: ('A' for Active; 'I' for Inactive)
REMARK    1  A    between atoms: C_1  and  C_2
REMARK    2  A    between atoms: C_2  and  C_3
REMARK    3  A    between atoms: C_3  and  N_4
REMARK    4  A    between atoms: C_9  and  C_10
REMARK    5  A    between atoms: C_13  and  O_14
REMARK    6  A    between atoms: O_14  and  C_15
REMARK    7  A    between atoms: C_15  and  C_16
REMARK    8  A    between atoms: C_16  and  O_18
REMARK    9  A    between atoms: O_18  and  C_19
REMARK   10  A    between atoms: C_19  and  C_20
REMARK   11  A    between atoms: C_22  and  O_23
REMARK   12  A    between atoms: O_23  and  C_24
REMARK   13  A    between atoms: N_27  and  C_28
REMARK   14  A    between atoms: C_28  and  C_29
REMARK   15  A    between atoms: C_29  and  C_30
REMARK                            x       y       z     vdW  Elec       q    Type
REMARK                         _______ _______ _______ _____ _____    ______ ____
ROOT
ATOM      1  N   UNL     1       5.213   5.153  17.709  0.00  0.00    +0.000 N 
ATOM      2  C   UNL     1       4.522   6.332  17.398  0.00  0.00    +0.000 A 
ATOM      3  O   UNL     1       4.812   7.081  16.475  0.00  0.00    +0.000 OA
ATOM      4  C   UNL     1       3.439   6.600  18.290  0.00  0.00    +0.000 A 
ATOM      5  N   UNL     1       2.649   7.721  18.352  0.00  0.00    +0.000 N 
ATOM      6  C   UNL     1       1.849   7.661  19.480  0.00  0.00    +0.000 A 
ATOM      7  C   UNL     1       1.984   6.362  19.971  0.00  0.00    +0.000 A 
ATOM      8  C   UNL     1       3.071   5.765  19.303  0.00  0.00    +0.000 A 
ATOM      9  N   UNL     1       3.783   4.601  19.561  0.00  0.00    +0.000 N 
ATOM     10  C   UNL     1       4.892   4.274  18.762  0.00  0.00    +0.000 A 
ATOM     11  O   UNL     1       5.565   3.263  18.986  0.00  0.00    +0.000 OA
ATOM     12  H   UNL     1       2.729   8.526  17.742  0.00  0.00    +0.000 HD
ENDROOT
BRANCH   6  13
ATOM     13  C   UNL     1       1.159   8.822  20.079  0.00  0.00    +0.000 A 
ATOM     14  C   UNL     1       0.554   8.622  21.337  0.00  0.00    +0.000 A 
ATOM     15  C   UNL     1      -0.041   9.667  22.041  0.00  0.00    +0.000 A 
ATOM     16  C   UNL     1      -0.048  10.948  21.510  0.00  0.00    +0.000 A 
ATOM     17  C   UNL     1       0.515  11.167  20.253  0.00  0.00    +0.000 A 
ATOM     18  C   UNL     1       1.141  10.125  19.537  0.00  0.00    +0.000 A 
BRANCH  18  19
ATOM     19  O   UNL     1       1.724  10.319  18.305  0.00  0.00    +0.000 OA
ATOM     20  C   UNL     1       2.270  11.615  18.057  0.00  0.00    +0.000 C 
ENDBRANCH  18  19
BRANCH  16  21
ATOM     21  O   UNL     1      -0.668  11.886  22.285  0.00  0.00    +0.000 OA
BRANCH  21  22
ATOM     22  C   UNL     1      -1.555  11.404  23.289  0.00  0.00    +0.000 C 
BRANCH  22  23
ATOM     23  C   UNL     1      -2.899  12.105  23.180  0.00  0.00    +0.000 C 
ATOM     24  O   UNL     1      -3.802  12.064  24.003  0.00  0.00    +0.000 OA
BRANCH  23  25
ATOM     25  O   UNL     1      -2.982  12.710  21.956  0.00  0.00    +0.000 OA
BRANCH  25  26
ATOM     26  C   UNL     1      -4.263  13.275  21.640  0.00  0.00    +0.000 C 
ATOM     27  C   UNL     1      -4.715  12.692  20.313  0.00  0.00    +0.000 C 
ENDBRANCH  25  26
ENDBRANCH  23  25
ENDBRANCH  22  23
ENDBRANCH  21  22
ENDBRANCH  16  21
ENDBRANCH   6  13
BRANCH   1  28
ATOM     28  C   UNL     1       6.378   4.825  16.888  0.00  0.00    +0.000 C 
BRANCH  28  30
ATOM     29  C   UNL     1       6.602   4.494  14.396  0.00  0.00    +0.000 C 
ATOM     30  C   UNL     1       6.013   3.947  15.688  0.00  0.00    +0.000 C 
ENDBRANCH  28  30
ENDBRANCH   1  28
BRANCH   9  31
ATOM     31  C   UNL     1       3.494   3.768  20.732  0.00  0.00    +0.000 C 
BRANCH  31  32
ATOM     32  C   UNL     1       2.442   2.675  20.480  0.00  0.00    +0.000 C 
ATOM     33  C   UNL     1       1.089   2.936  21.129  0.00  0.00    +0.000 C 
ENDBRANCH  31  32
ENDBRANCH   9  31
TORSDOF 11
ENDMDL
MODEL 7
REMARK VINA RESULT:      -6.9      2.690     10.216
REMARK  Name = 
REMARK  15 active torsions:
REMARK  status: ('A' for Active; 'I' for Inactive)
REMARK    1  A    between atoms: C_1  and  C_2
REMARK    2  A    between atoms: C_2  and  C_3
REMARK    3  A    between atoms: C_3  and  N_4
REMARK    4  A    between atoms: C_9  and  C_10
REMARK    5  A    between atoms: C_13  and  O_14
REMARK    6  A    between atoms: O_14  and  C_15
REMARK    7  A    between atoms: C_15  and  C_16
REMARK    8  A    between atoms: C_16  and  O_18
REMARK    9  A    between atoms: O_18  and  C_19
REMARK   10  A    between atoms: C_19  and  C_20
REMARK   11  A    between atoms: C_22  and  O_23
REMARK   12  A    between atoms: O_23  and  C_24
REMARK   13  A    between atoms: N_27  and  C_28
REMARK   14  A    between atoms: C_28  and  C_29
REMARK   15  A    between atoms: C_29  and  C_30
REMARK                            x       y       z     vdW  Elec       q    Type
REMARK                         _______ _______ _______ _____ _____    ______ ____
ROOT
ATOM      1  N   UNL     1      -0.569  11.632  22.002  0.00  0.00    +0.000 N 
ATOM      2  C   UNL     1      -0.380  10.245  21.939  0.00  0.00    +0.000 A 
ATOM      3  O   UNL     1      -0.721   9.459  22.812  0.00  0.00    +0.000 OA
ATOM      4  C   UNL     1       0.283   9.824  20.746  0.00  0.00    +0.000 A 
ATOM      5  N   UNL     1       0.737   8.568  20.426  0.00  0.00    +0.000 N 
ATOM      6  C   UNL     1       1.492   8.630  19.268  0.00  0.00    +0.000 A 
ATOM      7  C   UNL     1       1.280   9.906  18.746  0.00  0.00    +0.000 A 
ATOM      8  C   UNL     1       0.641  10.672  19.741  0.00  0.00    +0.000 A 
ATOM      9  N   UNL     1       0.419  12.039  19.849  0.00  0.00    +0.000 N 
ATOM     10  C   UNL     1      -0.191  12.553  21.007  0.00  0.00    +0.000 A 
ATOM     11  O   UNL     1      -0.373  13.767  21.147  0.00  0.00    +0.000 OA
ATOM     12  H   UNL     1       0.645   7.747  21.013  0.00  0.00    +0.000 HD
ENDROOT
BRANCH   6  13
ATOM     13  C   UNL     1       2.437   7.583  18.828  0.00  0.00    +0.000 A 
ATOM     14  C   UNL     1       3.247   7.887  17.715  0.00  0.00    +0.000 A 
ATOM     15  C   UNL     1       4.241   7.017  17.270  0.00  0.00    +0.000 A 
ATOM     16  C   UNL     1       4.458   5.815  17.927  0.00  0.00    +0.000 A 
ATOM     17  C   UNL     1       3.648   5.475  19.011  0.00  0.00    +0.000 A 
ATOM     18  C   UNL     1       2.653   6.355  19.488  0.00  0.00    +0.000 A 
BRANCH  18  19
ATOM     19  O   UNL     1       1.856   6.054  20.569  0.00  0.00    +0.000 OA
ATOM     20  C   UNL     1       1.603   4.669  20.808  0.00  0.00    +0.000 C 
ENDBRANCH  18  19
BRANCH  16  21
ATOM     21  O   UNL     1       5.450   5.041  17.395  0.00  0.00    +0.000 OA
BRANCH  21  22
ATOM     22  C   UNL     1       5.100   4.226  16.282  0.00  0.00    +0.000 C 
BRANCH  22  23
ATOM     23  C   UNL     1       5.922   4.618  15.066  0.00  0.00    +0.000 C 
ATOM     24  O   UNL     1       6.270   5.752  14.767  0.00  0.00    +0.000 OA
BRANCH  23  25
ATOM     25  O   UNL     1       6.125   3.508  14.294  0.00  0.00    +0.000 OA
BRANCH  25  26
ATOM     26  C   UNL     1       6.479   3.770  12.929  0.00  0.00    +0.000 C 
ATOM     27  C   UNL     1       5.335   3.295  12.050  0.00  0.00    +0.000 C 
ENDBRANCH  25  26
ENDBRANCH  23  25
ENDBRANCH  22  23
ENDBRANCH  21  22
ENDBRANCH  16  21
ENDBRANCH   6  13
BRANCH   1  28
ATOM     28  C   UNL     1      -1.186  12.167  23.216  0.00  0.00    +0.000 C 
BRANCH  28  30
ATOM     29  C   UNL     1      -3.292  13.556  23.326  0.00  0.00    +0.000 C 
ATOM     30  C   UNL     1      -2.716  12.160  23.140  0.00  0.00    +0.000 C 
ENDBRANCH  28  30
ENDBRANCH   1  28
BRANCH   9  31
ATOM     31  C   UNL     1       0.926  12.981  18.847  0.00  0.00    +0.000 C 
BRANCH  31  32
ATOM     32  C   UNL     1       2.346  13.495  19.130  0.00  0.00    +0.000 C 
ATOM     33  C   UNL     1       2.955  14.327  18.009  0.00  0.00    +0.000 C 
ENDBRANCH  31  32
ENDBRANCH   9  31
TORSDOF 11
ENDMDL
MODEL 8
REMARK VINA RESULT:      -6.8      1.341      1.688
REMARK  Name = 
REMARK  15 active torsions:
REMARK  status: ('A' for Active; 'I' for Inactive)
REMARK    1  A    between atoms: C_1  and  C_2
REMARK    2  A    between atoms: C_2  and  C_3
REMARK    3  A    between atoms: C_3  and  N_4
REMARK    4  A    between atoms: C_9  and  C_10
REMARK    5  A    between atoms: C_13  and  O_14
REMARK    6  A    between atoms: O_14  and  C_15
REMARK    7  A    between atoms: C_15  and  C_16
REMARK    8  A    between atoms: C_16  and  O_18
REMARK    9  A    between atoms: O_18  and  C_19
REMARK   10  A    between atoms: C_19  and  C_20
REMARK   11  A    between atoms: C_22  and  O_23
REMARK   12  A    between atoms: O_23  and  C_24
REMARK   13  A    between atoms: N_27  and  C_28
REMARK   14  A    between atoms: C_28  and  C_29
REMARK   15  A    between atoms: C_29  and  C_30
REMARK                            x       y       z     vdW  Elec       q    Type
REMARK                         _______ _______ _______ _____ _____    ______ ____
ROOT
ATOM      1  N   UNL     1       5.194   5.181  17.789  0.00  0.00    +0.000 N 
ATOM      2  C   UNL     1       4.516   6.362  17.458  0.00  0.00    +0.000 A 
ATOM      3  O   UNL     1       4.826   7.102  16.535  0.00  0.00    +0.000 OA
ATOM      4  C   UNL     1       3.422   6.644  18.331  0.00  0.00    +0.000 A 
ATOM      5  N   UNL     1       2.638   7.771  18.372  0.00  0.00    +0.000 N 
ATOM      6  C   UNL     1       1.820   7.725  19.487  0.00  0.00    +0.000 A 
ATOM      7  C   UNL     1       1.938   6.429  19.990  0.00  0.00    +0.000 A 
ATOM      8  C   UNL     1       3.031   5.819  19.344  0.00  0.00    +0.000 A 
ATOM      9  N   UNL     1       3.731   4.652  19.621  0.00  0.00    +0.000 N 
ATOM     10  C   UNL     1       4.850   4.312  18.843  0.00  0.00    +0.000 A 
ATOM     11  O   UNL     1       5.512   3.297  19.085  0.00  0.00    +0.000 OA
ATOM     12  H   UNL     1       2.734   8.571  17.758  0.00  0.00    +0.000 HD
ENDROOT
BRANCH   6  13
ATOM     13  C   UNL     1       1.129   8.895  20.067  0.00  0.00    +0.000 A 
ATOM     14  C   UNL     1       0.512   8.711  21.321  0.00  0.00    +0.000 A 
ATOM     15  C   UNL     1      -0.086   9.766  22.008  0.00  0.00    +0.000 A 
ATOM     16  C   UNL     1      -0.083  11.041  21.463  0.00  0.00    +0.000 A 
ATOM     17  C   UNL     1       0.492  11.244  20.209  0.00  0.00    +0.000 A 
ATOM     18  C   UNL     1       1.120  10.192  19.510  0.00  0.00    +0.000 A 
BRANCH  18  19
ATOM     19  O   UNL     1       1.716  10.370  18.281  0.00  0.00    +0.000 OA
ATOM     20  C   UNL     1       2.340  11.634  18.055  0.00  0.00    +0.000 C 
ENDBRANCH  18  19
BRANCH  16  21
ATOM     21  O   UNL     1      -0.707  11.991  22.221  0.00  0.00    +0.000 OA
BRANCH  21  22
ATOM     22  C   UNL     1      -1.623  11.524  23.206  0.00  0.00    +0.000 C 
BRANCH  22  23
ATOM     23  C   UNL     1      -2.803  12.475  23.317  0.00  0.00    +0.000 C 
ATOM     24  O   UNL     1      -3.983  12.158  23.355  0.00  0.00    +0.000 OA
BRANCH  23  25
ATOM     25  O   UNL     1      -2.338  13.761  23.261  0.00  0.00    +0.000 OA
BRANCH  25  26
ATOM     26  C   UNL     1      -2.669  14.578  24.392  0.00  0.00    +0.000 C 
ATOM     27  C   UNL     1      -1.385  15.208  24.904  0.00  0.00    +0.000 C 
ENDBRANCH  25  26
ENDBRANCH  23  25
ENDBRANCH  22  23
ENDBRANCH  21  22
ENDBRANCH  16  21
ENDBRANCH   6  13
BRANCH   1  28
ATOM     28  C   UNL     1       6.370   4.838  16.989  0.00  0.00    +0.000 C 
BRANCH  28  30
ATOM     29  C   UNL     1       6.498   4.616  14.478  0.00  0.00    +0.000 C 
ATOM     30  C   UNL     1       6.013   3.980  15.772  0.00  0.00    +0.000 C 
ENDBRANCH  28  30
ENDBRANCH   1  28
BRANCH   9  31
ATOM     31  C   UNL     1       3.416   3.829  20.794  0.00  0.00    +0.000 C 
BRANCH  31  32
ATOM     32  C   UNL     1       2.421   2.692  20.514  0.00  0.00    +0.000 C 
ATOM     33  C   UNL     1       0.974   3.016  20.860  0.00  0.00    +0.000 C 
ENDBRANCH  31  32
ENDBRANCH   9  31
TORSDOF 11
ENDMDL
MODEL 9
REMARK VINA RESULT:      -6.8      1.339      1.611
REMARK  Name = 
REMARK  15 active torsions:
REMARK  status: ('A' for Active; 'I' for Inactive)
REMARK    1  A    between atoms: C_1  and  C_2
REMARK    2  A    between atoms: C_2  and  C_3
REMARK    3  A    between atoms: C_3  and  N_4
REMARK    4  A    between atoms: C_9  and  C_10
REMARK    5  A    between atoms: C_13  and  O_14
REMARK    6  A    between atoms: O_14  and  C_15
REMARK    7  A    between atoms: C_15  and  C_16
REMARK    8  A    between atoms: C_16  and  O_18
REMARK    9  A    between atoms: O_18  and  C_19
REMARK   10  A    between atoms: C_19  and  C_20
REMARK   11  A    between atoms: C_22  and  O_23
REMARK   12  A    between atoms: O_23  and  C_24
REMARK   13  A    between atoms: N_27  and  C_28
REMARK   14  A    between atoms: C_28  and  C_29
REMARK   15  A    between atoms: C_29  and  C_30
REMARK                            x       y       z     vdW  Elec       q    Type
REMARK                         _______ _______ _______ _____ _____    ______ ____
ROOT
ATOM      1  N   UNL     1       4.324   5.313  18.435  0.00  0.00    +0.000 N 
ATOM      2  C   UNL     1       3.698   6.546  18.206  0.00  0.00    +0.000 A 
ATOM      3  O   UNL     1       4.033   7.342  17.340  0.00  0.00    +0.000 OA
ATOM      4  C   UNL     1       2.623   6.806  19.110  0.00  0.00    +0.000 A 
ATOM      5  N   UNL     1       1.891   7.959  19.248  0.00  0.00    +0.000 N 
ATOM      6  C   UNL     1       1.080   7.861  20.365  0.00  0.00    +0.000 A 
ATOM      7  C   UNL     1       1.143   6.525  20.762  0.00  0.00    +0.000 A 
ATOM      8  C   UNL     1       2.204   5.921  20.058  0.00  0.00    +0.000 A 
ATOM      9  N   UNL     1       2.852   4.706  20.235  0.00  0.00    +0.000 N 
ATOM     10  C   UNL     1       3.949   4.380  19.420  0.00  0.00    +0.000 A 
ATOM     11  O   UNL     1       4.567   3.321  19.574  0.00  0.00    +0.000 OA
ATOM     12  H   UNL     1       2.018   8.801  18.698  0.00  0.00    +0.000 HD
ENDROOT
BRANCH   6  13
ATOM     13  C   UNL     1       0.446   9.011  21.043  0.00  0.00    +0.000 A 
ATOM     14  C   UNL     1       0.131   8.849  22.407  0.00  0.00    +0.000 A 
ATOM     15  C   UNL     1      -0.380   9.895  23.173  0.00  0.00    +0.000 A 
ATOM     16  C   UNL     1      -0.590  11.139  22.598  0.00  0.00    +0.000 A 
ATOM     17  C   UNL     1      -0.317  11.318  21.242  0.00  0.00    +0.000 A 
ATOM     18  C   UNL     1       0.222  10.275  20.458  0.00  0.00    +0.000 A 
BRANCH  18  19
ATOM     19  O   UNL     1       0.521  10.432  19.123  0.00  0.00    +0.000 OA
ATOM     20  C   UNL     1      -0.586  10.465  18.223  0.00  0.00    +0.000 C 
ENDBRANCH  18  19
BRANCH  16  21
ATOM     21  O   UNL     1      -1.102  12.083  23.443  0.00  0.00    +0.000 OA
BRANCH  21  22
ATOM     22  C   UNL     1      -2.000  13.031  22.875  0.00  0.00    +0.000 C 
BRANCH  22  23
ATOM     23  C   UNL     1      -1.508  14.443  23.144  0.00  0.00    +0.000 C 
ATOM     24  O   UNL     1      -0.415  14.751  23.598  0.00  0.00    +0.000 OA
BRANCH  23  25
ATOM     25  O   UNL     1      -2.528  15.320  22.895  0.00  0.00    +0.000 OA
BRANCH  25  26
ATOM     26  C   UNL     1      -2.661  16.388  23.844  0.00  0.00    +0.000 C 
ATOM     27  C   UNL     1      -3.485  15.874  25.012  0.00  0.00    +0.000 C 
ENDBRANCH  25  26
ENDBRANCH  23  25
ENDBRANCH  22  23
ENDBRANCH  21  22
ENDBRANCH  16  21
ENDBRANCH   6  13
BRANCH   1  28
ATOM     28  C   UNL     1       5.477   4.984  17.597  0.00  0.00    +0.000 C 
BRANCH  28  30
ATOM     29  C   UNL     1       5.702   4.712  15.098  0.00  0.00    +0.000 C 
ATOM     30  C   UNL     1       5.086   4.153  16.372  0.00  0.00    +0.000 C 
ENDBRANCH  28  30
ENDBRANCH   1  28
BRANCH   9  31
ATOM     31  C   UNL     1       2.510   3.807  21.342  0.00  0.00    +0.000 C 
BRANCH  31  32
ATOM     32  C   UNL     1       1.385   2.812  21.018  0.00  0.00    +0.000 C 
ATOM     33  C   UNL     1       0.824   2.928  19.606  0.00  0.00    +0.000 C 
ENDBRANCH  31  32
ENDBRANCH   9  31
TORSDOF 11
ENDMDL
