MODEL 1
REMARK VINA RESULT:      -7.4      0.000      0.000
REMARK  Name = 
REMARK  7 active torsions:
REMARK  status: ('A' for Active; 'I' for Inactive)
REMARK    1  A    between atoms: C_1  and  C_2
REMARK    2  A    between atoms: C_5  and  N_6
REMARK    3  A    between atoms: C_7  and  C_9
REMARK    4  A    between atoms: C_9  and  S_10
REMARK    5  A    between atoms: S_10  and  C_11
REMARK    6  A    between atoms: N_15  and  C_16
REMARK    7  A    between atoms: C_22  and  C_23
REMARK                            x       y       z     vdW  Elec       q    Type
REMARK                         _______ _______ _______ _____ _____    ______ ____
ROOT
ATOM      1  C   UNL     1       1.049   9.554  22.313  0.00  0.00    +0.000 C 
ENDROOT
BRANCH   1   3
ATOM      2  N   UNL     1       1.922   7.723  20.978  0.00  0.00    +0.000 N 
ATOM      3  C   UNL     1       0.769   8.323  21.466  0.00  0.00    +0.000 C 
ATOM      4  O   UNL     1      -0.384   7.941  21.278  0.00  0.00    +0.000 OA
ATOM      5  H   UNL     1       2.790   8.025  21.397  0.00  0.00    +0.000 HD
BRANCH   2  10
ATOM      6  C   UNL     1       2.374   3.155  17.518  0.00  0.00    +0.000 C 
ATOM      7  C   UNL     1       2.208   4.347  18.412  0.00  0.00    +0.000 A 
ATOM      8  C   UNL     1       1.837   4.195  19.743  0.00  0.00    +0.000 A 
ATOM      9  C   UNL     1       1.727   5.311  20.577  0.00  0.00    +0.000 A 
ATOM     10  C   UNL     1       1.993   6.605  20.111  0.00  0.00    +0.000 A 
ATOM     11  C   UNL     1       2.326   6.778  18.751  0.00  0.00    +0.000 A 
ATOM     12  C   UNL     1       2.616   8.100  18.089  0.00  0.00    +0.000 C 
ATOM     13  C   UNL     1       2.435   5.637  17.923  0.00  0.00    +0.000 A 
ENDBRANCH   2  10
ENDBRANCH   1   3
BRANCH   1  14
ATOM     14  S   UNL     1      -0.250  10.796  22.097  0.00  0.00    +0.000 S 
BRANCH  14  15
ATOM     15  C   UNL     1       0.450  11.845  20.905  0.00  0.00    +0.000 A 
ATOM     16  N   UNL     1       1.553  12.542  21.070  0.00  0.00    +0.000 NA
ATOM     17  N   UNL     1       1.928  12.949  19.817  0.00  0.00    +0.000 NA
ATOM     18  N   UNL     1       1.091  12.494  18.894  0.00  0.00    +0.000 NA
ATOM     19  N   UNL     1       0.090  11.868  19.569  0.00  0.00    +0.000 N 
BRANCH  19  20
ATOM     20  C   UNL     1      -1.047  11.369  18.899  0.00  0.00    +0.000 A 
ATOM     21  C   UNL     1      -0.982  10.262  18.049  0.00  0.00    +0.000 A 
ATOM     22  C   UNL     1      -2.123   9.865  17.357  0.00  0.00    +0.000 A 
ATOM     23  C   UNL     1      -3.292  10.583  17.549  0.00  0.00    +0.000 A 
ATOM     24  N   UNL     1      -3.397  11.628  18.400  0.00  0.00    +0.000 NA
ATOM     25  C   UNL     1      -2.277  11.990  19.072  0.00  0.00    +0.000 A 
ENDBRANCH  19  20
ENDBRANCH  14  15
ENDBRANCH   1  14
TORSDOF 5
ENDMDL
MODEL 2
REMARK VINA RESULT:      -7.3      4.158      7.924
REMARK  Name = 
REMARK  7 active torsions:
REMARK  status: ('A' for Active; 'I' for Inactive)
REMARK    1  A    between atoms: C_1  and  C_2
REMARK    2  A    between atoms: C_5  and  N_6
REMARK    3  A    between atoms: C_7  and  C_9
REMARK    4  A    between atoms: C_9  and  S_10
REMARK    5  A    between atoms: S_10  and  C_11
REMARK    6  A    between atoms: N_15  and  C_16
REMARK    7  A    between atoms: C_22  and  C_23
REMARK                            x       y       z     vdW  Elec       q    Type
REMARK                         _______ _______ _______ _____ _____    ______ ____
ROOT
ATOM      1  C   UNL     1       2.313   3.590  21.553  0.00  0.00    +0.000 C 
ENDROOT
BRANCH   1   3
ATOM      2  N   UNL     1       2.326   5.919  20.864  0.00  0.00    +0.000 N 
ATOM      3  C   UNL     1       1.608   4.730  20.836  0.00  0.00    +0.000 C 
ATOM      4  O   UNL     1       0.519   4.552  20.296  0.00  0.00    +0.000 OA
ATOM      5  H   UNL     1       3.291   5.847  21.153  0.00  0.00    +0.000 HD
BRANCH   2  10
ATOM      6  C   UNL     1       0.495  10.928  18.720  0.00  0.00    +0.000 C 
ATOM      7  C   UNL     1       1.010   9.645  19.300  0.00  0.00    +0.000 A 
ATOM      8  C   UNL     1       0.700   9.276  20.604  0.00  0.00    +0.000 A 
ATOM      9  C   UNL     1       1.150   8.057  21.118  0.00  0.00    +0.000 A 
ATOM     10  C   UNL     1       1.913   7.171  20.345  0.00  0.00    +0.000 A 
ATOM     11  C   UNL     1       2.274   7.554  19.036  0.00  0.00    +0.000 A 
ATOM     12  C   UNL     1       3.107   6.730  18.089  0.00  0.00    +0.000 C 
ATOM     13  C   UNL     1       1.806   8.789  18.532  0.00  0.00    +0.000 A 
ENDBRANCH   2  10
ENDBRANCH   1   3
BRANCH   1  14
ATOM     14  S   UNL     1       3.759   3.035  20.616  0.00  0.00    +0.000 S 
BRANCH  14  15
ATOM     15  C   UNL     1       3.064   2.671  19.067  0.00  0.00    +0.000 A 
ATOM     16  N   UNL     1       1.892   2.104  18.881  0.00  0.00    +0.000 NA
ATOM     17  N   UNL     1       1.585   2.307  17.562  0.00  0.00    +0.000 NA
ATOM     18  N   UNL     1       2.532   3.004  16.949  0.00  0.00    +0.000 NA
ATOM     19  N   UNL     1       3.528   3.168  17.861  0.00  0.00    +0.000 N 
BRANCH  19  20
ATOM     20  C   UNL     1       4.757   3.764  17.507  0.00  0.00    +0.000 A 
ATOM     21  C   UNL     1       5.099   4.030  16.179  0.00  0.00    +0.000 A 
ATOM     22  C   UNL     1       6.357   4.549  15.888  0.00  0.00    +0.000 A 
ATOM     23  C   UNL     1       7.227   4.793  16.938  0.00  0.00    +0.000 A 
ATOM     24  N   UNL     1       6.908   4.591  18.236  0.00  0.00    +0.000 NA
ATOM     25  C   UNL     1       5.673   4.096  18.498  0.00  0.00    +0.000 A 
ENDBRANCH  19  20
ENDBRANCH  14  15
ENDBRANCH   1  14
TORSDOF 5
ENDMDL
MODEL 3
REMARK VINA RESULT:      -7.2      3.606      8.134
REMARK  Name = 
REMARK  7 active torsions:
REMARK  status: ('A' for Active; 'I' for Inactive)
REMARK    1  A    between atoms: C_1  and  C_2
REMARK    2  A    between atoms: C_5  and  N_6
REMARK    3  A    between atoms: C_7  and  C_9
REMARK    4  A    between atoms: C_9  and  S_10
REMARK    5  A    between atoms: S_10  and  C_11
REMARK    6  A    between atoms: N_15  and  C_16
REMARK    7  A    between atoms: C_22  and  C_23
REMARK                            x       y       z     vdW  Elec       q    Type
REMARK                         _______ _______ _______ _____ _____    ______ ____
ROOT
ATOM      1  C   UNL     1       2.934   7.267  18.093  0.00  0.00    +0.000 C 
ENDROOT
BRANCH   1   3
ATOM      2  N   UNL     1       1.442   8.571  19.497  0.00  0.00    +0.000 N 
ATOM      3  C   UNL     1       2.112   8.532  18.281  0.00  0.00    +0.000 C 
ATOM      4  O   UNL     1       2.092   9.401  17.413  0.00  0.00    +0.000 OA
ATOM      5  H   UNL     1       1.731   7.890  20.184  0.00  0.00    +0.000 HD
BRANCH   2  10
ATOM      6  C   UNL     1      -2.062  12.775  21.255  0.00  0.00    +0.000 C 
ATOM      7  C   UNL     1      -1.185  11.648  20.798  0.00  0.00    +0.000 A 
ATOM      8  C   UNL     1      -1.115  11.298  19.454  0.00  0.00    +0.000 A 
ATOM      9  C   UNL     1      -0.262  10.274  19.035  0.00  0.00    +0.000 A 
ATOM     10  C   UNL     1       0.549   9.577  19.940  0.00  0.00    +0.000 A 
ATOM     11  C   UNL     1       0.453   9.890  21.313  0.00  0.00    +0.000 A 
ATOM     12  C   UNL     1       1.235   9.221  22.413  0.00  0.00    +0.000 C 
ATOM     13  C   UNL     1      -0.413  10.932  21.718  0.00  0.00    +0.000 A 
ENDBRANCH   2  10
ENDBRANCH   1   3
BRANCH   1  14
ATOM     14  S   UNL     1       2.766   6.170  19.524  0.00  0.00    +0.000 S 
BRANCH  14  15
ATOM     15  C   UNL     1       2.438   4.642  18.767  0.00  0.00    +0.000 A 
ATOM     16  N   UNL     1       1.282   4.017  18.801  0.00  0.00    +0.000 NA
ATOM     17  N   UNL     1       1.348   3.056  17.829  0.00  0.00    +0.000 NA
ATOM     18  N   UNL     1       2.510   3.099  17.189  0.00  0.00    +0.000 NA
ATOM     19  N   UNL     1       3.257   4.038  17.830  0.00  0.00    +0.000 N 
BRANCH  19  20
ATOM     20  C   UNL     1       4.608   4.259  17.488  0.00  0.00    +0.000 A 
ATOM     21  C   UNL     1       5.028   4.388  16.162  0.00  0.00    +0.000 A 
ATOM     22  C   UNL     1       6.385   4.528  15.885  0.00  0.00    +0.000 A 
ATOM     23  C   UNL     1       7.275   4.543  16.948  0.00  0.00    +0.000 A 
ATOM     24  N   UNL     1       6.895   4.467  18.243  0.00  0.00    +0.000 NA
ATOM     25  C   UNL     1       5.568   4.344  18.490  0.00  0.00    +0.000 A 
ENDBRANCH  19  20
ENDBRANCH  14  15
ENDBRANCH   1  14
TORSDOF 5
ENDMDL
MODEL 4
REMARK VINA RESULT:      -7.2      3.592      8.121
REMARK  Name = 
REMARK  7 active torsions:
REMARK  status: ('A' for Active; 'I' for Inactive)
REMARK    1  A    between atoms: C_1  and  C_2
REMARK    2  A    between atoms: C_5  and  N_6
REMARK    3  A    between atoms: C_7  and  C_9
REMARK    4  A    between atoms: C_9  and  S_10
REMARK    5  A    between atoms: S_10  and  C_11
REMARK    6  A    between atoms: N_15  and  C_16
REMARK    7  A    between atoms: C_22  and  C_23
REMARK                            x       y       z     vdW  Elec       q    Type
REMARK                         _______ _______ _______ _____ _____    ______ ____
ROOT
ATOM      1  C   UNL     1       2.619   7.588  17.821  0.00  0.00    +0.000 C 
ENDROOT
BRANCH   1   3
ATOM      2  N   UNL     1       1.123   8.888  19.224  0.00  0.00    +0.000 N 
ATOM      3  C   UNL     1       2.025   8.943  18.170  0.00  0.00    +0.000 C 
ATOM      4  O   UNL     1       2.358   9.951  17.551  0.00  0.00    +0.000 OA
ATOM      5  H   UNL     1       1.123   8.033  19.763  0.00  0.00    +0.000 HD
BRANCH   2  10
ATOM      6  C   UNL     1      -2.073  13.129  21.424  0.00  0.00    +0.000 C 
ATOM      7  C   UNL     1      -1.209  12.056  20.832  0.00  0.00    +0.000 A 
ATOM      8  C   UNL     1      -0.085  11.591  21.507  0.00  0.00    +0.000 A 
ATOM      9  C   UNL     1       0.687  10.561  20.964  0.00  0.00    +0.000 A 
ATOM     10  C   UNL     1       0.357   9.961  19.742  0.00  0.00    +0.000 A 
ATOM     11  C   UNL     1      -0.754  10.455  19.025  0.00  0.00    +0.000 A 
ATOM     12  C   UNL     1      -1.226   9.937  17.691  0.00  0.00    +0.000 C 
ATOM     13  C   UNL     1      -1.526  11.495  19.591  0.00  0.00    +0.000 A 
ENDBRANCH   2  10
ENDBRANCH   1   3
BRANCH   1  14
ATOM     14  S   UNL     1       2.726   6.533  19.288  0.00  0.00    +0.000 S 
BRANCH  14  15
ATOM     15  C   UNL     1       2.412   4.960  18.623  0.00  0.00    +0.000 A 
ATOM     16  N   UNL     1       1.244   4.356  18.637  0.00  0.00    +0.000 NA
ATOM     17  N   UNL     1       1.346   3.327  17.739  0.00  0.00    +0.000 NA
ATOM     18  N   UNL     1       2.540   3.309  17.162  0.00  0.00    +0.000 NA
ATOM     19  N   UNL     1       3.269   4.280  17.775  0.00  0.00    +0.000 N 
BRANCH  19  20
ATOM     20  C   UNL     1       4.640   4.458  17.493  0.00  0.00    +0.000 A 
ATOM     21  C   UNL     1       5.107   4.699  16.199  0.00  0.00    +0.000 A 
ATOM     22  C   UNL     1       6.478   4.789  15.973  0.00  0.00    +0.000 A 
ATOM     23  C   UNL     1       7.333   4.645  17.053  0.00  0.00    +0.000 A 
ATOM     24  N   UNL     1       6.910   4.457  18.323  0.00  0.00    +0.000 NA
ATOM     25  C   UNL     1       5.571   4.385  18.522  0.00  0.00    +0.000 A 
ENDBRANCH  19  20
ENDBRANCH  14  15
ENDBRANCH   1  14
TORSDOF 5
ENDMDL
MODEL 5
REMARK VINA RESULT:      -7.2      3.587      8.127
REMARK  Name = 
REMARK  7 active torsions:
REMARK  status: ('A' for Active; 'I' for Inactive)
REMARK    1  A    between atoms: C_1  and  C_2
REMARK    2  A    between atoms: C_5  and  N_6
REMARK    3  A    between atoms: C_7  and  C_9
REMARK    4  A    between atoms: C_9  and  S_10
REMARK    5  A    between atoms: S_10  and  C_11
REMARK    6  A    between atoms: N_15  and  C_16
REMARK    7  A    between atoms: C_22  and  C_23
REMARK                            x       y       z     vdW  Elec       q    Type
REMARK                         _______ _______ _______ _____ _____    ______ ____
ROOT
ATOM      1  C   UNL     1       2.495   8.100  17.748  0.00  0.00    +0.000 C 
ENDROOT
BRANCH   1   3
ATOM      2  N   UNL     1       0.667   9.225  18.884  0.00  0.00    +0.000 N 
ATOM      3  C   UNL     1       1.779   9.402  18.071  0.00  0.00    +0.000 C 
ATOM      4  O   UNL     1       2.198  10.472  17.636  0.00  0.00    +0.000 OA
ATOM      5  H   UNL     1       0.584   8.323  19.330  0.00  0.00    +0.000 HD
BRANCH   2  10
ATOM      6  C   UNL     1      -2.909  13.410  20.541  0.00  0.00    +0.000 C 
ATOM      7  C   UNL     1      -2.012  12.286  20.115  0.00  0.00    +0.000 A 
ATOM      8  C   UNL     1      -2.006  11.838  18.798  0.00  0.00    +0.000 A 
ATOM      9  C   UNL     1      -1.135  10.819  18.404  0.00  0.00    +0.000 A 
ATOM     10  C   UNL     1      -0.241  10.226  19.307  0.00  0.00    +0.000 A 
ATOM     11  C   UNL     1      -0.270  10.640  20.655  0.00  0.00    +0.000 A 
ATOM     12  C   UNL     1       0.604  10.088  21.751  0.00  0.00    +0.000 C 
ATOM     13  C   UNL     1      -1.155  11.674  21.035  0.00  0.00    +0.000 A 
ENDBRANCH   2  10
ENDBRANCH   1   3
BRANCH   1  14
ATOM     14  S   UNL     1       2.399   6.948  19.141  0.00  0.00    +0.000 S 
BRANCH  14  15
ATOM     15  C   UNL     1       2.692   5.422  18.365  0.00  0.00    +0.000 A 
ATOM     16  N   UNL     1       1.759   4.618  17.907  0.00  0.00    +0.000 NA
ATOM     17  N   UNL     1       2.402   3.724  17.093  0.00  0.00    +0.000 NA
ATOM     18  N   UNL     1       3.702   3.984  17.027  0.00  0.00    +0.000 NA
ATOM     19  N   UNL     1       3.926   5.002  17.901  0.00  0.00    +0.000 N 
BRANCH  19  20
ATOM     20  C   UNL     1       5.234   5.454  18.181  0.00  0.00    +0.000 A 
ATOM     21  C   UNL     1       5.948   6.259  17.290  0.00  0.00    +0.000 A 
ATOM     22  C   UNL     1       7.262   6.609  17.589  0.00  0.00    +0.000 A 
ATOM     23  C   UNL     1       7.812   6.148  18.774  0.00  0.00    +0.000 A 
ATOM     24  N   UNL     1       7.131   5.407  19.677  0.00  0.00    +0.000 NA
ATOM     25  C   UNL     1       5.850   5.088  19.371  0.00  0.00    +0.000 A 
ENDBRANCH  19  20
ENDBRANCH  14  15
ENDBRANCH   1  14
TORSDOF 5
ENDMDL
MODEL 6
REMARK VINA RESULT:      -7.1      3.632      8.023
REMARK  Name = 
REMARK  7 active torsions:
REMARK  status: ('A' for Active; 'I' for Inactive)
REMARK    1  A    between atoms: C_1  and  C_2
REMARK    2  A    between atoms: C_5  and  N_6
REMARK    3  A    between atoms: C_7  and  C_9
REMARK    4  A    between atoms: C_9  and  S_10
REMARK    5  A    between atoms: S_10  and  C_11
REMARK    6  A    between atoms: N_15  and  C_16
REMARK    7  A    between atoms: C_22  and  C_23
REMARK                            x       y       z     vdW  Elec       q    Type
REMARK                         _______ _______ _______ _____ _____    ______ ____
ROOT
ATOM      1  C   UNL     1       2.623   8.078  17.786  0.00  0.00    +0.000 C 
ENDROOT
BRANCH   1   3
ATOM      2  N   UNL     1       0.927   9.250  19.069  0.00  0.00    +0.000 N 
ATOM      3  C   UNL     1       1.913   9.385  18.100  0.00  0.00    +0.000 C 
ATOM      4  O   UNL     1       2.232  10.425  17.529  0.00  0.00    +0.000 OA
ATOM      5  H   UNL     1       0.936   8.386  19.592  0.00  0.00    +0.000 HD
BRANCH   2  10
ATOM      6  C   UNL     1      -2.713  13.233  21.050  0.00  0.00    +0.000 C 
ATOM      7  C   UNL     1      -1.736  12.229  20.515  0.00  0.00    +0.000 A 
ATOM      8  C   UNL     1      -0.590  11.897  21.229  0.00  0.00    +0.000 A 
ATOM      9  C   UNL     1       0.291  10.929  20.740  0.00  0.00    +0.000 A 
ATOM     10  C   UNL     1       0.050  10.260  19.532  0.00  0.00    +0.000 A 
ATOM     11  C   UNL     1      -1.085  10.622  18.775  0.00  0.00    +0.000 A 
ATOM     12  C   UNL     1      -1.471  10.018  17.449  0.00  0.00    +0.000 C 
ATOM     13  C   UNL     1      -1.966  11.600  19.287  0.00  0.00    +0.000 A 
ENDBRANCH   2  10
ENDBRANCH   1   3
BRANCH   1  14
ATOM     14  S   UNL     1       2.485   6.919  19.169  0.00  0.00    +0.000 S 
BRANCH  14  15
ATOM     15  C   UNL     1       2.738   5.391  18.384  0.00  0.00    +0.000 A 
ATOM     16  N   UNL     1       1.786   4.547  18.052  0.00  0.00    +0.000 NA
ATOM     17  N   UNL     1       2.359   3.662  17.178  0.00  0.00    +0.000 NA
ATOM     18  N   UNL     1       3.630   3.965  16.953  0.00  0.00    +0.000 NA
ATOM     19  N   UNL     1       3.922   5.005  17.780  0.00  0.00    +0.000 N 
BRANCH  19  20
ATOM     20  C   UNL     1       5.236   5.506  17.894  0.00  0.00    +0.000 A 
ATOM     21  C   UNL     1       6.058   5.196  18.980  0.00  0.00    +0.000 A 
ATOM     22  C   UNL     1       7.317   5.783  19.074  0.00  0.00    +0.000 A 
ATOM     23  C   UNL     1       7.714   6.652  18.070  0.00  0.00    +0.000 A 
ATOM     24  N   UNL     1       6.960   6.935  16.984  0.00  0.00    +0.000 NA
ATOM     25  C   UNL     1       5.743   6.343  16.908  0.00  0.00    +0.000 A 
ENDBRANCH  19  20
ENDBRANCH  14  15
ENDBRANCH   1  14
TORSDOF 5
ENDMDL
MODEL 7
REMARK VINA RESULT:      -7.1      4.606      8.300
REMARK  Name = 
REMARK  7 active torsions:
REMARK  status: ('A' for Active; 'I' for Inactive)
REMARK    1  A    between atoms: C_1  and  C_2
REMARK    2  A    between atoms: C_5  and  N_6
REMARK    3  A    between atoms: C_7  and  C_9
REMARK    4  A    between atoms: C_9  and  S_10
REMARK    5  A    between atoms: S_10  and  C_11
REMARK    6  A    between atoms: N_15  and  C_16
REMARK    7  A    between atoms: C_22  and  C_23
REMARK                            x       y       z     vdW  Elec       q    Type
REMARK                         _______ _______ _______ _____ _____    ______ ____
ROOT
ATOM      1  C   UNL     1       3.205   4.678  19.720  0.00  0.00    +0.000 C 
ENDROOT
BRANCH   1   3
ATOM      2  N   UNL     1       2.548   7.014  19.804  0.00  0.00    +0.000 N 
ATOM      3  C   UNL     1       2.463   5.836  19.073  0.00  0.00    +0.000 C 
ATOM      4  O   UNL     1       1.875   5.685  18.005  0.00  0.00    +0.000 OA
ATOM      5  H   UNL     1       3.241   7.030  20.538  0.00  0.00    +0.000 HD
BRANCH   2  10
ATOM      6  C   UNL     1       0.130  12.093  18.623  0.00  0.00    +0.000 C 
ATOM      7  C   UNL     1       0.723  10.746  18.910  0.00  0.00    +0.000 A 
ATOM      8  C   UNL     1       1.476  10.079  17.951  0.00  0.00    +0.000 A 
ATOM      9  C   UNL     1       2.059   8.843  18.245  0.00  0.00    +0.000 A 
ATOM     10  C   UNL     1       1.915   8.245  19.504  0.00  0.00    +0.000 A 
ATOM     11  C   UNL     1       1.115   8.890  20.471  0.00  0.00    +0.000 A 
ATOM     12  C   UNL     1       0.841   8.369  21.858  0.00  0.00    +0.000 C 
ATOM     13  C   UNL     1       0.536  10.140  20.157  0.00  0.00    +0.000 A 
ENDBRANCH   2  10
ENDBRANCH   1   3
BRANCH   1  14
ATOM     14  S   UNL     1       4.247   3.823  18.510  0.00  0.00    +0.000 S 
BRANCH  14  15
ATOM     15  C   UNL     1       5.779   4.606  18.740  0.00  0.00    +0.000 A 
ATOM     16  N   UNL     1       6.302   4.912  19.907  0.00  0.00    +0.000 NA
ATOM     17  N   UNL     1       7.620   5.191  19.664  0.00  0.00    +0.000 NA
ATOM     18  N   UNL     1       7.915   5.038  18.380  0.00  0.00    +0.000 NA
ATOM     19  N   UNL     1       6.740   4.757  17.755  0.00  0.00    +0.000 N 
BRANCH  19  20
ATOM     20  C   UNL     1       6.662   4.655  16.350  0.00  0.00    +0.000 A 
ATOM     21  C   UNL     1       5.825   3.732  15.717  0.00  0.00    +0.000 A 
ATOM     22  C   UNL     1       5.850   3.627  14.329  0.00  0.00    +0.000 A 
ATOM     23  C   UNL     1       6.704   4.457  13.622  0.00  0.00    +0.000 A 
ATOM     24  N   UNL     1       7.490   5.391  14.202  0.00  0.00    +0.000 NA
ATOM     25  C   UNL     1       7.442   5.484  15.554  0.00  0.00    +0.000 A 
ENDBRANCH  19  20
ENDBRANCH  14  15
ENDBRANCH   1  14
TORSDOF 5
ENDMDL
MODEL 8
REMARK VINA RESULT:      -7.0      4.410      7.924
REMARK  Name = 
REMARK  7 active torsions:
REMARK  status: ('A' for Active; 'I' for Inactive)
REMARK    1  A    between atoms: C_1  and  C_2
REMARK    2  A    between atoms: C_5  and  N_6
REMARK    3  A    between atoms: C_7  and  C_9
REMARK    4  A    between atoms: C_9  and  S_10
REMARK    5  A    between atoms: S_10  and  C_11
REMARK    6  A    between atoms: N_15  and  C_16
REMARK    7  A    between atoms: C_22  and  C_23
REMARK                            x       y       z     vdW  Elec       q    Type
REMARK                         _______ _______ _______ _____ _____    ______ ____
ROOT
ATOM      1  C   UNL     1       3.236   3.606  20.239  0.00  0.00    +0.000 C 
ENDROOT
BRANCH   1   3
ATOM      2  N   UNL     1       2.777   5.983  20.059  0.00  0.00    +0.000 N 
ATOM      3  C   UNL     1       2.207   4.719  20.124  0.00  0.00    +0.000 C 
ATOM      4  O   UNL     1       1.006   4.461  20.087  0.00  0.00    +0.000 OA
ATOM      5  H   UNL     1       3.771   6.012  19.882  0.00  0.00    +0.000 HD
BRANCH   2  10
ATOM      6  C   UNL     1      -0.156  10.921  19.830  0.00  0.00    +0.000 C 
ATOM      7  C   UNL     1       0.645   9.656  19.912  0.00  0.00    +0.000 A 
ATOM      8  C   UNL     1       0.615   8.866  21.056  0.00  0.00    +0.000 A 
ATOM      9  C   UNL     1       1.332   7.667  21.103  0.00  0.00    +0.000 A 
ATOM     10  C   UNL     1       2.090   7.221  20.013  0.00  0.00    +0.000 A 
ATOM     11  C   UNL     1       2.167   8.037  18.865  0.00  0.00    +0.000 A 
ATOM     12  C   UNL     1       2.956   7.715  17.622  0.00  0.00    +0.000 C 
ATOM     13  C   UNL     1       1.432   9.244  18.833  0.00  0.00    +0.000 A 
ENDBRANCH   2  10
ENDBRANCH   1   3
BRANCH   1  14
ATOM     14  S   UNL     1       4.108   3.368  18.669  0.00  0.00    +0.000 S 
BRANCH  14  15
ATOM     15  C   UNL     1       5.480   4.415  18.859  0.00  0.00    +0.000 A 
ATOM     16  N   UNL     1       5.947   4.844  20.011  0.00  0.00    +0.000 NA
ATOM     17  N   UNL     1       7.194   5.342  19.745  0.00  0.00    +0.000 NA
ATOM     18  N   UNL     1       7.504   5.203  18.463  0.00  0.00    +0.000 NA
ATOM     19  N   UNL     1       6.393   4.701  17.859  0.00  0.00    +0.000 N 
BRANCH  19  20
ATOM     20  C   UNL     1       6.327   4.543  16.459  0.00  0.00    +0.000 A 
ATOM     21  C   UNL     1       7.418   4.808  15.628  0.00  0.00    +0.000 A 
ATOM     22  C   UNL     1       7.266   4.707  14.248  0.00  0.00    +0.000 A 
ATOM     23  C   UNL     1       6.030   4.334  13.748  0.00  0.00    +0.000 A 
ATOM     24  N   UNL     1       4.969   4.025  14.527  0.00  0.00    +0.000 NA
ATOM     25  C   UNL     1       5.142   4.119  15.868  0.00  0.00    +0.000 A 
ENDBRANCH  19  20
ENDBRANCH  14  15
ENDBRANCH   1  14
TORSDOF 5
ENDMDL
MODEL 9
REMARK VINA RESULT:      -7.0      4.443      7.863
REMARK  Name = 
REMARK  7 active torsions:
REMARK  status: ('A' for Active; 'I' for Inactive)
REMARK    1  A    between atoms: C_1  and  C_2
REMARK    2  A    between atoms: C_5  and  N_6
REMARK    3  A    between atoms: C_7  and  C_9
REMARK    4  A    between atoms: C_9  and  S_10
REMARK    5  A    between atoms: S_10  and  C_11
REMARK    6  A    between atoms: N_15  and  C_16
REMARK    7  A    between atoms: C_22  and  C_23
REMARK                            x       y       z     vdW  Elec       q    Type
REMARK                         _______ _______ _______ _____ _____    ______ ____
ROOT
ATOM      1  C   UNL     1       2.239   3.545  21.598  0.00  0.00    +0.000 C 
ENDROOT
BRANCH   1   3
ATOM      2  N   UNL     1       2.545   5.709  20.541  0.00  0.00    +0.000 N 
ATOM      3  C   UNL     1       1.674   4.641  20.709  0.00  0.00    +0.000 C 
ATOM      4  O   UNL     1       0.557   4.529  20.210  0.00  0.00    +0.000 OA
ATOM      5  H   UNL     1       3.499   5.554  20.834  0.00  0.00    +0.000 HD
BRANCH   2  10
ATOM      6  C   UNL     1       1.669  10.624  17.691  0.00  0.00    +0.000 C 
ATOM      7  C   UNL     1       1.859   9.323  18.413  0.00  0.00    +0.000 A 
ATOM      8  C   UNL     1       2.542   8.270  17.816  0.00  0.00    +0.000 A 
ATOM      9  C   UNL     1       2.750   7.077  18.515  0.00  0.00    +0.000 A 
ATOM     10  C   UNL     1       2.290   6.906  19.828  0.00  0.00    +0.000 A 
ATOM     11  C   UNL     1       1.554   7.950  20.427  0.00  0.00    +0.000 A 
ATOM     12  C   UNL     1       0.972   7.915  21.816  0.00  0.00    +0.000 C 
ATOM     13  C   UNL     1       1.357   9.150  19.707  0.00  0.00    +0.000 A 
ENDBRANCH   2  10
ENDBRANCH   1   3
BRANCH   1  14
ATOM     14  S   UNL     1       3.598   2.679  20.772  0.00  0.00    +0.000 S 
BRANCH  14  15
ATOM     15  C   UNL     1       3.012   2.566  19.141  0.00  0.00    +0.000 A 
ATOM     16  N   UNL     1       1.875   2.010  18.786  0.00  0.00    +0.000 NA
ATOM     17  N   UNL     1       1.641   2.425  17.503  0.00  0.00    +0.000 NA
ATOM     18  N   UNL     1       2.599   3.240  17.079  0.00  0.00    +0.000 NA
ATOM     19  N   UNL     1       3.530   3.271  18.070  0.00  0.00    +0.000 N 
BRANCH  19  20
ATOM     20  C   UNL     1       4.756   3.950  17.903  0.00  0.00    +0.000 A 
ATOM     21  C   UNL     1       5.395   4.602  18.960  0.00  0.00    +0.000 A 
ATOM     22  C   UNL     1       6.563   5.319  18.715  0.00  0.00    +0.000 A 
ATOM     23  C   UNL     1       7.057   5.348  17.421  0.00  0.00    +0.000 A 
ATOM     24  N   UNL     1       6.488   4.689  16.387  0.00  0.00    +0.000 NA
ATOM     25  C   UNL     1       5.358   3.988  16.651  0.00  0.00    +0.000 A 
ENDBRANCH  19  20
ENDBRANCH  14  15
ENDBRANCH   1  14
TORSDOF 5
ENDMDL
