MODEL 1
REMARK VINA RESULT:      -8.5      0.000      0.000
REMARK  Name = 
REMARK  5 active torsions:
REMARK  status: ('A' for Active; 'I' for Inactive)
REMARK    1  A    between atoms: C_1  and  N_2
REMARK    2  A    between atoms: C_7  and  C_8
REMARK    3  A    between atoms: N_10  and  C_11
REMARK    4  A    between atoms: N_13  and  C_14
REMARK    5  A    between atoms: C_25  and  C_26
REMARK                            x       y       z     vdW  Elec       q    Type
REMARK                         _______ _______ _______ _____ _____    ______ ____
ROOT
ATOM      1  C   UNL     1       2.123   8.800  18.213  0.00  0.00    +0.000 C 
ATOM      2  O   UNL     1       2.070   9.445  17.173  0.00  0.00    +0.000 OA
ATOM      3  N   UNL     1       1.427   9.171  19.354  0.00  0.00    +0.000 N 
ATOM      4  H   UNL     1       1.420   8.545  20.146  0.00  0.00    +0.000 HD
ENDROOT
BRANCH   1  11
ATOM      5  C   UNL     1       4.442   2.121  20.030  0.00  0.00    +0.000 C 
ATOM      6  N   UNL     1       4.138   3.462  19.590  0.00  0.00    +0.000 N 
ATOM      7  N   UNL     1       4.915   3.971  18.604  0.00  0.00    +0.000 NA
ATOM      8  C   UNL     1       4.404   5.179  18.336  0.00  0.00    +0.000 A 
ATOM      9  C   UNL     1       4.801   6.133  17.383  0.00  0.00    +0.000 A 
ATOM     10  C   UNL     1       4.023   7.319  17.379  0.00  0.00    +0.000 A 
ATOM     11  C   UNL     1       2.926   7.543  18.274  0.00  0.00    +0.000 A 
ATOM     12  C   UNL     1       2.501   6.582  19.224  0.00  0.00    +0.000 A 
ATOM     13  C   UNL     1       3.280   5.422  19.205  0.00  0.00    +0.000 A 
ATOM     14  C   UNL     1       3.103   4.291  19.975  0.00  0.00    +0.000 A 
BRANCH  14  15
ATOM     15  C   UNL     1       1.946   4.086  20.951  0.00  0.00    +0.000 C 
ATOM     16  C   UNL     1       0.787   3.187  20.584  0.00  0.00    +0.000 C 
ATOM     17  C   UNL     1       1.705   2.795  21.691  0.00  0.00    +0.000 C 
ENDBRANCH  14  15
ENDBRANCH   1  11
BRANCH   3  18
ATOM     18  C   UNL     1       0.624  10.420  19.364  0.00  0.00    +0.000 C 
ATOM     19  C   UNL     1      -0.831  10.286  19.861  0.00  0.00    +0.000 C 
ATOM     20  N   UNL     1      -0.625  11.536  20.527  0.00  0.00    +0.000 N 
ATOM     21  C   UNL     1       0.797  11.375  20.561  0.00  0.00    +0.000 C 
BRANCH  20  22
ATOM     22  C   UNL     1      -1.469  12.437  21.201  0.00  0.00    +0.000 A 
ATOM     23  C   UNL     1      -2.220  11.955  22.287  0.00  0.00    +0.000 A 
ATOM     24  C   UNL     1      -3.016  12.827  23.012  0.00  0.00    +0.000 A 
ATOM     25 CL   UNL     1      -3.895  12.280  24.379  0.00  0.00    +0.000 Cl
ATOM     26  N   UNL     1      -3.150  14.135  22.740  0.00  0.00    +0.000 NA
ATOM     27  C   UNL     1      -2.432  14.591  21.689  0.00  0.00    +0.000 A 
ATOM     28  C   UNL     1      -1.587  13.807  20.905  0.00  0.00    +0.000 A 
ATOM     29 CL   UNL     1      -0.774  14.591  19.602  0.00  0.00    +0.000 Cl
ENDBRANCH  20  22
ENDBRANCH   3  18
TORSDOF 4
ENDMDL
MODEL 2
REMARK VINA RESULT:      -8.4      0.786      1.746
REMARK  Name = 
REMARK  5 active torsions:
REMARK  status: ('A' for Active; 'I' for Inactive)
REMARK    1  A    between atoms: C_1  and  N_2
REMARK    2  A    between atoms: C_7  and  C_8
REMARK    3  A    between atoms: N_10  and  C_11
REMARK    4  A    between atoms: N_13  and  C_14
REMARK    5  A    between atoms: C_25  and  C_26
REMARK                            x       y       z     vdW  Elec       q    Type
REMARK                         _______ _______ _______ _____ _____    ______ ____
ROOT
ATOM      1  C   UNL     1       2.231   8.701  18.130  0.00  0.00    +0.000 C 
ATOM      2  O   UNL     1       2.230   9.364  17.101  0.00  0.00    +0.000 OA
ATOM      3  N   UNL     1       1.489   9.059  19.246  0.00  0.00    +0.000 N 
ATOM      4  H   UNL     1       1.440   8.420  20.026  0.00  0.00    +0.000 HD
ENDROOT
BRANCH   1  11
ATOM      5  C   UNL     1       4.482   2.024  20.039  0.00  0.00    +0.000 C 
ATOM      6  N   UNL     1       4.190   3.361  19.578  0.00  0.00    +0.000 N 
ATOM      7  N   UNL     1       4.961   3.842  18.573  0.00  0.00    +0.000 NA
ATOM      8  C   UNL     1       4.463   5.051  18.290  0.00  0.00    +0.000 A 
ATOM      9  C   UNL     1       4.860   5.982  17.315  0.00  0.00    +0.000 A 
ATOM     10  C   UNL     1       4.099   7.179  17.299  0.00  0.00    +0.000 A 
ATOM     11  C   UNL     1       3.017   7.434  18.203  0.00  0.00    +0.000 A 
ATOM     12  C   UNL     1       2.592   6.497  19.177  0.00  0.00    +0.000 A 
ATOM     13  C   UNL     1       3.355   5.326  19.169  0.00  0.00    +0.000 A 
ATOM     14  C   UNL     1       3.172   4.212  19.961  0.00  0.00    +0.000 A 
BRANCH  14  15
ATOM     15  C   UNL     1       2.025   4.041  20.956  0.00  0.00    +0.000 C 
ATOM     16  C   UNL     1       0.775   3.290  20.558  0.00  0.00    +0.000 C 
ATOM     17  C   UNL     1       1.677   2.723  21.601  0.00  0.00    +0.000 C 
ENDBRANCH  14  15
ENDBRANCH   1  11
BRANCH   3  18
ATOM     18  C   UNL     1       0.699  10.317  19.243  0.00  0.00    +0.000 C 
ATOM     19  C   UNL     1      -0.686  10.249  19.920  0.00  0.00    +0.000 C 
ATOM     20  N   UNL     1      -0.395  11.548  20.446  0.00  0.00    +0.000 N 
ATOM     21  C   UNL     1       1.020  11.369  20.323  0.00  0.00    +0.000 C 
BRANCH  20  22
ATOM     22  C   UNL     1      -1.147  12.517  21.135  0.00  0.00    +0.000 A 
ATOM     23  C   UNL     1      -1.375  13.751  20.501  0.00  0.00    +0.000 A 
ATOM     24  C   UNL     1      -2.161  14.707  21.124  0.00  0.00    +0.000 A 
ATOM     25 CL   UNL     1      -2.507  16.196  20.348  0.00  0.00    +0.000 Cl
ATOM     26  N   UNL     1      -2.723  14.556  22.333  0.00  0.00    +0.000 NA
ATOM     27  C   UNL     1      -2.493  13.371  22.942  0.00  0.00    +0.000 A 
ATOM     28  C   UNL     1      -1.735  12.333  22.399  0.00  0.00    +0.000 A 
ATOM     29 CL   UNL     1      -1.557  10.909  23.354  0.00  0.00    +0.000 Cl
ENDBRANCH  20  22
ENDBRANCH   3  18
TORSDOF 4
ENDMDL
MODEL 3
REMARK VINA RESULT:      -8.2      1.249      1.937
REMARK  Name = 
REMARK  5 active torsions:
REMARK  status: ('A' for Active; 'I' for Inactive)
REMARK    1  A    between atoms: C_1  and  N_2
REMARK    2  A    between atoms: C_7  and  C_8
REMARK    3  A    between atoms: N_10  and  C_11
REMARK    4  A    between atoms: N_13  and  C_14
REMARK    5  A    between atoms: C_25  and  C_26
REMARK                            x       y       z     vdW  Elec       q    Type
REMARK                         _______ _______ _______ _____ _____    ______ ____
ROOT
ATOM      1  C   UNL     1       2.397   8.838  17.933  0.00  0.00    +0.000 C 
ATOM      2  O   UNL     1       2.866   9.822  17.376  0.00  0.00    +0.000 OA
ATOM      3  N   UNL     1       1.254   8.901  18.717  0.00  0.00    +0.000 N 
ATOM      4  H   UNL     1       0.851   8.043  19.062  0.00  0.00    +0.000 HD
ENDROOT
BRANCH   1  11
ATOM      5  C   UNL     1       3.627   1.645  18.142  0.00  0.00    +0.000 C 
ATOM      6  N   UNL     1       3.550   3.083  18.048  0.00  0.00    +0.000 N 
ATOM      7  N   UNL     1       4.527   3.702  17.341  0.00  0.00    +0.000 NA
ATOM      8  C   UNL     1       4.205   5.001  17.350  0.00  0.00    +0.000 A 
ATOM      9  C   UNL     1       4.854   6.093  16.749  0.00  0.00    +0.000 A 
ATOM     10  C   UNL     1       4.226   7.346  16.971  0.00  0.00    +0.000 A 
ATOM     11  C   UNL     1       3.033   7.500  17.749  0.00  0.00    +0.000 A 
ATOM     12  C   UNL     1       2.356   6.406  18.343  0.00  0.00    +0.000 A 
ATOM     13  C   UNL     1       2.992   5.184  18.107  0.00  0.00    +0.000 A 
ATOM     14  C   UNL     1       2.567   3.936  18.512  0.00  0.00    +0.000 A 
BRANCH  14  15
ATOM     15  C   UNL     1       1.254   3.669  19.245  0.00  0.00    +0.000 C 
ATOM     16  C   UNL     1       1.238   2.834  20.505  0.00  0.00    +0.000 C 
ATOM     17  C   UNL     1       0.908   4.285  20.577  0.00  0.00    +0.000 C 
ENDBRANCH  14  15
ENDBRANCH   1  11
BRANCH   3  18
ATOM     18  C   UNL     1       0.585  10.206  18.953  0.00  0.00    +0.000 C 
ATOM     19  C   UNL     1      -0.852  10.139  19.512  0.00  0.00    +0.000 C 
ATOM     20  N   UNL     1      -0.490  11.250  20.337  0.00  0.00    +0.000 N 
ATOM     21  C   UNL     1       0.909  10.952  20.262  0.00  0.00    +0.000 C 
BRANCH  20  22
ATOM     22  C   UNL     1      -1.205  12.117  21.182  0.00  0.00    +0.000 A 
ATOM     23  C   UNL     1      -1.642  13.344  20.654  0.00  0.00    +0.000 A 
ATOM     24  C   UNL     1      -2.401  14.198  21.438  0.00  0.00    +0.000 A 
ATOM     25 CL   UNL     1      -3.000  15.673  20.800  0.00  0.00    +0.000 Cl
ATOM     26  N   UNL     1      -2.747  13.951  22.711  0.00  0.00    +0.000 NA
ATOM     27  C   UNL     1      -2.316  12.774  23.217  0.00  0.00    +0.000 A 
ATOM     28  C   UNL     1      -1.564  11.834  22.512  0.00  0.00    +0.000 A 
ATOM     29 CL   UNL     1      -1.109  10.401  23.355  0.00  0.00    +0.000 Cl
ENDBRANCH  20  22
ENDBRANCH   3  18
TORSDOF 4
ENDMDL
MODEL 4
REMARK VINA RESULT:      -8.2      1.094      1.104
REMARK  Name = 
REMARK  5 active torsions:
REMARK  status: ('A' for Active; 'I' for Inactive)
REMARK    1  A    between atoms: C_1  and  N_2
REMARK    2  A    between atoms: C_7  and  C_8
REMARK    3  A    between atoms: N_10  and  C_11
REMARK    4  A    between atoms: N_13  and  C_14
REMARK    5  A    between atoms: C_25  and  C_26
REMARK                            x       y       z     vdW  Elec       q    Type
REMARK                         _______ _______ _______ _____ _____    ______ ____
ROOT
ATOM      1  C   UNL     1       2.102   8.687  18.268  0.00  0.00    +0.000 C 
ATOM      2  O   UNL     1       1.937   9.248  17.192  0.00  0.00    +0.000 OA
ATOM      3  N   UNL     1       1.511   9.138  19.440  0.00  0.00    +0.000 N 
ATOM      4  H   UNL     1       1.592   8.576  20.274  0.00  0.00    +0.000 HD
ENDROOT
BRANCH   1  11
ATOM      5  C   UNL     1       4.519   2.056  20.135  0.00  0.00    +0.000 C 
ATOM      6  N   UNL     1       4.197   3.391  19.689  0.00  0.00    +0.000 N 
ATOM      7  N   UNL     1       4.985   3.918  18.722  0.00  0.00    +0.000 NA
ATOM      8  C   UNL     1       4.456   5.114  18.443  0.00  0.00    +0.000 A 
ATOM      9  C   UNL     1       4.854   6.078  17.500  0.00  0.00    +0.000 A 
ATOM     10  C   UNL     1       4.052   7.248  17.479  0.00  0.00    +0.000 A 
ATOM     11  C   UNL     1       2.930   7.447  18.347  0.00  0.00    +0.000 A 
ATOM     12  C   UNL     1       2.503   6.476  19.287  0.00  0.00    +0.000 A 
ATOM     13  C   UNL     1       3.307   5.333  19.285  0.00  0.00    +0.000 A 
ATOM     14  C   UNL     1       3.135   4.198  20.050  0.00  0.00    +0.000 A 
BRANCH  14  15
ATOM     15  C   UNL     1       1.960   3.968  20.998  0.00  0.00    +0.000 C 
ATOM     16  C   UNL     1       0.750   3.186  20.540  0.00  0.00    +0.000 C 
ATOM     17  C   UNL     1       1.633   2.625  21.602  0.00  0.00    +0.000 C 
ENDBRANCH  14  15
ENDBRANCH   1  11
BRANCH   3  18
ATOM     18  C   UNL     1       0.691  10.376  19.431  0.00  0.00    +0.000 C 
ATOM     19  C   UNL     1      -0.773  10.221  19.896  0.00  0.00    +0.000 C 
ATOM     20  N   UNL     1      -0.600  11.473  20.566  0.00  0.00    +0.000 N 
ATOM     21  C   UNL     1       0.823  11.333  20.632  0.00  0.00    +0.000 C 
BRANCH  20  22
ATOM     22  C   UNL     1      -1.471  12.363  21.221  0.00  0.00    +0.000 A 
ATOM     23  C   UNL     1      -1.052  12.922  22.441  0.00  0.00    +0.000 A 
ATOM     24  C   UNL     1      -1.858  13.847  23.084  0.00  0.00    +0.000 A 
ATOM     25 CL   UNL     1      -1.344  14.591  24.541  0.00  0.00    +0.000 Cl
ATOM     26  N   UNL     1      -3.056  14.252  22.635  0.00  0.00    +0.000 NA
ATOM     27  C   UNL     1      -3.458  13.704  21.466  0.00  0.00    +0.000 A 
ATOM     28  C   UNL     1      -2.720  12.780  20.727  0.00  0.00    +0.000 A 
ATOM     29 CL   UNL     1      -3.428  12.198  19.266  0.00  0.00    +0.000 Cl
ENDBRANCH  20  22
ENDBRANCH   3  18
TORSDOF 4
ENDMDL
MODEL 5
REMARK VINA RESULT:      -8.2      1.902      2.017
REMARK  Name = 
REMARK  5 active torsions:
REMARK  status: ('A' for Active; 'I' for Inactive)
REMARK    1  A    between atoms: C_1  and  N_2
REMARK    2  A    between atoms: C_7  and  C_8
REMARK    3  A    between atoms: N_10  and  C_11
REMARK    4  A    between atoms: N_13  and  C_14
REMARK    5  A    between atoms: C_25  and  C_26
REMARK                            x       y       z     vdW  Elec       q    Type
REMARK                         _______ _______ _______ _____ _____    ______ ____
ROOT
ATOM      1  C   UNL     1       2.204   8.781  18.168  0.00  0.00    +0.000 C 
ATOM      2  O   UNL     1       2.253   9.495  17.174  0.00  0.00    +0.000 OA
ATOM      3  N   UNL     1       1.406   9.082  19.262  0.00  0.00    +0.000 N 
ATOM      4  H   UNL     1       1.321   8.404  20.005  0.00  0.00    +0.000 HD
ENDROOT
BRANCH   1  11
ATOM      5  C   UNL     1       4.459   2.072  19.957  0.00  0.00    +0.000 C 
ATOM      6  N   UNL     1       4.166   3.417  19.520  0.00  0.00    +0.000 N 
ATOM      7  N   UNL     1       4.933   3.913  18.518  0.00  0.00    +0.000 NA
ATOM      8  C   UNL     1       4.435   5.127  18.257  0.00  0.00    +0.000 A 
ATOM      9  C   UNL     1       4.827   6.074  17.296  0.00  0.00    +0.000 A 
ATOM     10  C   UNL     1       4.068   7.272  17.303  0.00  0.00    +0.000 A 
ATOM     11  C   UNL     1       2.990   7.513  18.217  0.00  0.00    +0.000 A 
ATOM     12  C   UNL     1       2.568   6.560  19.177  0.00  0.00    +0.000 A 
ATOM     13  C   UNL     1       3.330   5.388  19.146  0.00  0.00    +0.000 A 
ATOM     14  C   UNL     1       3.150   4.262  19.921  0.00  0.00    +0.000 A 
BRANCH  14  15
ATOM     15  C   UNL     1       2.008   4.075  20.918  0.00  0.00    +0.000 C 
ATOM     16  C   UNL     1       0.691   3.484  20.470  0.00  0.00    +0.000 C 
ATOM     17  C   UNL     1       1.556   2.726  21.418  0.00  0.00    +0.000 C 
ENDBRANCH  14  15
ENDBRANCH   1  11
BRANCH   3  18
ATOM     18  C   UNL     1       0.613  10.338  19.282  0.00  0.00    +0.000 C 
ATOM     19  C   UNL     1      -0.605  10.387  18.336  0.00  0.00    +0.000 C 
ATOM     20  N   UNL     1      -1.294  11.050  19.399  0.00  0.00    +0.000 N 
ATOM     21  C   UNL     1      -0.429  10.511  20.404  0.00  0.00    +0.000 C 
BRANCH  20  22
ATOM     22  C   UNL     1      -2.533  11.709  19.504  0.00  0.00    +0.000 A 
ATOM     23  C   UNL     1      -2.668  12.714  20.477  0.00  0.00    +0.000 A 
ATOM     24  C   UNL     1      -3.853  13.425  20.569  0.00  0.00    +0.000 A 
ATOM     25 CL   UNL     1      -4.025  14.698  21.705  0.00  0.00    +0.000 Cl
ATOM     26  N   UNL     1      -4.928  13.211  19.794  0.00  0.00    +0.000 NA
ATOM     27  C   UNL     1      -4.796  12.236  18.866  0.00  0.00    +0.000 A 
ATOM     28  C   UNL     1      -3.644  11.474  18.674  0.00  0.00    +0.000 A 
ATOM     29 CL   UNL     1      -3.695  10.272  17.439  0.00  0.00    +0.000 Cl
ENDBRANCH  20  22
ENDBRANCH   3  18
TORSDOF 4
ENDMDL
MODEL 6
REMARK VINA RESULT:      -8.1      2.054      2.281
REMARK  Name = 
REMARK  5 active torsions:
REMARK  status: ('A' for Active; 'I' for Inactive)
REMARK    1  A    between atoms: C_1  and  N_2
REMARK    2  A    between atoms: C_7  and  C_8
REMARK    3  A    between atoms: N_10  and  C_11
REMARK    4  A    between atoms: N_13  and  C_14
REMARK    5  A    between atoms: C_25  and  C_26
REMARK                            x       y       z     vdW  Elec       q    Type
REMARK                         _______ _______ _______ _____ _____    ______ ____
ROOT
ATOM      1  C   UNL     1       2.359   8.698  18.051  0.00  0.00    +0.000 C 
ATOM      2  O   UNL     1       2.673   9.649  17.347  0.00  0.00    +0.000 OA
ATOM      3  N   UNL     1       1.365   8.782  19.015  0.00  0.00    +0.000 N 
ATOM      4  H   UNL     1       1.073   7.940  19.489  0.00  0.00    +0.000 HD
ENDROOT
BRANCH   1  11
ATOM      5  C   UNL     1       3.726   1.528  18.192  0.00  0.00    +0.000 C 
ATOM      6  N   UNL     1       3.623   2.966  18.115  0.00  0.00    +0.000 N 
ATOM      7  N   UNL     1       4.598   3.612  17.430  0.00  0.00    +0.000 NA
ATOM      8  C   UNL     1       4.250   4.903  17.449  0.00  0.00    +0.000 A 
ATOM      9  C   UNL     1       4.886   6.015  16.870  0.00  0.00    +0.000 A 
ATOM     10  C   UNL     1       4.231   7.253  17.098  0.00  0.00    +0.000 A 
ATOM     11  C   UNL     1       3.024   7.374  17.861  0.00  0.00    +0.000 A 
ATOM     12  C   UNL     1       2.360   6.260  18.432  0.00  0.00    +0.000 A 
ATOM     13  C   UNL     1       3.023   5.054  18.190  0.00  0.00    +0.000 A 
ATOM     14  C   UNL     1       2.617   3.793  18.574  0.00  0.00    +0.000 A 
BRANCH  14  15
ATOM     15  C   UNL     1       1.299   3.492  19.285  0.00  0.00    +0.000 C 
ATOM     16  C   UNL     1       1.293   2.745  20.599  0.00  0.00    +0.000 C 
ATOM     17  C   UNL     1       0.870   4.173  20.560  0.00  0.00    +0.000 C 
ENDBRANCH  14  15
ENDBRANCH   1  11
BRANCH   3  18
ATOM     18  C   UNL     1       0.678  10.075  19.266  0.00  0.00    +0.000 C 
ATOM     19  C   UNL     1      -0.409  10.473  18.246  0.00  0.00    +0.000 C 
ATOM     20  N   UNL     1      -1.166  10.938  19.367  0.00  0.00    +0.000 N 
ATOM     21  C   UNL     1      -0.474  10.089  20.289  0.00  0.00    +0.000 C 
BRANCH  20  22
ATOM     22  C   UNL     1      -2.353  11.681  19.509  0.00  0.00    +0.000 A 
ATOM     23  C   UNL     1      -3.432  11.370  18.664  0.00  0.00    +0.000 A 
ATOM     24  C   UNL     1      -4.636  12.040  18.815  0.00  0.00    +0.000 A 
ATOM     25 CL   UNL     1      -5.988  11.639  17.840  0.00  0.00    +0.000 Cl
ATOM     26  N   UNL     1      -4.857  13.008  19.717  0.00  0.00    +0.000 NA
ATOM     27  C   UNL     1      -3.812  13.309  20.521  0.00  0.00    +0.000 A 
ATOM     28  C   UNL     1      -2.565  12.687  20.468  0.00  0.00    +0.000 A 
ATOM     29 CL   UNL     1      -1.367  13.235  21.581  0.00  0.00    +0.000 Cl
ENDBRANCH  20  22
ENDBRANCH   3  18
TORSDOF 4
ENDMDL
MODEL 7
REMARK VINA RESULT:      -8.1      3.970     10.148
REMARK  Name = 
REMARK  5 active torsions:
REMARK  status: ('A' for Active; 'I' for Inactive)
REMARK    1  A    between atoms: C_1  and  N_2
REMARK    2  A    between atoms: C_7  and  C_8
REMARK    3  A    between atoms: N_10  and  C_11
REMARK    4  A    between atoms: N_13  and  C_14
REMARK    5  A    between atoms: C_25  and  C_26
REMARK                            x       y       z     vdW  Elec       q    Type
REMARK                         _______ _______ _______ _____ _____    ______ ____
ROOT
ATOM      1  C   UNL     1       1.187   8.863  19.253  0.00  0.00    +0.000 C 
ATOM      2  O   UNL     1       1.090   9.335  18.128  0.00  0.00    +0.000 OA
ATOM      3  N   UNL     1       1.885   7.693  19.512  0.00  0.00    +0.000 N 
ATOM      4  H   UNL     1       2.025   7.409  20.471  0.00  0.00    +0.000 HD
ENDROOT
BRANCH   1  11
ATOM      5  C   UNL     1      -2.269  13.849  23.316  0.00  0.00    +0.000 C 
ATOM      6  N   UNL     1      -1.537  12.789  22.664  0.00  0.00    +0.000 N 
ATOM      7  N   UNL     1      -1.223  11.709  23.420  0.00  0.00    +0.000 NA
ATOM      8  C   UNL     1      -0.612  10.857  22.589  0.00  0.00    +0.000 A 
ATOM      9  C   UNL     1      -0.101   9.571  22.833  0.00  0.00    +0.000 A 
ATOM     10  C   UNL     1       0.491   8.949  21.705  0.00  0.00    +0.000 A 
ATOM     11  C   UNL     1       0.575   9.572  20.417  0.00  0.00    +0.000 A 
ATOM     12  C   UNL     1       0.045  10.858  20.149  0.00  0.00    +0.000 A 
ATOM     13  C   UNL     1      -0.536  11.448  21.276  0.00  0.00    +0.000 A 
ATOM     14  C   UNL     1      -1.171  12.671  21.337  0.00  0.00    +0.000 A 
BRANCH  14  15
ATOM     15  C   UNL     1      -1.415  13.576  20.131  0.00  0.00    +0.000 C 
ATOM     16  C   UNL     1      -1.115  15.055  20.213  0.00  0.00    +0.000 C 
ATOM     17  C   UNL     1      -0.304  14.187  19.314  0.00  0.00    +0.000 C 
ENDBRANCH  14  15
ENDBRANCH   1  11
BRANCH   3  18
ATOM     18  C   UNL     1       2.502   6.932  18.396  0.00  0.00    +0.000 C 
ATOM     19  C   UNL     1       3.846   7.475  17.867  0.00  0.00    +0.000 C 
ATOM     20  N   UNL     1       4.260   6.108  17.771  0.00  0.00    +0.000 N 
ATOM     21  C   UNL     1       3.311   5.669  18.749  0.00  0.00    +0.000 C 
BRANCH  20  22
ATOM     22  C   UNL     1       5.373   5.458  17.207  0.00  0.00    +0.000 A 
ATOM     23  C   UNL     1       5.297   5.066  15.860  0.00  0.00    +0.000 A 
ATOM     24  C   UNL     1       6.395   4.478  15.254  0.00  0.00    +0.000 A 
ATOM     25 CL   UNL     1       6.352   4.045  13.595  0.00  0.00    +0.000 Cl
ATOM     26  N   UNL     1       7.558   4.223  15.874  0.00  0.00    +0.000 NA
ATOM     27  C   UNL     1       7.622   4.594  17.172  0.00  0.00    +0.000 A 
ATOM     28  C   UNL     1       6.585   5.210  17.874  0.00  0.00    +0.000 A 
ATOM     29 CL   UNL     1       6.877   5.589  19.531  0.00  0.00    +0.000 Cl
ENDBRANCH  20  22
ENDBRANCH   3  18
TORSDOF 4
ENDMDL
MODEL 8
REMARK VINA RESULT:      -8.0      1.422      1.729
REMARK  Name = 
REMARK  5 active torsions:
REMARK  status: ('A' for Active; 'I' for Inactive)
REMARK    1  A    between atoms: C_1  and  N_2
REMARK    2  A    between atoms: C_7  and  C_8
REMARK    3  A    between atoms: N_10  and  C_11
REMARK    4  A    between atoms: N_13  and  C_14
REMARK    5  A    between atoms: C_25  and  C_26
REMARK                            x       y       z     vdW  Elec       q    Type
REMARK                         _______ _______ _______ _____ _____    ______ ____
ROOT
ATOM      1  C   UNL     1       2.003   8.848  18.161  0.00  0.00    +0.000 C 
ATOM      2  O   UNL     1       1.923   9.461  17.105  0.00  0.00    +0.000 OA
ATOM      3  N   UNL     1       1.298   9.224  19.295  0.00  0.00    +0.000 N 
ATOM      4  H   UNL     1       1.316   8.620  20.104  0.00  0.00    +0.000 HD
ENDROOT
BRANCH   1  11
ATOM      5  C   UNL     1       4.490   2.249  20.050  0.00  0.00    +0.000 C 
ATOM      6  N   UNL     1       4.155   3.580  19.603  0.00  0.00    +0.000 N 
ATOM      7  N   UNL     1       4.955   4.124  18.654  0.00  0.00    +0.000 NA
ATOM      8  C   UNL     1       4.411   5.313  18.369  0.00  0.00    +0.000 A 
ATOM      9  C   UNL     1       4.813   6.287  17.439  0.00  0.00    +0.000 A 
ATOM     10  C   UNL     1       3.992   7.444  17.406  0.00  0.00    +0.000 A 
ATOM     11  C   UNL     1       2.849   7.621  18.252  0.00  0.00    +0.000 A 
ATOM     12  C   UNL     1       2.419   6.639  19.179  0.00  0.00    +0.000 A 
ATOM     13  C   UNL     1       3.242   5.509  19.189  0.00  0.00    +0.000 A 
ATOM     14  C   UNL     1       3.073   4.368  19.945  0.00  0.00    +0.000 A 
BRANCH  14  15
ATOM     15  C   UNL     1       1.883   4.114  20.868  0.00  0.00    +0.000 C 
ATOM     16  C   UNL     1       0.665   3.378  20.359  0.00  0.00    +0.000 C 
ATOM     17  C   UNL     1       1.525   2.750  21.402  0.00  0.00    +0.000 C 
ENDBRANCH  14  15
ENDBRANCH   1  11
BRANCH   3  18
ATOM     18  C   UNL     1       0.453  10.445  19.275  0.00  0.00    +0.000 C 
ATOM     19  C   UNL     1      -1.071  10.212  19.202  0.00  0.00    +0.000 C 
ATOM     20  N   UNL     1      -1.192  11.292  20.133  0.00  0.00    +0.000 N 
ATOM     21  C   UNL     1       0.143  11.126  20.623  0.00  0.00    +0.000 C 
BRANCH  20  22
ATOM     22  C   UNL     1      -2.275  12.033  20.639  0.00  0.00    +0.000 A 
ATOM     23  C   UNL     1      -3.311  12.380  19.755  0.00  0.00    +0.000 A 
ATOM     24  C   UNL     1      -4.422  13.057  20.230  0.00  0.00    +0.000 A 
ATOM     25 CL   UNL     1      -5.728  13.439  19.186  0.00  0.00    +0.000 Cl
ATOM     26  N   UNL     1      -4.587  13.442  21.505  0.00  0.00    +0.000 NA
ATOM     27  C   UNL     1      -3.584  13.113  22.350  0.00  0.00    +0.000 A 
ATOM     28  C   UNL     1      -2.432  12.418  21.983  0.00  0.00    +0.000 A 
ATOM     29 CL   UNL     1      -1.271  12.114  23.221  0.00  0.00    +0.000 Cl
ENDBRANCH  20  22
ENDBRANCH   3  18
TORSDOF 4
ENDMDL
MODEL 9
REMARK VINA RESULT:      -8.0      4.032     10.010
REMARK  Name = 
REMARK  5 active torsions:
REMARK  status: ('A' for Active; 'I' for Inactive)
REMARK    1  A    between atoms: C_1  and  N_2
REMARK    2  A    between atoms: C_7  and  C_8
REMARK    3  A    between atoms: N_10  and  C_11
REMARK    4  A    between atoms: N_13  and  C_14
REMARK    5  A    between atoms: C_25  and  C_26
REMARK                            x       y       z     vdW  Elec       q    Type
REMARK                         _______ _______ _______ _____ _____    ______ ____
ROOT
ATOM      1  C   UNL     1       1.234   8.750  19.309  0.00  0.00    +0.000 C 
ATOM      2  O   UNL     1       1.230   9.301  18.216  0.00  0.00    +0.000 OA
ATOM      3  N   UNL     1       1.842   7.521  19.520  0.00  0.00    +0.000 N 
ATOM      4  H   UNL     1       1.909   7.166  20.463  0.00  0.00    +0.000 HD
ENDROOT
BRANCH   1  11
ATOM      5  C   UNL     1      -2.900  13.162  23.400  0.00  0.00    +0.000 C 
ATOM      6  N   UNL     1      -1.998  12.249  22.740  0.00  0.00    +0.000 N 
ATOM      7  N   UNL     1      -1.319  11.383  23.530  0.00  0.00    +0.000 NA
ATOM      8  C   UNL     1      -0.610  10.617  22.692  0.00  0.00    +0.000 A 
ATOM      9  C   UNL     1       0.250   9.541  22.967  0.00  0.00    +0.000 A 
ATOM     10  C   UNL     1       0.845   8.954  21.820  0.00  0.00    +0.000 A 
ATOM     11  C   UNL     1       0.602   9.417  20.486  0.00  0.00    +0.000 A 
ATOM     12  C   UNL     1      -0.279  10.487  20.192  0.00  0.00    +0.000 A 
ATOM     13  C   UNL     1      -0.854  11.044  21.337  0.00  0.00    +0.000 A 
ATOM     14  C   UNL     1      -1.778  12.067  21.388  0.00  0.00    +0.000 A 
BRANCH  14  15
ATOM     15  C   UNL     1      -2.399  12.729  20.159  0.00  0.00    +0.000 C 
ATOM     16  C   UNL     1      -3.077  11.889  19.100  0.00  0.00    +0.000 C 
ATOM     17  C   UNL     1      -3.887  12.824  19.932  0.00  0.00    +0.000 C 
ENDBRANCH  14  15
ENDBRANCH   1  11
BRANCH   3  18
ATOM     18  C   UNL     1       2.473   6.797  18.387  0.00  0.00    +0.000 C 
ATOM     19  C   UNL     1       3.804   7.380  17.867  0.00  0.00    +0.000 C 
ATOM     20  N   UNL     1       4.246   6.025  17.741  0.00  0.00    +0.000 N 
ATOM     21  C   UNL     1       3.310   5.545  18.712  0.00  0.00    +0.000 C 
BRANCH  20  22
ATOM     22  C   UNL     1       5.371   5.412  17.161  0.00  0.00    +0.000 A 
ATOM     23  C   UNL     1       5.296   5.034  15.810  0.00  0.00    +0.000 A 
ATOM     24  C   UNL     1       6.404   4.481  15.189  0.00  0.00    +0.000 A 
ATOM     25 CL   UNL     1       6.360   4.068  13.525  0.00  0.00    +0.000 Cl
ATOM     26  N   UNL     1       7.578   4.250  15.798  0.00  0.00    +0.000 NA
ATOM     27  C   UNL     1       7.642   4.608  17.100  0.00  0.00    +0.000 A 
ATOM     28  C   UNL     1       6.595   5.187  17.817  0.00  0.00    +0.000 A 
ATOM     29 CL   UNL     1       6.889   5.554  19.476  0.00  0.00    +0.000 Cl
ENDBRANCH  20  22
ENDBRANCH   3  18
TORSDOF 4
ENDMDL
