MODEL 1
REMARK VINA RESULT:      -7.5      0.000      0.000
REMARK  Name = 
REMARK  12 active torsions:
REMARK  status: ('A' for Active; 'I' for Inactive)
REMARK    1  A    between atoms: C_1  and  O_2
REMARK    2  A    between atoms: O_2  and  C_3
REMARK    3  A    between atoms: C_6  and  S_7
REMARK    4  A    between atoms: S_7  and  N_10
REMARK    5  A    between atoms: N_10  and  C_11
REMARK    6  A    between atoms: N_10  and  C_18
REMARK    7  A    between atoms: C_11  and  C_12
REMARK    8  A    between atoms: C_18  and  C_19
REMARK    9  A    between atoms: C_18  and  C_23
REMARK   10  A    between atoms: N_21  and  O_22
REMARK   11  A    between atoms: C_23  and  C_24
REMARK   12  A    between atoms: C_23  and  C_25
REMARK                            x       y       z     vdW  Elec       q    Type
REMARK                         _______ _______ _______ _____ _____    ______ ____
ROOT
ATOM      1  N   UNL     1       4.303   5.163  18.322  0.00  0.00    +0.000 NA
ENDROOT
BRANCH   1   2
ATOM      2  S   UNL     1       5.946   5.404  17.802  0.00  0.00    +0.000 S 
ATOM      3  O   UNL     1       6.789   4.399  18.417  0.00  0.00    +0.000 OA
ATOM      4  O   UNL     1       6.278   6.799  17.984  0.00  0.00    +0.000 OA
BRANCH   2   8
ATOM      5  C   UNL     1       6.406   4.006  13.464  0.00  0.00    +0.000 A 
ATOM      6  C   UNL     1       7.397   4.779  14.071  0.00  0.00    +0.000 A 
ATOM      7  C   UNL     1       7.210   5.305  15.356  0.00  0.00    +0.000 A 
ATOM      8  C   UNL     1       6.014   5.065  16.043  0.00  0.00    +0.000 A 
ATOM      9  C   UNL     1       5.006   4.319  15.423  0.00  0.00    +0.000 A 
ATOM     10  C   UNL     1       5.194   3.809  14.128  0.00  0.00    +0.000 A 
BRANCH   5  12
ATOM     11  C   UNL     1       5.771   2.594  11.674  0.00  0.00    +0.000 C 
ATOM     12  O   UNL     1       6.716   3.507  12.228  0.00  0.00    +0.000 OA
ENDBRANCH   5  12
ENDBRANCH   2   8
ENDBRANCH   1   2
BRANCH   1  13
ATOM     13  C   UNL     1       3.304   6.072  17.664  0.00  0.00    +0.000 C 
BRANCH  13  14
ATOM     14  C   UNL     1       2.623   7.112  18.539  0.00  0.00    +0.000 A 
ATOM     15  C   UNL     1       2.354   6.910  19.896  0.00  0.00    +0.000 A 
ATOM     16  C   UNL     1       1.627   7.864  20.595  0.00  0.00    +0.000 A 
ATOM     17  N   UNL     1       1.195   9.020  20.060  0.00  0.00    +0.000 NA
ATOM     18  C   UNL     1       1.499   9.227  18.764  0.00  0.00    +0.000 A 
ATOM     19  C   UNL     1       2.205   8.326  17.979  0.00  0.00    +0.000 A 
ENDBRANCH  13  14
ENDBRANCH   1  13
BRANCH   1  20
ATOM     20  C   UNL     1       3.870   3.706  18.480  0.00  0.00    +0.000 C 
BRANCH  20  21
ATOM     21  C   UNL     1       4.071   3.155  19.904  0.00  0.00    +0.000 C 
ATOM     22  O   UNL     1       3.414   3.497  20.885  0.00  0.00    +0.000 OA
ATOM     23  N   UNL     1       5.048   2.171  19.990  0.00  0.00    +0.000 N 
ATOM     24  H   UNL     1       5.935   2.398  19.541  0.00  0.00    +0.000 HD
BRANCH  23  25
ATOM     25  O   UNL     1       5.210   1.651  21.305  0.00  0.00    +0.000 OA
ATOM     26  H   UNL     1       4.507   0.966  21.350  0.00  0.00    +0.000 HD
ENDBRANCH  23  25
ENDBRANCH  20  21
BRANCH  20  27
ATOM     27  C   UNL     1       2.383   3.423  18.045  0.00  0.00    +0.000 C 
ATOM     28  C   UNL     1       2.203   2.019  17.437  0.00  0.00    +0.000 C 
ATOM     29  C   UNL     1       1.342   3.637  19.148  0.00  0.00    +0.000 C 
ENDBRANCH  20  27
ENDBRANCH   1  20
TORSDOF 9
ENDMDL
MODEL 2
REMARK VINA RESULT:      -7.4      0.793      1.513
REMARK  Name = 
REMARK  12 active torsions:
REMARK  status: ('A' for Active; 'I' for Inactive)
REMARK    1  A    between atoms: C_1  and  O_2
REMARK    2  A    between atoms: O_2  and  C_3
REMARK    3  A    between atoms: C_6  and  S_7
REMARK    4  A    between atoms: S_7  and  N_10
REMARK    5  A    between atoms: N_10  and  C_11
REMARK    6  A    between atoms: N_10  and  C_18
REMARK    7  A    between atoms: C_11  and  C_12
REMARK    8  A    between atoms: C_18  and  C_19
REMARK    9  A    between atoms: C_18  and  C_23
REMARK   10  A    between atoms: N_21  and  O_22
REMARK   11  A    between atoms: C_23  and  C_24
REMARK   12  A    between atoms: C_23  and  C_25
REMARK                            x       y       z     vdW  Elec       q    Type
REMARK                         _______ _______ _______ _____ _____    ______ ____
ROOT
ATOM      1  N   UNL     1       3.593   5.171  18.671  0.00  0.00    +0.000 NA
ENDROOT
BRANCH   1   2
ATOM      2  S   UNL     1       5.292   5.465  18.445  0.00  0.00    +0.000 S 
ATOM      3  O   UNL     1       6.038   4.715  19.435  0.00  0.00    +0.000 OA
ATOM      4  O   UNL     1       5.496   6.893  18.354  0.00  0.00    +0.000 OA
BRANCH   2   8
ATOM      5  C   UNL     1       6.410   4.234  14.176  0.00  0.00    +0.000 A 
ATOM      6  C   UNL     1       5.084   4.172  14.610  0.00  0.00    +0.000 A 
ATOM      7  C   UNL     1       4.754   4.437  15.947  0.00  0.00    +0.000 A 
ATOM      8  C   UNL     1       5.760   4.759  16.866  0.00  0.00    +0.000 A 
ATOM      9  C   UNL     1       7.093   4.789  16.439  0.00  0.00    +0.000 A 
ATOM     10  C   UNL     1       7.417   4.507  15.103  0.00  0.00    +0.000 A 
BRANCH   5  12
ATOM     11  C   UNL     1       5.629   3.189  12.203  0.00  0.00    +0.000 C 
ATOM     12  O   UNL     1       6.609   4.003  12.843  0.00  0.00    +0.000 OA
ENDBRANCH   5  12
ENDBRANCH   2   8
ENDBRANCH   1   2
BRANCH   1  13
ATOM     13  C   UNL     1       2.695   6.082  17.883  0.00  0.00    +0.000 C 
BRANCH  13  14
ATOM     14  C   UNL     1       2.112   7.285  18.604  0.00  0.00    +0.000 A 
ATOM     15  C   UNL     1       1.726   8.457  17.946  0.00  0.00    +0.000 A 
ATOM     16  C   UNL     1       1.309   9.552  18.692  0.00  0.00    +0.000 A 
ATOM     17  N   UNL     1       1.199   9.549  20.032  0.00  0.00    +0.000 NA
ATOM     18  C   UNL     1       1.529   8.400  20.655  0.00  0.00    +0.000 A 
ATOM     19  C   UNL     1       1.972   7.260  19.999  0.00  0.00    +0.000 A 
ENDBRANCH  13  14
ENDBRANCH   1  13
BRANCH   1  20
ATOM     20  C   UNL     1       3.178   3.700  18.707  0.00  0.00    +0.000 C 
BRANCH  20  21
ATOM     21  C   UNL     1       3.829   2.905  19.855  0.00  0.00    +0.000 C 
ATOM     22  O   UNL     1       3.471   2.955  21.030  0.00  0.00    +0.000 OA
ATOM     23  N   UNL     1       4.851   2.061  19.441  0.00  0.00    +0.000 N 
ATOM     24  H   UNL     1       5.548   2.487  18.831  0.00  0.00    +0.000 HD
BRANCH  23  25
ATOM     25  O   UNL     1       5.430   1.313  20.505  0.00  0.00    +0.000 OA
ATOM     26  H   UNL     1       6.222   0.917  20.080  0.00  0.00    +0.000 HD
ENDBRANCH  23  25
ENDBRANCH  20  21
BRANCH  20  27
ATOM     27  C   UNL     1       1.622   3.468  18.765  0.00  0.00    +0.000 C 
ATOM     28  C   UNL     1       1.234   2.001  18.496  0.00  0.00    +0.000 C 
ATOM     29  C   UNL     1       0.951   3.943  20.057  0.00  0.00    +0.000 C 
ENDBRANCH  20  27
ENDBRANCH   1  20
TORSDOF 9
ENDMDL
MODEL 3
REMARK VINA RESULT:      -7.3      1.337      1.512
REMARK  Name = 
REMARK  12 active torsions:
REMARK  status: ('A' for Active; 'I' for Inactive)
REMARK    1  A    between atoms: C_1  and  O_2
REMARK    2  A    between atoms: O_2  and  C_3
REMARK    3  A    between atoms: C_6  and  S_7
REMARK    4  A    between atoms: S_7  and  N_10
REMARK    5  A    between atoms: N_10  and  C_11
REMARK    6  A    between atoms: N_10  and  C_18
REMARK    7  A    between atoms: C_11  and  C_12
REMARK    8  A    between atoms: C_18  and  C_19
REMARK    9  A    between atoms: C_18  and  C_23
REMARK   10  A    between atoms: N_21  and  O_22
REMARK   11  A    between atoms: C_23  and  C_24
REMARK   12  A    between atoms: C_23  and  C_25
REMARK                            x       y       z     vdW  Elec       q    Type
REMARK                         _______ _______ _______ _____ _____    ______ ____
ROOT
ATOM      1  N   UNL     1       3.594   5.079  19.020  0.00  0.00    +0.000 NA
ENDROOT
BRANCH   1   2
ATOM      2  S   UNL     1       5.303   5.037  18.699  0.00  0.00    +0.000 S 
ATOM      3  O   UNL     1       5.864   3.835  19.281  0.00  0.00    +0.000 OA
ATOM      4  O   UNL     1       5.864   6.317  19.068  0.00  0.00    +0.000 OA
BRANCH   2   8
ATOM      5  C   UNL     1       6.462   4.484  14.301  0.00  0.00    +0.000 A 
ATOM      6  C   UNL     1       6.450   5.755  14.879  0.00  0.00    +0.000 A 
ATOM      7  C   UNL     1       5.986   5.943  16.189  0.00  0.00    +0.000 A 
ATOM      8  C   UNL     1       5.519   4.851  16.929  0.00  0.00    +0.000 A 
ATOM      9  C   UNL     1       5.500   3.581  16.340  0.00  0.00    +0.000 A 
ATOM     10  C   UNL     1       5.951   3.404  15.022  0.00  0.00    +0.000 A 
BRANCH   5  12
ATOM     11  C   UNL     1       6.371   3.455  12.173  0.00  0.00    +0.000 C 
ATOM     12  O   UNL     1       6.979   4.413  13.037  0.00  0.00    +0.000 OA
ENDBRANCH   5  12
ENDBRANCH   2   8
ENDBRANCH   1   2
BRANCH   1  13
ATOM     13  C   UNL     1       2.808   5.952  18.084  0.00  0.00    +0.000 C 
BRANCH  13  14
ATOM     14  C   UNL     1       2.303   7.280  18.624  0.00  0.00    +0.000 A 
ATOM     15  C   UNL     1       1.972   7.482  19.967  0.00  0.00    +0.000 A 
ATOM     16  C   UNL     1       1.410   8.690  20.357  0.00  0.00    +0.000 A 
ATOM     17  N   UNL     1       1.204   9.725  19.523  0.00  0.00    +0.000 NA
ATOM     18  C   UNL     1       1.568   9.538  18.239  0.00  0.00    +0.000 A 
ATOM     19  C   UNL     1       2.120   8.361  17.752  0.00  0.00    +0.000 A 
ENDBRANCH  13  14
ENDBRANCH   1  13
BRANCH   1  20
ATOM     20  C   UNL     1       2.956   3.733  19.364  0.00  0.00    +0.000 C 
BRANCH  20  21
ATOM     21  C   UNL     1       2.226   3.727  20.720  0.00  0.00    +0.000 C 
ATOM     22  O   UNL     1       1.784   4.729  21.281  0.00  0.00    +0.000 OA
ATOM     23  N   UNL     1       2.053   2.458  21.257  0.00  0.00    +0.000 N 
ATOM     24  H   UNL     1       2.888   1.874  21.272  0.00  0.00    +0.000 HD
BRANCH  23  25
ATOM     25  O   UNL     1       1.356   2.461  22.498  0.00  0.00    +0.000 OA
ATOM     26  H   UNL     1       1.690   1.645  22.931  0.00  0.00    +0.000 HD
ENDBRANCH  23  25
ENDBRANCH  20  21
BRANCH  20  27
ATOM     27  C   UNL     1       1.966   3.188  18.267  0.00  0.00    +0.000 C 
ATOM     28  C   UNL     1       2.525   1.956  17.529  0.00  0.00    +0.000 C 
ATOM     29  C   UNL     1       0.554   2.880  18.775  0.00  0.00    +0.000 C 
ENDBRANCH  20  27
ENDBRANCH   1  20
TORSDOF 9
ENDMDL
MODEL 4
REMARK VINA RESULT:      -7.2      0.437      1.026
REMARK  Name = 
REMARK  12 active torsions:
REMARK  status: ('A' for Active; 'I' for Inactive)
REMARK    1  A    between atoms: C_1  and  O_2
REMARK    2  A    between atoms: O_2  and  C_3
REMARK    3  A    between atoms: C_6  and  S_7
REMARK    4  A    between atoms: S_7  and  N_10
REMARK    5  A    between atoms: N_10  and  C_11
REMARK    6  A    between atoms: N_10  and  C_18
REMARK    7  A    between atoms: C_11  and  C_12
REMARK    8  A    between atoms: C_18  and  C_19
REMARK    9  A    between atoms: C_18  and  C_23
REMARK   10  A    between atoms: N_21  and  O_22
REMARK   11  A    between atoms: C_23  and  C_24
REMARK   12  A    between atoms: C_23  and  C_25
REMARK                            x       y       z     vdW  Elec       q    Type
REMARK                         _______ _______ _______ _____ _____    ______ ____
ROOT
ATOM      1  N   UNL     1       4.203   5.504  18.313  0.00  0.00    +0.000 NA
ENDROOT
BRANCH   1   2
ATOM      2  S   UNL     1       5.826   5.879  17.812  0.00  0.00    +0.000 S 
ATOM      3  O   UNL     1       6.757   5.338  18.781  0.00  0.00    +0.000 OA
ATOM      4  O   UNL     1       5.888   7.288  17.498  0.00  0.00    +0.000 OA
BRANCH   2   8
ATOM      5  C   UNL     1       6.372   4.062  13.642  0.00  0.00    +0.000 A 
ATOM      6  C   UNL     1       5.224   3.794  14.390  0.00  0.00    +0.000 A 
ATOM      7  C   UNL     1       5.104   4.252  15.709  0.00  0.00    +0.000 A 
ATOM      8  C   UNL     1       6.147   4.980  16.295  0.00  0.00    +0.000 A 
ATOM      9  C   UNL     1       7.311   5.222  15.557  0.00  0.00    +0.000 A 
ATOM     10  C   UNL     1       7.431   4.746  14.242  0.00  0.00    +0.000 A 
BRANCH   5  12
ATOM     11  C   UNL     1       5.098   3.152  11.868  0.00  0.00    +0.000 C 
ATOM     12  O   UNL     1       6.360   3.606  12.352  0.00  0.00    +0.000 OA
ENDBRANCH   5  12
ENDBRANCH   2   8
ENDBRANCH   1   2
BRANCH   1  13
ATOM     13  C   UNL     1       3.141   6.336  17.653  0.00  0.00    +0.000 C 
BRANCH  13  14
ATOM     14  C   UNL     1       2.450   7.390  18.501  0.00  0.00    +0.000 A 
ATOM     15  C   UNL     1       2.236   7.245  19.875  0.00  0.00    +0.000 A 
ATOM     16  C   UNL     1       1.496   8.203  20.555  0.00  0.00    +0.000 A 
ATOM     17  N   UNL     1       1.001   9.315  19.982  0.00  0.00    +0.000 NA
ATOM     18  C   UNL     1       1.252   9.470  18.667  0.00  0.00    +0.000 A 
ATOM     19  C   UNL     1       1.965   8.559  17.900  0.00  0.00    +0.000 A 
ENDBRANCH  13  14
ENDBRANCH   1  13
BRANCH   1  20
ATOM     20  C   UNL     1       3.885   4.015  18.455  0.00  0.00    +0.000 C 
BRANCH  20  21
ATOM     21  C   UNL     1       4.210   3.447  19.850  0.00  0.00    +0.000 C 
ATOM     22  O   UNL     1       3.916   3.991  20.912  0.00  0.00    +0.000 OA
ATOM     23  N   UNL     1       4.835   2.207  19.816  0.00  0.00    +0.000 N 
ATOM     24  H   UNL     1       5.630   2.137  19.182  0.00  0.00    +0.000 HD
BRANCH  23  25
ATOM     25  O   UNL     1       5.109   1.680  21.110  0.00  0.00    +0.000 OA
ATOM     26  H   UNL     1       5.257   0.726  20.924  0.00  0.00    +0.000 HD
ENDBRANCH  23  25
ENDBRANCH  20  21
BRANCH  20  27
ATOM     27  C   UNL     1       2.399   3.634  18.100  0.00  0.00    +0.000 C 
ATOM     28  C   UNL     1       2.291   2.257  17.418  0.00  0.00    +0.000 C 
ATOM     29  C   UNL     1       1.423   3.697  19.279  0.00  0.00    +0.000 C 
ENDBRANCH  20  27
ENDBRANCH   1  20
TORSDOF 9
ENDMDL
MODEL 5
REMARK VINA RESULT:      -7.2      1.404      1.820
REMARK  Name = 
REMARK  12 active torsions:
REMARK  status: ('A' for Active; 'I' for Inactive)
REMARK    1  A    between atoms: C_1  and  O_2
REMARK    2  A    between atoms: O_2  and  C_3
REMARK    3  A    between atoms: C_6  and  S_7
REMARK    4  A    between atoms: S_7  and  N_10
REMARK    5  A    between atoms: N_10  and  C_11
REMARK    6  A    between atoms: N_10  and  C_18
REMARK    7  A    between atoms: C_11  and  C_12
REMARK    8  A    between atoms: C_18  and  C_19
REMARK    9  A    between atoms: C_18  and  C_23
REMARK   10  A    between atoms: N_21  and  O_22
REMARK   11  A    between atoms: C_23  and  C_24
REMARK   12  A    between atoms: C_23  and  C_25
REMARK                            x       y       z     vdW  Elec       q    Type
REMARK                         _______ _______ _______ _____ _____    ______ ____
ROOT
ATOM      1  N   UNL     1       3.668   4.908  19.138  0.00  0.00    +0.000 NA
ENDROOT
BRANCH   1   2
ATOM      2  S   UNL     1       5.381   4.997  18.853  0.00  0.00    +0.000 S 
ATOM      3  O   UNL     1       6.006   3.784  19.341  0.00  0.00    +0.000 OA
ATOM      4  O   UNL     1       5.856   6.270  19.345  0.00  0.00    +0.000 OA
BRANCH   2   8
ATOM      5  C   UNL     1       6.453   4.502  14.427  0.00  0.00    +0.000 A 
ATOM      6  C   UNL     1       7.155   5.401  15.232  0.00  0.00    +0.000 A 
ATOM      7  C   UNL     1       6.757   5.640  16.555  0.00  0.00    +0.000 A 
ATOM      8  C   UNL     1       5.639   4.981  17.080  0.00  0.00    +0.000 A 
ATOM      9  C   UNL     1       4.915   4.105  16.263  0.00  0.00    +0.000 A 
ATOM     10  C   UNL     1       5.310   3.883  14.934  0.00  0.00    +0.000 A 
BRANCH   5  12
ATOM     11  C   UNL     1       6.216   3.431  12.331  0.00  0.00    +0.000 C 
ATOM     12  O   UNL     1       6.958   4.312  13.170  0.00  0.00    +0.000 OA
ENDBRANCH   5  12
ENDBRANCH   2   8
ENDBRANCH   1   2
BRANCH   1  13
ATOM     13  C   UNL     1       2.831   5.639  18.127  0.00  0.00    +0.000 C 
BRANCH  13  14
ATOM     14  C   UNL     1       2.305   7.011  18.516  0.00  0.00    +0.000 A 
ATOM     15  C   UNL     1       2.138   8.053  17.598  0.00  0.00    +0.000 A 
ATOM     16  C   UNL     1       1.761   9.308  18.054  0.00  0.00    +0.000 A 
ATOM     17  N   UNL     1       1.489   9.589  19.341  0.00  0.00    +0.000 NA
ATOM     18  C   UNL     1       1.608   8.568  20.213  0.00  0.00    +0.000 A 
ATOM     19  C   UNL     1       1.995   7.284  19.855  0.00  0.00    +0.000 A 
ENDBRANCH  13  14
ENDBRANCH   1  13
BRANCH   1  20
ATOM     20  C   UNL     1       3.142   3.538  19.566  0.00  0.00    +0.000 C 
BRANCH  20  21
ATOM     21  C   UNL     1       2.068   3.607  20.668  0.00  0.00    +0.000 C 
ATOM     22  O   UNL     1       1.172   4.448  20.719  0.00  0.00    +0.000 OA
ATOM     23  N   UNL     1       2.158   2.584  21.603  0.00  0.00    +0.000 N 
ATOM     24  H   UNL     1       3.089   2.428  21.988  0.00  0.00    +0.000 HD
BRANCH  23  25
ATOM     25  O   UNL     1       1.147   2.643  22.602  0.00  0.00    +0.000 OA
ATOM     26  H   UNL     1       1.562   2.164  23.353  0.00  0.00    +0.000 HD
ENDBRANCH  23  25
ENDBRANCH  20  21
BRANCH  20  27
ATOM     27  C   UNL     1       2.582   2.662  18.384  0.00  0.00    +0.000 C 
ATOM     28  C   UNL     1       3.424   1.396  18.137  0.00  0.00    +0.000 C 
ATOM     29  C   UNL     1       1.106   2.274  18.518  0.00  0.00    +0.000 C 
ENDBRANCH  20  27
ENDBRANCH   1  20
TORSDOF 9
ENDMDL
MODEL 6
REMARK VINA RESULT:      -7.2      1.441      1.829
REMARK  Name = 
REMARK  12 active torsions:
REMARK  status: ('A' for Active; 'I' for Inactive)
REMARK    1  A    between atoms: C_1  and  O_2
REMARK    2  A    between atoms: O_2  and  C_3
REMARK    3  A    between atoms: C_6  and  S_7
REMARK    4  A    between atoms: S_7  and  N_10
REMARK    5  A    between atoms: N_10  and  C_11
REMARK    6  A    between atoms: N_10  and  C_18
REMARK    7  A    between atoms: C_11  and  C_12
REMARK    8  A    between atoms: C_18  and  C_19
REMARK    9  A    between atoms: C_18  and  C_23
REMARK   10  A    between atoms: N_21  and  O_22
REMARK   11  A    between atoms: C_23  and  C_24
REMARK   12  A    between atoms: C_23  and  C_25
REMARK                            x       y       z     vdW  Elec       q    Type
REMARK                         _______ _______ _______ _____ _____    ______ ____
ROOT
ATOM      1  N   UNL     1       3.861   5.066  19.079  0.00  0.00    +0.000 NA
ENDROOT
BRANCH   1   2
ATOM      2  S   UNL     1       5.559   4.688  19.131  0.00  0.00    +0.000 S 
ATOM      3  O   UNL     1       5.733   3.370  19.706  0.00  0.00    +0.000 OA
ATOM      4  O   UNL     1       6.252   5.807  19.730  0.00  0.00    +0.000 OA
BRANCH   2   8
ATOM      5  C   UNL     1       6.512   4.629  14.651  0.00  0.00    +0.000 A 
ATOM      6  C   UNL     1       5.793   3.586  15.239  0.00  0.00    +0.000 A 
ATOM      7  C   UNL     1       5.599   3.543  16.627  0.00  0.00    +0.000 A 
ATOM      8  C   UNL     1       6.136   4.547  17.441  0.00  0.00    +0.000 A 
ATOM      9  C   UNL     1       6.884   5.575  16.856  0.00  0.00    +0.000 A 
ATOM     10  C   UNL     1       7.088   5.603  15.467  0.00  0.00    +0.000 A 
BRANCH   5  12
ATOM     11  C   UNL     1       5.904   3.524  12.649  0.00  0.00    +0.000 C 
ATOM     12  O   UNL     1       6.598   4.594  13.286  0.00  0.00    +0.000 OA
ENDBRANCH   5  12
ENDBRANCH   2   8
ENDBRANCH   1   2
BRANCH   1  13
ATOM     13  C   UNL     1       3.477   6.053  18.014  0.00  0.00    +0.000 C 
BRANCH  13  14
ATOM     14  C   UNL     1       2.724   7.298  18.454  0.00  0.00    +0.000 A 
ATOM     15  C   UNL     1       2.178   7.449  19.732  0.00  0.00    +0.000 A 
ATOM     16  C   UNL     1       1.408   8.568  20.016  0.00  0.00    +0.000 A 
ATOM     17  N   UNL     1       1.186   9.568  19.144  0.00  0.00    +0.000 NA
ATOM     18  C   UNL     1       1.755   9.437  17.929  0.00  0.00    +0.000 A 
ATOM     19  C   UNL     1       2.526   8.347  17.547  0.00  0.00    +0.000 A 
ENDBRANCH  13  14
ENDBRANCH   1  13
BRANCH   1  20
ATOM     20  C   UNL     1       2.917   3.876  19.251  0.00  0.00    +0.000 C 
BRANCH  20  21
ATOM     21  C   UNL     1       2.255   3.811  20.640  0.00  0.00    +0.000 C 
ATOM     22  O   UNL     1       1.790   4.779  21.238  0.00  0.00    +0.000 OA
ATOM     23  N   UNL     1       2.172   2.526  21.161  0.00  0.00    +0.000 N 
ATOM     24  H   UNL     1       3.037   1.986  21.126  0.00  0.00    +0.000 HD
BRANCH  23  25
ATOM     25  O   UNL     1       1.537   2.474  22.433  0.00  0.00    +0.000 OA
ATOM     26  H   UNL     1       2.199   1.997  22.982  0.00  0.00    +0.000 HD
ENDBRANCH  23  25
ENDBRANCH  20  21
BRANCH  20  27
ATOM     27  C   UNL     1       1.786   3.785  18.159  0.00  0.00    +0.000 C 
ATOM     28  C   UNL     1       2.288   3.167  16.839  0.00  0.00    +0.000 C 
ATOM     29  C   UNL     1       0.517   3.056  18.611  0.00  0.00    +0.000 C 
ENDBRANCH  20  27
ENDBRANCH   1  20
TORSDOF 9
ENDMDL
MODEL 7
REMARK VINA RESULT:      -7.1      1.158      1.345
REMARK  Name = 
REMARK  12 active torsions:
REMARK  status: ('A' for Active; 'I' for Inactive)
REMARK    1  A    between atoms: C_1  and  O_2
REMARK    2  A    between atoms: O_2  and  C_3
REMARK    3  A    between atoms: C_6  and  S_7
REMARK    4  A    between atoms: S_7  and  N_10
REMARK    5  A    between atoms: N_10  and  C_11
REMARK    6  A    between atoms: N_10  and  C_18
REMARK    7  A    between atoms: C_11  and  C_12
REMARK    8  A    between atoms: C_18  and  C_19
REMARK    9  A    between atoms: C_18  and  C_23
REMARK   10  A    between atoms: N_21  and  O_22
REMARK   11  A    between atoms: C_23  and  C_24
REMARK   12  A    between atoms: C_23  and  C_25
REMARK                            x       y       z     vdW  Elec       q    Type
REMARK                         _______ _______ _______ _____ _____    ______ ____
ROOT
ATOM      1  N   UNL     1       3.585   4.908  18.777  0.00  0.00    +0.000 NA
ENDROOT
BRANCH   1   2
ATOM      2  S   UNL     1       5.315   4.937  18.592  0.00  0.00    +0.000 S 
ATOM      3  O   UNL     1       5.862   3.680  19.062  0.00  0.00    +0.000 OA
ATOM      4  O   UNL     1       5.810   6.169  19.163  0.00  0.00    +0.000 OA
BRANCH   2   8
ATOM      5  C   UNL     1       6.653   4.609  14.223  0.00  0.00    +0.000 A 
ATOM      6  C   UNL     1       7.274   5.510  15.092  0.00  0.00    +0.000 A 
ATOM      7  C   UNL     1       6.793   5.696  16.395  0.00  0.00    +0.000 A 
ATOM      8  C   UNL     1       5.673   4.982  16.837  0.00  0.00    +0.000 A 
ATOM      9  C   UNL     1       5.030   4.103  15.957  0.00  0.00    +0.000 A 
ATOM     10  C   UNL     1       5.508   3.934  14.647  0.00  0.00    +0.000 A 
BRANCH   5  12
ATOM     11  C   UNL     1       8.142   5.511  12.621  0.00  0.00    +0.000 C 
ATOM     12  O   UNL     1       7.236   4.475  12.993  0.00  0.00    +0.000 OA
ENDBRANCH   5  12
ENDBRANCH   2   8
ENDBRANCH   1   2
BRANCH   1  13
ATOM     13  C   UNL     1       2.863   5.995  18.034  0.00  0.00    +0.000 C 
BRANCH  13  14
ATOM     14  C   UNL     1       2.306   7.149  18.850  0.00  0.00    +0.000 A 
ATOM     15  C   UNL     1       2.059   7.065  20.223  0.00  0.00    +0.000 A 
ATOM     16  C   UNL     1       1.444   8.127  20.872  0.00  0.00    +0.000 A 
ATOM     17  N   UNL     1       1.106   9.280  20.268  0.00  0.00    +0.000 NA
ATOM     18  C   UNL     1       1.390   9.371  18.954  0.00  0.00    +0.000 A 
ATOM     19  C   UNL     1       1.986   8.358  18.217  0.00  0.00    +0.000 A 
ENDBRANCH  13  14
ENDBRANCH   1  13
BRANCH   1  20
ATOM     20  C   UNL     1       2.941   3.523  18.718  0.00  0.00    +0.000 C 
BRANCH  20  21
ATOM     21  C   UNL     1       3.717   2.449  19.503  0.00  0.00    +0.000 C 
ATOM     22  O   UNL     1       3.847   2.433  20.725  0.00  0.00    +0.000 OA
ATOM     23  N   UNL     1       4.233   1.436  18.704  0.00  0.00    +0.000 N 
ATOM     24  H   UNL     1       4.745   1.750  17.880  0.00  0.00    +0.000 HD
BRANCH  23  25
ATOM     25  O   UNL     1       4.928   0.436  19.441  0.00  0.00    +0.000 OA
ATOM     26  H   UNL     1       5.767   0.346  18.938  0.00  0.00    +0.000 HD
ENDBRANCH  23  25
ENDBRANCH  20  21
BRANCH  20  27
ATOM     27  C   UNL     1       1.438   3.489  19.188  0.00  0.00    +0.000 C 
ATOM     28  C   UNL     1       0.693   2.236  18.689  0.00  0.00    +0.000 C 
ATOM     29  C   UNL     1       1.236   3.633  20.699  0.00  0.00    +0.000 C 
ENDBRANCH  20  27
ENDBRANCH   1  20
TORSDOF 9
ENDMDL
MODEL 8
REMARK VINA RESULT:      -7.0      1.881      2.347
REMARK  Name = 
REMARK  12 active torsions:
REMARK  status: ('A' for Active; 'I' for Inactive)
REMARK    1  A    between atoms: C_1  and  O_2
REMARK    2  A    between atoms: O_2  and  C_3
REMARK    3  A    between atoms: C_6  and  S_7
REMARK    4  A    between atoms: S_7  and  N_10
REMARK    5  A    between atoms: N_10  and  C_11
REMARK    6  A    between atoms: N_10  and  C_18
REMARK    7  A    between atoms: C_11  and  C_12
REMARK    8  A    between atoms: C_18  and  C_19
REMARK    9  A    between atoms: C_18  and  C_23
REMARK   10  A    between atoms: N_21  and  O_22
REMARK   11  A    between atoms: C_23  and  C_24
REMARK   12  A    between atoms: C_23  and  C_25
REMARK                            x       y       z     vdW  Elec       q    Type
REMARK                         _______ _______ _______ _____ _____    ______ ____
ROOT
ATOM      1  N   UNL     1       3.323   5.510  19.153  0.00  0.00    +0.000 NA
ENDROOT
BRANCH   1   2
ATOM      2  S   UNL     1       4.853   4.706  18.954  0.00  0.00    +0.000 S 
ATOM      3  O   UNL     1       4.670   3.284  19.162  0.00  0.00    +0.000 OA
ATOM      4  O   UNL     1       5.837   5.405  19.749  0.00  0.00    +0.000 OA
BRANCH   2   8
ATOM      5  C   UNL     1       6.484   4.667  14.674  0.00  0.00    +0.000 A 
ATOM      6  C   UNL     1       7.079   5.463  15.655  0.00  0.00    +0.000 A 
ATOM      7  C   UNL     1       6.515   5.567  16.934  0.00  0.00    +0.000 A 
ATOM      8  C   UNL     1       5.336   4.875  17.237  0.00  0.00    +0.000 A 
ATOM      9  C   UNL     1       4.721   4.103  16.245  0.00  0.00    +0.000 A 
ATOM     10  C   UNL     1       5.284   4.017  14.961  0.00  0.00    +0.000 A 
BRANCH   5  12
ATOM     11  C   UNL     1       6.584   3.729  12.504  0.00  0.00    +0.000 C 
ATOM     12  O   UNL     1       7.147   4.604  13.479  0.00  0.00    +0.000 OA
ENDBRANCH   5  12
ENDBRANCH   2   8
ENDBRANCH   1   2
BRANCH   1  13
ATOM     13  C   UNL     1       3.113   6.681  18.236  0.00  0.00    +0.000 C 
BRANCH  13  14
ATOM     14  C   UNL     1       2.265   7.831  18.753  0.00  0.00    +0.000 A 
ATOM     15  C   UNL     1       1.880   7.955  20.091  0.00  0.00    +0.000 A 
ATOM     16  C   UNL     1       1.011   8.973  20.459  0.00  0.00    +0.000 A 
ATOM     17  N   UNL     1       0.540   9.902  19.608  0.00  0.00    +0.000 NA
ATOM     18  C   UNL     1       0.952   9.802  18.329  0.00  0.00    +0.000 A 
ATOM     19  C   UNL     1       1.805   8.811  17.863  0.00  0.00    +0.000 A 
ENDBRANCH  13  14
ENDBRANCH   1  13
BRANCH   1  20
ATOM     20  C   UNL     1       2.116   4.591  19.341  0.00  0.00    +0.000 C 
BRANCH  20  21
ATOM     21  C   UNL     1       1.798   3.733  18.102  0.00  0.00    +0.000 C 
ATOM     22  O   UNL     1       1.199   4.137  17.107  0.00  0.00    +0.000 OA
ATOM     23  N   UNL     1       2.300   2.440  18.173  0.00  0.00    +0.000 N 
ATOM     24  H   UNL     1       2.101   1.943  19.041  0.00  0.00    +0.000 HD
BRANCH  23  25
ATOM     25  O   UNL     1       2.021   1.663  17.014  0.00  0.00    +0.000 OA
ATOM     26  H   UNL     1       1.346   2.206  16.551  0.00  0.00    +0.000 HD
ENDBRANCH  23  25
ENDBRANCH  20  21
BRANCH  20  27
ATOM     27  C   UNL     1       2.217   3.638  20.590  0.00  0.00    +0.000 C 
ATOM     28  C   UNL     1       2.604   4.391  21.877  0.00  0.00    +0.000 C 
ATOM     29  C   UNL     1       0.968   2.790  20.851  0.00  0.00    +0.000 C 
ENDBRANCH  20  27
ENDBRANCH   1  20
TORSDOF 9
ENDMDL
MODEL 9
REMARK VINA RESULT:      -7.0      1.279      1.802
REMARK  Name = 
REMARK  12 active torsions:
REMARK  status: ('A' for Active; 'I' for Inactive)
REMARK    1  A    between atoms: C_1  and  O_2
REMARK    2  A    between atoms: O_2  and  C_3
REMARK    3  A    between atoms: C_6  and  S_7
REMARK    4  A    between atoms: S_7  and  N_10
REMARK    5  A    between atoms: N_10  and  C_11
REMARK    6  A    between atoms: N_10  and  C_18
REMARK    7  A    between atoms: C_11  and  C_12
REMARK    8  A    between atoms: C_18  and  C_19
REMARK    9  A    between atoms: C_18  and  C_23
REMARK   10  A    between atoms: N_21  and  O_22
REMARK   11  A    between atoms: C_23  and  C_24
REMARK   12  A    between atoms: C_23  and  C_25
REMARK                            x       y       z     vdW  Elec       q    Type
REMARK                         _______ _______ _______ _____ _____    ______ ____
ROOT
ATOM      1  N   UNL     1       3.789   5.453  18.872  0.00  0.00    +0.000 NA
ENDROOT
BRANCH   1   2
ATOM      2  S   UNL     1       5.462   5.726  18.483  0.00  0.00    +0.000 S 
ATOM      3  O   UNL     1       6.291   5.045  19.456  0.00  0.00    +0.000 OA
ATOM      4  O   UNL     1       5.652   7.144  18.276  0.00  0.00    +0.000 OA
BRANCH   2   8
ATOM      5  C   UNL     1       6.389   4.216  14.259  0.00  0.00    +0.000 A 
ATOM      6  C   UNL     1       5.074   4.483  14.646  0.00  0.00    +0.000 A 
ATOM      7  C   UNL     1       4.774   4.834  15.969  0.00  0.00    +0.000 A 
ATOM      8  C   UNL     1       5.796   4.911  16.922  0.00  0.00    +0.000 A 
ATOM      9  C   UNL     1       7.110   4.611  16.543  0.00  0.00    +0.000 A 
ATOM     10  C   UNL     1       7.401   4.245  15.219  0.00  0.00    +0.000 A 
BRANCH   5  12
ATOM     11  C   UNL     1       5.465   3.312  12.276  0.00  0.00    +0.000 C 
ATOM     12  O   UNL     1       6.570   3.929  12.933  0.00  0.00    +0.000 OA
ENDBRANCH   5  12
ENDBRANCH   2   8
ENDBRANCH   1   2
BRANCH   1  13
ATOM     13  C   UNL     1       2.818   6.158  17.968  0.00  0.00    +0.000 C 
BRANCH  13  14
ATOM     14  C   UNL     1       2.225   7.467  18.462  0.00  0.00    +0.000 A 
ATOM     15  C   UNL     1       2.078   8.594  17.647  0.00  0.00    +0.000 A 
ATOM     16  C   UNL     1       1.633   9.785  18.206  0.00  0.00    +0.000 A 
ATOM     17  N   UNL     1       1.277   9.922  19.496  0.00  0.00    +0.000 NA
ATOM     18  C   UNL     1       1.378   8.818  20.263  0.00  0.00    +0.000 A 
ATOM     19  C   UNL     1       1.828   7.590  19.800  0.00  0.00    +0.000 A 
ENDBRANCH  13  14
ENDBRANCH   1  13
BRANCH   1  20
ATOM     20  C   UNL     1       3.426   4.016  19.243  0.00  0.00    +0.000 C 
BRANCH  20  21
ATOM     21  C   UNL     1       2.586   3.905  20.530  0.00  0.00    +0.000 C 
ATOM     22  O   UNL     1       1.820   4.774  20.941  0.00  0.00    +0.000 OA
ATOM     23  N   UNL     1       2.724   2.688  21.185  0.00  0.00    +0.000 N 
ATOM     24  H   UNL     1       3.684   2.378  21.330  0.00  0.00    +0.000 HD
BRANCH  23  25
ATOM     25  O   UNL     1       1.926   2.587  22.359  0.00  0.00    +0.000 OA
ATOM     26  H   UNL     1       1.827   3.526  22.631  0.00  0.00    +0.000 HD
ENDBRANCH  23  25
ENDBRANCH  20  21
BRANCH  20  27
ATOM     27  C   UNL     1       2.688   3.220  18.102  0.00  0.00    +0.000 C 
ATOM     28  C   UNL     1       3.328   1.845  17.833  0.00  0.00    +0.000 C 
ATOM     29  C   UNL     1       1.181   3.048  18.312  0.00  0.00    +0.000 C 
ENDBRANCH  20  27
ENDBRANCH   1  20
TORSDOF 9
ENDMDL
