MODEL 1
REMARK VINA RESULT:      -7.1      0.000      0.000
REMARK  Name = 
REMARK  13 active torsions:
REMARK  status: ('A' for Active; 'I' for Inactive)
REMARK    1  A    between atoms: C_2  and  C_3
REMARK    2  A    between atoms: C_3  and  O_4
REMARK    3  A    between atoms: O_4  and  C_5
REMARK    4  A    between atoms: C_8  and  C_9
REMARK    5  A    between atoms: N_10  and  N_11
REMARK    6  A    between atoms: C_12  and  C_14
REMARK    7  A    between atoms: C_14  and  C_15
REMARK    8  A    between atoms: C_15  and  C_16
REMARK    9  A    between atoms: C_16  and  C_17
REMARK   10  A    between atoms: C_17  and  C_18
REMARK   11  A    between atoms: C_18  and  C_19
REMARK   12  A    between atoms: C_19  and  C_20
REMARK   13  A    between atoms: N_22  and  O_23
REMARK                            x       y       z     vdW  Elec       q    Type
REMARK                         _______ _______ _______ _____ _____    ______ ____
ROOT
ATOM      1  N   UNL     1       6.924   8.201  17.048  0.00  0.00    +0.000 N 
ATOM      2  C   UNL     1       8.011   8.279  17.911  0.00  0.00    +0.000 C 
ATOM      3  O   UNL     1       8.329   7.404  18.715  0.00  0.00    +0.000 OA
ATOM      4  H   UNL     1       6.693   8.952  16.408  0.00  0.00    +0.000 HD
ENDROOT
BRANCH   1   6
ATOM      5  C   UNL     1       4.981   7.143  17.629  0.00  0.00    +0.000 C 
ATOM      6  N   UNL     1       6.155   7.073  17.087  0.00  0.00    +0.000 NA
BRANCH   5  10
ATOM      7  C   UNL     1       2.451   3.660  17.779  0.00  0.00    +0.000 A 
ATOM      8  C   UNL     1       3.832   3.533  17.602  0.00  0.00    +0.000 A 
ATOM      9  C   UNL     1       4.659   4.662  17.573  0.00  0.00    +0.000 A 
ATOM     10  C   UNL     1       4.108   5.940  17.691  0.00  0.00    +0.000 A 
ATOM     11  C   UNL     1       2.726   6.078  17.853  0.00  0.00    +0.000 A 
ATOM     12  C   UNL     1       1.900   4.939  17.897  0.00  0.00    +0.000 A 
BRANCH   7  13
ATOM     13  O   UNL     1       1.754   2.483  17.768  0.00  0.00    +0.000 OA
BRANCH  13  14
ATOM     14  C   UNL     1       1.889   1.642  18.917  0.00  0.00    +0.000 C 
BRANCH  14  16
ATOM     15  C   UNL     1       1.259   2.980  21.150  0.00  0.00    +0.000 C 
ATOM     16  C   UNL     1       1.548   2.400  20.137  0.00  0.00    +0.000 C 
ENDBRANCH  14  16
ENDBRANCH  13  14
ENDBRANCH   7  13
ENDBRANCH   5  10
ENDBRANCH   1   6
BRANCH   2  17
ATOM     17  C   UNL     1       8.805   9.571  17.819  0.00  0.00    +0.000 C 
BRANCH  17  18
ATOM     18  C   UNL     1       9.240  10.041  19.210  0.00  0.00    +0.000 C 
BRANCH  18  19
ATOM     19  C   UNL     1       9.737  11.491  19.251  0.00  0.00    +0.000 C 
BRANCH  19  20
ATOM     20  C   UNL     1      11.036  11.667  20.043  0.00  0.00    +0.000 C 
BRANCH  20  21
ATOM     21  C   UNL     1      12.061  12.489  19.262  0.00  0.00    +0.000 C 
BRANCH  21  22
ATOM     22  C   UNL     1      11.605  12.744  17.825  0.00  0.00    +0.000 C 
BRANCH  22  23
ATOM     23  C   UNL     1      11.382  14.220  17.568  0.00  0.00    +0.000 C 
ATOM     24  O   UNL     1      11.376  15.086  18.440  0.00  0.00    +0.000 OA
ATOM     25  N   UNL     1      11.184  14.530  16.246  0.00  0.00    +0.000 N 
ATOM     26  H   UNL     1      11.118  13.867  15.483  0.00  0.00    +0.000 HD
BRANCH  25  27
ATOM     27  O   UNL     1      10.943  15.890  15.954  0.00  0.00    +0.000 OA
ATOM     28  H   UNL     1      11.854  16.241  15.835  0.00  0.00    +0.000 HD
ENDBRANCH  25  27
ENDBRANCH  22  23
ENDBRANCH  21  22
ENDBRANCH  20  21
ENDBRANCH  19  20
ENDBRANCH  18  19
ENDBRANCH  17  18
ENDBRANCH   2  17
TORSDOF 13
ENDMDL
MODEL 2
REMARK VINA RESULT:      -6.7      2.381     11.499
REMARK  Name = 
REMARK  13 active torsions:
REMARK  status: ('A' for Active; 'I' for Inactive)
REMARK    1  A    between atoms: C_2  and  C_3
REMARK    2  A    between atoms: C_3  and  O_4
REMARK    3  A    between atoms: O_4  and  C_5
REMARK    4  A    between atoms: C_8  and  C_9
REMARK    5  A    between atoms: N_10  and  N_11
REMARK    6  A    between atoms: C_12  and  C_14
REMARK    7  A    between atoms: C_14  and  C_15
REMARK    8  A    between atoms: C_15  and  C_16
REMARK    9  A    between atoms: C_16  and  C_17
REMARK   10  A    between atoms: C_17  and  C_18
REMARK   11  A    between atoms: C_18  and  C_19
REMARK   12  A    between atoms: C_19  and  C_20
REMARK   13  A    between atoms: N_22  and  O_23
REMARK                            x       y       z     vdW  Elec       q    Type
REMARK                         _______ _______ _______ _____ _____    ______ ____
ROOT
ATOM      1  N   UNL     1       8.269   7.456  18.716  0.00  0.00    +0.000 N 
ATOM      2  C   UNL     1       7.740   6.666  17.702  0.00  0.00    +0.000 C 
ATOM      3  O   UNL     1       7.535   7.051  16.552  0.00  0.00    +0.000 OA
ATOM      4  H   UNL     1       8.412   7.100  19.654  0.00  0.00    +0.000 HD
ENDROOT
BRANCH   1   6
ATOM      5  C   UNL     1       9.108   9.488  19.347  0.00  0.00    +0.000 C 
ATOM      6  N   UNL     1       8.591   8.749  18.418  0.00  0.00    +0.000 NA
BRANCH   5  10
ATOM      7  C   UNL     1      10.151  13.591  18.555  0.00  0.00    +0.000 A 
ATOM      8  C   UNL     1      10.638  12.937  19.690  0.00  0.00    +0.000 A 
ATOM      9  C   UNL     1      10.318  11.598  19.939  0.00  0.00    +0.000 A 
ATOM     10  C   UNL     1       9.476  10.902  19.067  0.00  0.00    +0.000 A 
ATOM     11  C   UNL     1       8.972  11.553  17.937  0.00  0.00    +0.000 A 
ATOM     12  C   UNL     1       9.310  12.895  17.682  0.00  0.00    +0.000 A 
BRANCH   7  13
ATOM     13  O   UNL     1      10.521  14.904  18.438  0.00  0.00    +0.000 OA
BRANCH  13  14
ATOM     14  C   UNL     1      11.367  15.240  17.335  0.00  0.00    +0.000 C 
BRANCH  14  16
ATOM     15  C   UNL     1      11.971  17.847  17.442  0.00  0.00    +0.000 C 
ATOM     16  C   UNL     1      11.722  16.671  17.392  0.00  0.00    +0.000 C 
ENDBRANCH  14  16
ENDBRANCH  13  14
ENDBRANCH   7  13
ENDBRANCH   5  10
ENDBRANCH   1   6
BRANCH   2  17
ATOM     17  C   UNL     1       7.393   5.246  18.117  0.00  0.00    +0.000 C 
BRANCH  17  18
ATOM     18  C   UNL     1       6.083   5.219  18.911  0.00  0.00    +0.000 C 
BRANCH  18  19
ATOM     19  C   UNL     1       4.876   5.764  18.140  0.00  0.00    +0.000 C 
BRANCH  19  20
ATOM     20  C   UNL     1       3.700   4.785  18.079  0.00  0.00    +0.000 C 
BRANCH  20  21
ATOM     21  C   UNL     1       4.073   3.508  17.325  0.00  0.00    +0.000 C 
BRANCH  21  22
ATOM     22  C   UNL     1       3.424   2.273  17.948  0.00  0.00    +0.000 C 
BRANCH  22  23
ATOM     23  C   UNL     1       3.696   2.194  19.436  0.00  0.00    +0.000 C 
ATOM     24  O   UNL     1       2.882   2.482  20.310  0.00  0.00    +0.000 OA
ATOM     25  N   UNL     1       4.960   1.760  19.747  0.00  0.00    +0.000 N 
ATOM     26  H   UNL     1       5.700   1.561  19.085  0.00  0.00    +0.000 HD
BRANCH  25  27
ATOM     27  O   UNL     1       5.276   1.695  21.122  0.00  0.00    +0.000 OA
ATOM     28  H   UNL     1       5.226   2.639  21.390  0.00  0.00    +0.000 HD
ENDBRANCH  25  27
ENDBRANCH  22  23
ENDBRANCH  21  22
ENDBRANCH  20  21
ENDBRANCH  19  20
ENDBRANCH  18  19
ENDBRANCH  17  18
ENDBRANCH   2  17
TORSDOF 13
ENDMDL
MODEL 3
REMARK VINA RESULT:      -6.6      1.038      1.440
REMARK  Name = 
REMARK  13 active torsions:
REMARK  status: ('A' for Active; 'I' for Inactive)
REMARK    1  A    between atoms: C_2  and  C_3
REMARK    2  A    between atoms: C_3  and  O_4
REMARK    3  A    between atoms: O_4  and  C_5
REMARK    4  A    between atoms: C_8  and  C_9
REMARK    5  A    between atoms: N_10  and  N_11
REMARK    6  A    between atoms: C_12  and  C_14
REMARK    7  A    between atoms: C_14  and  C_15
REMARK    8  A    between atoms: C_15  and  C_16
REMARK    9  A    between atoms: C_16  and  C_17
REMARK   10  A    between atoms: C_17  and  C_18
REMARK   11  A    between atoms: C_18  and  C_19
REMARK   12  A    between atoms: C_19  and  C_20
REMARK   13  A    between atoms: N_22  and  O_23
REMARK                            x       y       z     vdW  Elec       q    Type
REMARK                         _______ _______ _______ _____ _____    ______ ____
ROOT
ATOM      1  N   UNL     1       7.006   8.123  17.106  0.00  0.00    +0.000 N 
ATOM      2  C   UNL     1       8.102   8.367  17.926  0.00  0.00    +0.000 C 
ATOM      3  O   UNL     1       8.489   7.610  18.815  0.00  0.00    +0.000 OA
ATOM      4  H   UNL     1       6.715   8.781  16.391  0.00  0.00    +0.000 HD
ENDROOT
BRANCH   1   6
ATOM      5  C   UNL     1       5.021   6.990  17.193  0.00  0.00    +0.000 C 
ATOM      6  N   UNL     1       6.312   6.962  17.291  0.00  0.00    +0.000 NA
BRANCH   5  10
ATOM      7  C   UNL     1       2.723   3.395  17.779  0.00  0.00    +0.000 A 
ATOM      8  C   UNL     1       2.175   4.648  18.069  0.00  0.00    +0.000 A 
ATOM      9  C   UNL     1       2.913   5.819  17.861  0.00  0.00    +0.000 A 
ATOM     10  C   UNL     1       4.224   5.749  17.385  0.00  0.00    +0.000 A 
ATOM     11  C   UNL     1       4.786   4.498  17.107  0.00  0.00    +0.000 A 
ATOM     12  C   UNL     1       4.035   3.325  17.304  0.00  0.00    +0.000 A 
BRANCH   7  13
ATOM     13  O   UNL     1       1.907   2.329  18.047  0.00  0.00    +0.000 OA
BRANCH  13  14
ATOM     14  C   UNL     1       0.762   2.583  18.866  0.00  0.00    +0.000 C 
BRANCH  14  16
ATOM     15  C   UNL     1       1.525   2.685  21.431  0.00  0.00    +0.000 C 
ATOM     16  C   UNL     1       1.164   2.654  20.284  0.00  0.00    +0.000 C 
ENDBRANCH  14  16
ENDBRANCH  13  14
ENDBRANCH   7  13
ENDBRANCH   5  10
ENDBRANCH   1   6
BRANCH   2  17
ATOM     17  C   UNL     1       8.810   9.686  17.668  0.00  0.00    +0.000 C 
BRANCH  17  18
ATOM     18  C   UNL     1       8.705  10.605  18.890  0.00  0.00    +0.000 C 
BRANCH  18  19
ATOM     19  C   UNL     1       9.853  10.438  19.893  0.00  0.00    +0.000 C 
BRANCH  19  20
ATOM     20  C   UNL     1      10.391  11.769  20.427  0.00  0.00    +0.000 C 
BRANCH  20  21
ATOM     21  C   UNL     1      11.814  12.035  19.934  0.00  0.00    +0.000 C 
BRANCH  21  22
ATOM     22  C   UNL     1      11.948  13.428  19.319  0.00  0.00    +0.000 C 
BRANCH  22  23
ATOM     23  C   UNL     1      10.965  13.630  18.184  0.00  0.00    +0.000 C 
ATOM     24  O   UNL     1      10.877  12.899  17.200  0.00  0.00    +0.000 OA
ATOM     25  N   UNL     1      10.151  14.723  18.341  0.00  0.00    +0.000 N 
ATOM     26  H   UNL     1      10.204  15.401  19.093  0.00  0.00    +0.000 HD
BRANCH  25  27
ATOM     27  O   UNL     1       9.234  14.974  17.297  0.00  0.00    +0.000 OA
ATOM     28  H   UNL     1       9.668  15.713  16.815  0.00  0.00    +0.000 HD
ENDBRANCH  25  27
ENDBRANCH  22  23
ENDBRANCH  21  22
ENDBRANCH  20  21
ENDBRANCH  19  20
ENDBRANCH  18  19
ENDBRANCH  17  18
ENDBRANCH   2  17
TORSDOF 13
ENDMDL
MODEL 4
REMARK VINA RESULT:      -6.6      2.744     10.400
REMARK  Name = 
REMARK  13 active torsions:
REMARK  status: ('A' for Active; 'I' for Inactive)
REMARK    1  A    between atoms: C_2  and  C_3
REMARK    2  A    between atoms: C_3  and  O_4
REMARK    3  A    between atoms: O_4  and  C_5
REMARK    4  A    between atoms: C_8  and  C_9
REMARK    5  A    between atoms: N_10  and  N_11
REMARK    6  A    between atoms: C_12  and  C_14
REMARK    7  A    between atoms: C_14  and  C_15
REMARK    8  A    between atoms: C_15  and  C_16
REMARK    9  A    between atoms: C_16  and  C_17
REMARK   10  A    between atoms: C_17  and  C_18
REMARK   11  A    between atoms: C_18  and  C_19
REMARK   12  A    between atoms: C_19  and  C_20
REMARK   13  A    between atoms: N_22  and  O_23
REMARK                            x       y       z     vdW  Elec       q    Type
REMARK                         _______ _______ _______ _____ _____    ______ ____
ROOT
ATOM      1  N   UNL     1       8.520   7.895  18.864  0.00  0.00    +0.000 N 
ATOM      2  C   UNL     1       7.803   7.115  17.966  0.00  0.00    +0.000 C 
ATOM      3  O   UNL     1       7.324   7.527  16.910  0.00  0.00    +0.000 OA
ATOM      4  H   UNL     1       8.888   7.516  19.729  0.00  0.00    +0.000 HD
ENDROOT
BRANCH   1   6
ATOM      5  C   UNL     1       9.244   9.985  19.449  0.00  0.00    +0.000 C 
ATOM      6  N   UNL     1       8.717   9.211  18.555  0.00  0.00    +0.000 NA
BRANCH   5  10
ATOM      7  C   UNL     1       9.949  14.145  18.583  0.00  0.00    +0.000 A 
ATOM      8  C   UNL     1       9.303  13.322  17.657  0.00  0.00    +0.000 A 
ATOM      9  C   UNL     1       9.054  11.975  17.943  0.00  0.00    +0.000 A 
ATOM     10  C   UNL     1       9.479  11.424  19.155  0.00  0.00    +0.000 A 
ATOM     11  C   UNL     1      10.140  12.236  20.083  0.00  0.00    +0.000 A 
ATOM     12  C   UNL     1      10.373  13.594  19.796  0.00  0.00    +0.000 A 
BRANCH   7  13
ATOM     13  O   UNL     1      10.150  15.435  18.173  0.00  0.00    +0.000 OA
BRANCH  13  14
ATOM     14  C   UNL     1       9.654  16.468  19.029  0.00  0.00    +0.000 C 
BRANCH  14  16
ATOM     15  C   UNL     1       7.033  16.851  18.639  0.00  0.00    +0.000 C 
ATOM     16  C   UNL     1       8.210  16.664  18.796  0.00  0.00    +0.000 C 
ENDBRANCH  14  16
ENDBRANCH  13  14
ENDBRANCH   7  13
ENDBRANCH   5  10
ENDBRANCH   1   6
BRANCH   2  17
ATOM     17  C   UNL     1       7.612   5.668  18.390  0.00  0.00    +0.000 C 
BRANCH  17  18
ATOM     18  C   UNL     1       6.520   5.555  19.458  0.00  0.00    +0.000 C 
BRANCH  18  19
ATOM     19  C   UNL     1       5.390   4.587  19.091  0.00  0.00    +0.000 C 
BRANCH  19  20
ATOM     20  C   UNL     1       4.132   5.289  18.571  0.00  0.00    +0.000 C 
BRANCH  20  21
ATOM     21  C   UNL     1       4.265   5.652  17.092  0.00  0.00    +0.000 C 
BRANCH  21  22
ATOM     22  C   UNL     1       4.364   4.407  16.210  0.00  0.00    +0.000 C 
BRANCH  22  23
ATOM     23  C   UNL     1       5.693   4.346  15.484  0.00  0.00    +0.000 C 
ATOM     24  O   UNL     1       6.270   3.307  15.175  0.00  0.00    +0.000 OA
ATOM     25  N   UNL     1       6.219   5.577  15.185  0.00  0.00    +0.000 N 
ATOM     26  H   UNL     1       5.832   6.472  15.458  0.00  0.00    +0.000 HD
BRANCH  25  27
ATOM     27  O   UNL     1       7.472   5.577  14.533  0.00  0.00    +0.000 OA
ATOM     28  H   UNL     1       7.351   6.277  13.853  0.00  0.00    +0.000 HD
ENDBRANCH  25  27
ENDBRANCH  22  23
ENDBRANCH  21  22
ENDBRANCH  20  21
ENDBRANCH  19  20
ENDBRANCH  18  19
ENDBRANCH  17  18
ENDBRANCH   2  17
TORSDOF 13
ENDMDL
MODEL 5
REMARK VINA RESULT:      -6.5      2.538     10.964
REMARK  Name = 
REMARK  13 active torsions:
REMARK  status: ('A' for Active; 'I' for Inactive)
REMARK    1  A    between atoms: C_2  and  C_3
REMARK    2  A    between atoms: C_3  and  O_4
REMARK    3  A    between atoms: O_4  and  C_5
REMARK    4  A    between atoms: C_8  and  C_9
REMARK    5  A    between atoms: N_10  and  N_11
REMARK    6  A    between atoms: C_12  and  C_14
REMARK    7  A    between atoms: C_14  and  C_15
REMARK    8  A    between atoms: C_15  and  C_16
REMARK    9  A    between atoms: C_16  and  C_17
REMARK   10  A    between atoms: C_17  and  C_18
REMARK   11  A    between atoms: C_18  and  C_19
REMARK   12  A    between atoms: C_19  and  C_20
REMARK   13  A    between atoms: N_22  and  O_23
REMARK                            x       y       z     vdW  Elec       q    Type
REMARK                         _______ _______ _______ _____ _____    ______ ____
ROOT
ATOM      1  N   UNL     1       7.595   6.842  17.829  0.00  0.00    +0.000 N 
ATOM      2  C   UNL     1       7.120   5.797  18.613  0.00  0.00    +0.000 C 
ATOM      3  O   UNL     1       7.302   5.694  19.825  0.00  0.00    +0.000 OA
ATOM      4  H   UNL     1       7.430   6.881  16.830  0.00  0.00    +0.000 HD
ENDROOT
BRANCH   1   6
ATOM      5  C   UNL     1       8.273   9.023  17.946  0.00  0.00    +0.000 C 
ATOM      6  N   UNL     1       8.311   7.829  18.444  0.00  0.00    +0.000 NA
BRANCH   5  10
ATOM      7  C   UNL     1      10.452  12.245  19.796  0.00  0.00    +0.000 A 
ATOM      8  C   UNL     1       9.822  11.270  20.574  0.00  0.00    +0.000 A 
ATOM      9  C   UNL     1       9.131  10.211  19.975  0.00  0.00    +0.000 A 
ATOM     10  C   UNL     1       9.034  10.130  18.584  0.00  0.00    +0.000 A 
ATOM     11  C   UNL     1       9.649  11.111  17.797  0.00  0.00    +0.000 A 
ATOM     12  C   UNL     1      10.356  12.165  18.404  0.00  0.00    +0.000 A 
BRANCH   7  13
ATOM     13  O   UNL     1      11.076  13.238  20.502  0.00  0.00    +0.000 OA
BRANCH  13  14
ATOM     14  C   UNL     1      10.242  14.090  21.292  0.00  0.00    +0.000 C 
BRANCH  14  16
ATOM     15  C   UNL     1       8.981  15.836  19.701  0.00  0.00    +0.000 C 
ATOM     16  C   UNL     1       9.527  15.041  20.420  0.00  0.00    +0.000 C 
ENDBRANCH  14  16
ENDBRANCH  13  14
ENDBRANCH   7  13
ENDBRANCH   5  10
ENDBRANCH   1   6
BRANCH   2  17
ATOM     17  C   UNL     1       6.350   4.731  17.853  0.00  0.00    +0.000 C 
BRANCH  17  18
ATOM     18  C   UNL     1       4.840   4.932  18.016  0.00  0.00    +0.000 C 
BRANCH  18  19
ATOM     19  C   UNL     1       4.365   6.356  17.705  0.00  0.00    +0.000 C 
BRANCH  19  20
ATOM     20  C   UNL     1       3.044   6.720  18.390  0.00  0.00    +0.000 C 
BRANCH  20  21
ATOM     21  C   UNL     1       2.262   5.472  18.798  0.00  0.00    +0.000 C 
BRANCH  21  22
ATOM     22  C   UNL     1       2.167   5.335  20.317  0.00  0.00    +0.000 C 
BRANCH  22  23
ATOM     23  C   UNL     1       1.577   3.999  20.718  0.00  0.00    +0.000 C 
ATOM     24  O   UNL     1       0.685   3.419  20.104  0.00  0.00    +0.000 OA
ATOM     25  N   UNL     1       2.133   3.463  21.852  0.00  0.00    +0.000 N 
ATOM     26  H   UNL     1       2.828   3.908  22.441  0.00  0.00    +0.000 HD
BRANCH  25  27
ATOM     27  O   UNL     1       1.599   2.230  22.286  0.00  0.00    +0.000 OA
ATOM     28  H   UNL     1       2.013   1.595  21.661  0.00  0.00    +0.000 HD
ENDBRANCH  25  27
ENDBRANCH  22  23
ENDBRANCH  21  22
ENDBRANCH  20  21
ENDBRANCH  19  20
ENDBRANCH  18  19
ENDBRANCH  17  18
ENDBRANCH   2  17
TORSDOF 13
ENDMDL
MODEL 6
REMARK VINA RESULT:      -6.4      5.988      9.218
REMARK  Name = 
REMARK  13 active torsions:
REMARK  status: ('A' for Active; 'I' for Inactive)
REMARK    1  A    between atoms: C_2  and  C_3
REMARK    2  A    between atoms: C_3  and  O_4
REMARK    3  A    between atoms: O_4  and  C_5
REMARK    4  A    between atoms: C_8  and  C_9
REMARK    5  A    between atoms: N_10  and  N_11
REMARK    6  A    between atoms: C_12  and  C_14
REMARK    7  A    between atoms: C_14  and  C_15
REMARK    8  A    between atoms: C_15  and  C_16
REMARK    9  A    between atoms: C_16  and  C_17
REMARK   10  A    between atoms: C_17  and  C_18
REMARK   11  A    between atoms: C_18  and  C_19
REMARK   12  A    between atoms: C_19  and  C_20
REMARK   13  A    between atoms: N_22  and  O_23
REMARK                            x       y       z     vdW  Elec       q    Type
REMARK                         _______ _______ _______ _____ _____    ______ ____
ROOT
ATOM      1  N   UNL     1       2.513   5.180  20.912  0.00  0.00    +0.000 N 
ATOM      2  C   UNL     1       1.758   4.042  20.654  0.00  0.00    +0.000 C 
ATOM      3  O   UNL     1       0.597   4.052  20.248  0.00  0.00    +0.000 OA
ATOM      4  H   UNL     1       3.465   5.125  21.257  0.00  0.00    +0.000 HD
ENDROOT
BRANCH   1   6
ATOM      5  C   UNL     1       2.316   7.092  19.673  0.00  0.00    +0.000 C 
ATOM      6  N   UNL     1       1.933   6.396  20.695  0.00  0.00    +0.000 NA
BRANCH   5  10
ATOM      7  C   UNL     1       0.587  10.956  18.881  0.00  0.00    +0.000 A 
ATOM      8  C   UNL     1       1.338  10.297  17.905  0.00  0.00    +0.000 A 
ATOM      9  C   UNL     1       1.884   9.032  18.152  0.00  0.00    +0.000 A 
ATOM     10  C   UNL     1       1.710   8.422  19.397  0.00  0.00    +0.000 A 
ATOM     11  C   UNL     1       0.972   9.082  20.385  0.00  0.00    +0.000 A 
ATOM     12  C   UNL     1       0.412  10.346  20.126  0.00  0.00    +0.000 A 
BRANCH   7  13
ATOM     13  O   UNL     1       0.126  12.194  18.522  0.00  0.00    +0.000 OA
BRANCH  13  14
ATOM     14  C   UNL     1       0.953  13.312  18.857  0.00  0.00    +0.000 C 
BRANCH  14  16
ATOM     15  C   UNL     1      -0.604  15.425  19.391  0.00  0.00    +0.000 C 
ATOM     16  C   UNL     1       0.112  14.485  19.165  0.00  0.00    +0.000 C 
ENDBRANCH  14  16
ENDBRANCH  13  14
ENDBRANCH   7  13
ENDBRANCH   5  10
ENDBRANCH   1   6
BRANCH   2  17
ATOM     17  C   UNL     1       2.468   2.729  20.937  0.00  0.00    +0.000 C 
BRANCH  17  18
ATOM     18  C   UNL     1       3.512   2.433  19.855  0.00  0.00    +0.000 C 
BRANCH  18  19
ATOM     19  C   UNL     1       3.025   2.709  18.428  0.00  0.00    +0.000 C 
BRANCH  19  20
ATOM     20  C   UNL     1       4.142   3.152  17.479  0.00  0.00    +0.000 C 
BRANCH  20  21
ATOM     21  C   UNL     1       4.180   4.673  17.329  0.00  0.00    +0.000 C 
BRANCH  21  22
ATOM     22  C   UNL     1       5.601   5.220  17.456  0.00  0.00    +0.000 C 
BRANCH  22  23
ATOM     23  C   UNL     1       6.042   5.289  18.903  0.00  0.00    +0.000 C 
ATOM     24  O   UNL     1       5.277   5.333  19.863  0.00  0.00    +0.000 OA
ATOM     25  N   UNL     1       7.404   5.295  19.070  0.00  0.00    +0.000 N 
ATOM     26  H   UNL     1       8.094   5.319  18.328  0.00  0.00    +0.000 HD
BRANCH  25  27
ATOM     27  O   UNL     1       7.869   5.387  20.400  0.00  0.00    +0.000 OA
ATOM     28  H   UNL     1       7.111   5.817  20.855  0.00  0.00    +0.000 HD
ENDBRANCH  25  27
ENDBRANCH  22  23
ENDBRANCH  21  22
ENDBRANCH  20  21
ENDBRANCH  19  20
ENDBRANCH  18  19
ENDBRANCH  17  18
ENDBRANCH   2  17
TORSDOF 13
ENDMDL
MODEL 7
REMARK VINA RESULT:      -6.4      2.323     11.198
REMARK  Name = 
REMARK  13 active torsions:
REMARK  status: ('A' for Active; 'I' for Inactive)
REMARK    1  A    between atoms: C_2  and  C_3
REMARK    2  A    between atoms: C_3  and  O_4
REMARK    3  A    between atoms: O_4  and  C_5
REMARK    4  A    between atoms: C_8  and  C_9
REMARK    5  A    between atoms: N_10  and  N_11
REMARK    6  A    between atoms: C_12  and  C_14
REMARK    7  A    between atoms: C_14  and  C_15
REMARK    8  A    between atoms: C_15  and  C_16
REMARK    9  A    between atoms: C_16  and  C_17
REMARK   10  A    between atoms: C_17  and  C_18
REMARK   11  A    between atoms: C_18  and  C_19
REMARK   12  A    between atoms: C_19  and  C_20
REMARK   13  A    between atoms: N_22  and  O_23
REMARK                            x       y       z     vdW  Elec       q    Type
REMARK                         _______ _______ _______ _____ _____    ______ ____
ROOT
ATOM      1  N   UNL     1       7.075   6.735  16.863  0.00  0.00    +0.000 N 
ATOM      2  C   UNL     1       5.714   6.469  16.950  0.00  0.00    +0.000 C 
ATOM      3  O   UNL     1       4.851   7.313  17.187  0.00  0.00    +0.000 OA
ATOM      4  H   UNL     1       7.753   6.005  16.677  0.00  0.00    +0.000 HD
ENDROOT
BRANCH   1   6
ATOM      5  C   UNL     1       8.139   8.318  18.126  0.00  0.00    +0.000 C 
ATOM      6  N   UNL     1       7.489   8.024  17.046  0.00  0.00    +0.000 NA
BRANCH   5  10
ATOM      7  C   UNL     1       9.482  12.347  18.840  0.00  0.00    +0.000 A 
ATOM      8  C   UNL     1       9.843  11.311  19.705  0.00  0.00    +0.000 A 
ATOM      9  C   UNL     1       9.425   9.997  19.464  0.00  0.00    +0.000 A 
ATOM     10  C   UNL     1       8.611   9.708  18.366  0.00  0.00    +0.000 A 
ATOM     11  C   UNL     1       8.231  10.742  17.504  0.00  0.00    +0.000 A 
ATOM     12  C   UNL     1       8.667  12.059  17.742  0.00  0.00    +0.000 A 
BRANCH   7  13
ATOM     13  O   UNL     1       9.937  13.587  19.199  0.00  0.00    +0.000 OA
BRANCH  13  14
ATOM     14  C   UNL     1      11.249  13.945  18.756  0.00  0.00    +0.000 C 
BRANCH  14  16
ATOM     15  C   UNL     1      11.131  15.879  16.906  0.00  0.00    +0.000 C 
ATOM     16  C   UNL     1      11.163  15.003  17.731  0.00  0.00    +0.000 C 
ENDBRANCH  14  16
ENDBRANCH  13  14
ENDBRANCH   7  13
ENDBRANCH   5  10
ENDBRANCH   1   6
BRANCH   2  17
ATOM     17  C   UNL     1       5.336   5.011  16.752  0.00  0.00    +0.000 C 
BRANCH  17  18
ATOM     18  C   UNL     1       4.573   4.478  17.969  0.00  0.00    +0.000 C 
BRANCH  18  19
ATOM     19  C   UNL     1       4.021   3.060  17.785  0.00  0.00    +0.000 C 
BRANCH  19  20
ATOM     20  C   UNL     1       2.527   3.028  17.449  0.00  0.00    +0.000 C 
BRANCH  20  21
ATOM     21  C   UNL     1       1.756   2.124  18.411  0.00  0.00    +0.000 C 
BRANCH  21  22
ATOM     22  C   UNL     1       0.767   2.919  19.264  0.00  0.00    +0.000 C 
BRANCH  22  23
ATOM     23  C   UNL     1       1.446   3.539  20.467  0.00  0.00    +0.000 C 
ATOM     24  O   UNL     1       1.679   2.947  21.518  0.00  0.00    +0.000 OA
ATOM     25  N   UNL     1       1.798   4.854  20.290  0.00  0.00    +0.000 N 
ATOM     26  H   UNL     1       1.588   5.421  19.477  0.00  0.00    +0.000 HD
BRANCH  25  27
ATOM     27  O   UNL     1       2.410   5.489  21.392  0.00  0.00    +0.000 OA
ATOM     28  H   UNL     1       1.779   6.217  21.588  0.00  0.00    +0.000 HD
ENDBRANCH  25  27
ENDBRANCH  22  23
ENDBRANCH  21  22
ENDBRANCH  20  21
ENDBRANCH  19  20
ENDBRANCH  18  19
ENDBRANCH  17  18
ENDBRANCH   2  17
TORSDOF 13
ENDMDL
MODEL 8
REMARK VINA RESULT:      -6.4      2.716     10.518
REMARK  Name = 
REMARK  13 active torsions:
REMARK  status: ('A' for Active; 'I' for Inactive)
REMARK    1  A    between atoms: C_2  and  C_3
REMARK    2  A    between atoms: C_3  and  O_4
REMARK    3  A    between atoms: O_4  and  C_5
REMARK    4  A    between atoms: C_8  and  C_9
REMARK    5  A    between atoms: N_10  and  N_11
REMARK    6  A    between atoms: C_12  and  C_14
REMARK    7  A    between atoms: C_14  and  C_15
REMARK    8  A    between atoms: C_15  and  C_16
REMARK    9  A    between atoms: C_16  and  C_17
REMARK   10  A    between atoms: C_17  and  C_18
REMARK   11  A    between atoms: C_18  and  C_19
REMARK   12  A    between atoms: C_19  and  C_20
REMARK   13  A    between atoms: N_22  and  O_23
REMARK                            x       y       z     vdW  Elec       q    Type
REMARK                         _______ _______ _______ _____ _____    ______ ____
ROOT
ATOM      1  N   UNL     1       7.697   6.946  17.789  0.00  0.00    +0.000 N 
ATOM      2  C   UNL     1       7.614   5.756  18.502  0.00  0.00    +0.000 C 
ATOM      3  O   UNL     1       8.081   5.583  19.627  0.00  0.00    +0.000 OA
ATOM      4  H   UNL     1       7.306   7.042  16.859  0.00  0.00    +0.000 HD
ENDROOT
BRANCH   1   6
ATOM      5  C   UNL     1       8.161   9.184  17.879  0.00  0.00    +0.000 C 
ATOM      6  N   UNL     1       8.337   8.001  18.374  0.00  0.00    +0.000 NA
BRANCH   5  10
ATOM      7  C   UNL     1      10.140  12.589  19.621  0.00  0.00    +0.000 A 
ATOM      8  C   UNL     1       9.549  12.677  18.359  0.00  0.00    +0.000 A 
ATOM      9  C   UNL     1       8.887  11.578  17.799  0.00  0.00    +0.000 A 
ATOM     10  C   UNL     1       8.835  10.363  18.486  0.00  0.00    +0.000 A 
ATOM     11  C   UNL     1       9.438  10.262  19.744  0.00  0.00    +0.000 A 
ATOM     12  C   UNL     1      10.089  11.374  20.310  0.00  0.00    +0.000 A 
BRANCH   7  13
ATOM     13  O   UNL     1      10.773  13.727  20.046  0.00  0.00    +0.000 OA
BRANCH  13  14
ATOM     14  C   UNL     1       9.949  14.871  20.286  0.00  0.00    +0.000 C 
BRANCH  14  16
ATOM     15  C   UNL     1      10.890  16.940  18.869  0.00  0.00    +0.000 C 
ATOM     16  C   UNL     1      10.446  16.020  19.505  0.00  0.00    +0.000 C 
ENDBRANCH  14  16
ENDBRANCH  13  14
ENDBRANCH   7  13
ENDBRANCH   5  10
ENDBRANCH   1   6
BRANCH   2  17
ATOM     17  C   UNL     1       6.903   4.627  17.777  0.00  0.00    +0.000 C 
BRANCH  17  18
ATOM     18  C   UNL     1       6.491   5.062  16.367  0.00  0.00    +0.000 C 
BRANCH  18  19
ATOM     19  C   UNL     1       4.974   5.127  16.155  0.00  0.00    +0.000 C 
BRANCH  19  20
ATOM     20  C   UNL     1       4.220   3.958  16.795  0.00  0.00    +0.000 C 
BRANCH  20  21
ATOM     21  C   UNL     1       3.007   4.442  17.590  0.00  0.00    +0.000 C 
BRANCH  21  22
ATOM     22  C   UNL     1       3.379   4.797  19.029  0.00  0.00    +0.000 C 
BRANCH  22  23
ATOM     23  C   UNL     1       2.817   6.146  19.430  0.00  0.00    +0.000 C 
ATOM     24  O   UNL     1       2.833   7.147  18.718  0.00  0.00    +0.000 OA
ATOM     25  N   UNL     1       2.266   6.167  20.686  0.00  0.00    +0.000 N 
ATOM     26  H   UNL     1       2.268   5.401  21.349  0.00  0.00    +0.000 HD
BRANCH  25  27
ATOM     27  O   UNL     1       1.752   7.409  21.121  0.00  0.00    +0.000 OA
ATOM     28  H   UNL     1       2.506   7.778  21.631  0.00  0.00    +0.000 HD
ENDBRANCH  25  27
ENDBRANCH  22  23
ENDBRANCH  21  22
ENDBRANCH  20  21
ENDBRANCH  19  20
ENDBRANCH  18  19
ENDBRANCH  17  18
ENDBRANCH   2  17
TORSDOF 13
ENDMDL
MODEL 9
REMARK VINA RESULT:      -6.4      6.553      9.584
REMARK  Name = 
REMARK  13 active torsions:
REMARK  status: ('A' for Active; 'I' for Inactive)
REMARK    1  A    between atoms: C_2  and  C_3
REMARK    2  A    between atoms: C_3  and  O_4
REMARK    3  A    between atoms: O_4  and  C_5
REMARK    4  A    between atoms: C_8  and  C_9
REMARK    5  A    between atoms: N_10  and  N_11
REMARK    6  A    between atoms: C_12  and  C_14
REMARK    7  A    between atoms: C_14  and  C_15
REMARK    8  A    between atoms: C_15  and  C_16
REMARK    9  A    between atoms: C_16  and  C_17
REMARK   10  A    between atoms: C_17  and  C_18
REMARK   11  A    between atoms: C_18  and  C_19
REMARK   12  A    between atoms: C_19  and  C_20
REMARK   13  A    between atoms: N_22  and  O_23
REMARK                            x       y       z     vdW  Elec       q    Type
REMARK                         _______ _______ _______ _____ _____    ______ ____
ROOT
ATOM      1  N   UNL     1       3.970   6.174  18.096  0.00  0.00    +0.000 N 
ATOM      2  C   UNL     1       2.660   6.061  18.545  0.00  0.00    +0.000 C 
ATOM      3  O   UNL     1       1.757   5.494  17.929  0.00  0.00    +0.000 OA
ATOM      4  H   UNL     1       4.680   6.660  18.632  0.00  0.00    +0.000 HD
ENDROOT
BRANCH   1   6
ATOM      5  C   UNL     1       5.529   5.576  16.532  0.00  0.00    +0.000 C 
ATOM      6  N   UNL     1       4.285   5.614  16.891  0.00  0.00    +0.000 NA
BRANCH   5  10
ATOM      7  C   UNL     1       6.669   3.805  12.775  0.00  0.00    +0.000 A 
ATOM      8  C   UNL     1       5.447   3.485  13.374  0.00  0.00    +0.000 A 
ATOM      9  C   UNL     1       5.065   4.074  14.585  0.00  0.00    +0.000 A 
ATOM     10  C   UNL     1       5.918   4.973  15.230  0.00  0.00    +0.000 A 
ATOM     11  C   UNL     1       7.150   5.288  14.645  0.00  0.00    +0.000 A 
ATOM     12  C   UNL     1       7.522   4.705  13.420  0.00  0.00    +0.000 A 
BRANCH   7  13
ATOM     13  O   UNL     1       6.932   3.145  11.605  0.00  0.00    +0.000 OA
BRANCH  13  14
ATOM     14  C   UNL     1       5.858   2.395  11.032  0.00  0.00    +0.000 C 
BRANCH  14  16
ATOM     15  C   UNL     1       6.332  -0.220  11.364  0.00  0.00    +0.000 C 
ATOM     16  C   UNL     1       6.097   0.951  11.220  0.00  0.00    +0.000 C 
ENDBRANCH  14  16
ENDBRANCH  13  14
ENDBRANCH   7  13
ENDBRANCH   5  10
ENDBRANCH   1   6
BRANCH   2  17
ATOM     17  C   UNL     1       2.385   6.724  19.883  0.00  0.00    +0.000 C 
BRANCH  17  18
ATOM     18  C   UNL     1       1.508   5.828  20.763  0.00  0.00    +0.000 C 
BRANCH  18  19
ATOM     19  C   UNL     1       2.228   4.585  21.298  0.00  0.00    +0.000 C 
BRANCH  19  20
ATOM     20  C   UNL     1       1.373   3.316  21.242  0.00  0.00    +0.000 C 
BRANCH  20  21
ATOM     21  C   UNL     1       1.149   2.855  19.801  0.00  0.00    +0.000 C 
BRANCH  21  22
ATOM     22  C   UNL     1       2.165   1.793  19.382  0.00  0.00    +0.000 C 
BRANCH  22  23
ATOM     23  C   UNL     1       3.316   2.403  18.608  0.00  0.00    +0.000 C 
ATOM     24  O   UNL     1       3.320   2.582  17.393  0.00  0.00    +0.000 OA
ATOM     25  N   UNL     1       4.386   2.756  19.390  0.00  0.00    +0.000 N 
ATOM     26  H   UNL     1       4.478   2.586  20.385  0.00  0.00    +0.000 HD
BRANCH  25  27
ATOM     27  O   UNL     1       5.499   3.303  18.714  0.00  0.00    +0.000 OA
ATOM     28  H   UNL     1       5.310   3.066  17.779  0.00  0.00    +0.000 HD
ENDBRANCH  25  27
ENDBRANCH  22  23
ENDBRANCH  21  22
ENDBRANCH  20  21
ENDBRANCH  19  20
ENDBRANCH  18  19
ENDBRANCH  17  18
ENDBRANCH   2  17
TORSDOF 13
ENDMDL
