MODEL 1
REMARK VINA RESULT:      -7.2      0.000      0.000
REMARK  Name = 
REMARK  1 active torsions:
REMARK  status: ('A' for Active; 'I' for Inactive)
REMARK    1  A    between atoms: C_1  and  N_2
REMARK                            x       y       z     vdW  Elec       q    Type
REMARK                         _______ _______ _______ _____ _____    ______ ____
ROOT
ATOM      1  C   UNL     1       1.977   2.925  21.959  0.00  0.00    +0.000 C 
ATOM      2  N   UNL     1       1.886   3.619  20.684  0.00  0.00    +0.000 NA
ATOM      3  C   UNL     1       0.748   3.179  19.885  0.00  0.00    +0.000 C 
ATOM      4  C   UNL     1       1.072   3.629  18.465  0.00  0.00    +0.000 C 
ATOM      5  C   UNL     1       2.606   3.814  18.420  0.00  0.00    +0.000 C 
ATOM      6  C   UNL     1       3.212   2.869  17.364  0.00  0.00    +0.000 C 
ATOM      7  O   UNL     1       4.610   3.124  17.204  0.00  0.00    +0.000 OA
ATOM      8  C   UNL     1       4.824   4.384  16.560  0.00  0.00    +0.000 C 
ATOM      9  C   UNL     1       4.072   5.485  17.230  0.00  0.00    +0.000 A 
ATOM     10  C   UNL     1       4.336   6.811  16.966  0.00  0.00    +0.000 A 
ATOM     11  N   UNL     1       3.650   7.836  17.504  0.00  0.00    +0.000 NA
ATOM     12  C   UNL     1       2.667   7.532  18.360  0.00  0.00    +0.000 A 
ATOM     13  N   UNL     1       1.878   8.537  18.870  0.00  0.00    +0.000 N 
ATOM     14  C   UNL     1       1.377   8.384  20.237  0.00  0.00    +0.000 C 
ATOM     15  C   UNL     1       0.089   9.213  20.362  0.00  0.00    +0.000 C 
ATOM     16  O   UNL     1       0.316  10.595  20.021  0.00  0.00    +0.000 OA
ATOM     17  C   UNL     1       0.818  10.709  18.675  0.00  0.00    +0.000 C 
ATOM     18  C   UNL     1       2.127   9.923  18.482  0.00  0.00    +0.000 C 
ATOM     19  N   UNL     1       2.348   6.265  18.677  0.00  0.00    +0.000 NA
ATOM     20  C   UNL     1       3.025   5.249  18.097  0.00  0.00    +0.000 A 
ATOM     21  C   UNL     1       3.071   3.418  19.837  0.00  0.00    +0.000 C 
ENDROOT
TORSDOF 0
ENDMDL
MODEL 2
REMARK VINA RESULT:      -6.6      1.706      3.794
REMARK  Name = 
REMARK  1 active torsions:
REMARK  status: ('A' for Active; 'I' for Inactive)
REMARK    1  A    between atoms: C_1  and  N_2
REMARK                            x       y       z     vdW  Elec       q    Type
REMARK                         _______ _______ _______ _____ _____    ______ ____
ROOT
ATOM      1  C   UNL     1       5.201   5.014  15.014  0.00  0.00    +0.000 C 
ATOM      2  N   UNL     1       4.998   5.340  16.417  0.00  0.00    +0.000 NA
ATOM      3  C   UNL     1       6.229   5.750  17.082  0.00  0.00    +0.000 C 
ATOM      4  C   UNL     1       5.941   5.589  18.570  0.00  0.00    +0.000 C 
ATOM      5  C   UNL     1       4.768   4.586  18.667  0.00  0.00    +0.000 C 
ATOM      6  C   UNL     1       5.208   3.348  19.471  0.00  0.00    +0.000 C 
ATOM      7  O   UNL     1       4.100   2.473  19.695  0.00  0.00    +0.000 OA
ATOM      8  C   UNL     1       3.177   3.054  20.621  0.00  0.00    +0.000 C 
ATOM      9  C   UNL     1       2.793   4.441  20.228  0.00  0.00    +0.000 A 
ATOM     10  C   UNL     1       1.722   5.090  20.801  0.00  0.00    +0.000 A 
ATOM     11  N   UNL     1       1.371   6.358  20.517  0.00  0.00    +0.000 NA
ATOM     12  C   UNL     1       2.107   7.008  19.608  0.00  0.00    +0.000 A 
ATOM     13  N   UNL     1       1.846   8.332  19.347  0.00  0.00    +0.000 N 
ATOM     14  C   UNL     1       2.055   8.813  17.980  0.00  0.00    +0.000 C 
ATOM     15  C   UNL     1       2.328  10.324  18.048  0.00  0.00    +0.000 C 
ATOM     16  O   UNL     1       1.256  11.025  18.709  0.00  0.00    +0.000 OA
ATOM     17  C   UNL     1       1.069  10.521  20.046  0.00  0.00    +0.000 C 
ATOM     18  C   UNL     1       0.764   9.012  20.054  0.00  0.00    +0.000 C 
ATOM     19  N   UNL     1       3.166   6.447  18.998  0.00  0.00    +0.000 NA
ATOM     20  C   UNL     1       3.523   5.185  19.324  0.00  0.00    +0.000 A 
ATOM     21  C   UNL     1       4.480   4.208  17.199  0.00  0.00    +0.000 C 
ENDROOT
TORSDOF 0
ENDMDL
MODEL 3
REMARK VINA RESULT:      -6.1      1.165      1.267
REMARK  Name = 
REMARK  1 active torsions:
REMARK  status: ('A' for Active; 'I' for Inactive)
REMARK    1  A    between atoms: C_1  and  N_2
REMARK                            x       y       z     vdW  Elec       q    Type
REMARK                         _______ _______ _______ _____ _____    ______ ____
ROOT
ATOM      1  C   UNL     1       3.590   2.595  21.305  0.00  0.00    +0.000 C 
ATOM      2  N   UNL     1       3.100   3.454  20.238  0.00  0.00    +0.000 NA
ATOM      3  C   UNL     1       2.014   2.844  19.481  0.00  0.00    +0.000 C 
ATOM      4  C   UNL     1       1.959   3.630  18.175  0.00  0.00    +0.000 C 
ATOM      5  C   UNL     1       3.352   4.282  18.017  0.00  0.00    +0.000 C 
ATOM      6  C   UNL     1       4.014   3.785  16.717  0.00  0.00    +0.000 C 
ATOM      7  O   UNL     1       5.239   4.482  16.478  0.00  0.00    +0.000 OA
ATOM      8  C   UNL     1       4.984   5.844  16.120  0.00  0.00    +0.000 C 
ATOM      9  C   UNL     1       4.078   6.515  17.097  0.00  0.00    +0.000 A 
ATOM     10  C   UNL     1       3.914   7.882  17.117  0.00  0.00    +0.000 A 
ATOM     11  N   UNL     1       3.069   8.527  17.942  0.00  0.00    +0.000 NA
ATOM     12  C   UNL     1       2.365   7.781  18.802  0.00  0.00    +0.000 A 
ATOM     13  N   UNL     1       1.424   8.380  19.605  0.00  0.00    +0.000 N 
ATOM     14  C   UNL     1       1.218   7.827  20.946  0.00  0.00    +0.000 C 
ATOM     15  C   UNL     1      -0.210   8.181  21.387  0.00  0.00    +0.000 C 
ATOM     16  O   UNL     1      -0.437   9.604  21.350  0.00  0.00    +0.000 OA
ATOM     17  C   UNL     1      -0.216  10.118  20.021  0.00  0.00    +0.000 C 
ATOM     18  C   UNL     1       1.210   9.823  19.521  0.00  0.00    +0.000 C 
ATOM     19  N   UNL     1       2.468   6.441  18.852  0.00  0.00    +0.000 NA
ATOM     20  C   UNL     1       3.296   5.811  17.989  0.00  0.00    +0.000 A 
ATOM     21  C   UNL     1       4.136   3.789  19.251  0.00  0.00    +0.000 C 
ENDROOT
TORSDOF 0
ENDMDL
MODEL 4
REMARK VINA RESULT:      -6.0      7.014      9.378
REMARK  Name = 
REMARK  1 active torsions:
REMARK  status: ('A' for Active; 'I' for Inactive)
REMARK    1  A    between atoms: C_1  and  N_2
REMARK                            x       y       z     vdW  Elec       q    Type
REMARK                         _______ _______ _______ _____ _____    ______ ____
ROOT
ATOM      1  C   UNL     1       0.630  13.538  19.227  0.00  0.00    +0.000 C 
ATOM      2  N   UNL     1      -0.528  12.658  19.247  0.00  0.00    +0.000 NA
ATOM      3  C   UNL     1      -0.209  11.322  19.738  0.00  0.00    +0.000 C 
ATOM      4  C   UNL     1      -1.360  10.445  19.257  0.00  0.00    +0.000 C 
ATOM      5  C   UNL     1      -1.992  11.197  18.062  0.00  0.00    +0.000 C 
ATOM      6  C   UNL     1      -1.902  10.326  16.794  0.00  0.00    +0.000 C 
ATOM      7  O   UNL     1      -2.607  10.939  15.712  0.00  0.00    +0.000 OA
ATOM      8  C   UNL     1      -4.018  10.898  15.940  0.00  0.00    +0.000 C 
ATOM      9  C   UNL     1      -4.380  11.430  17.286  0.00  0.00    +0.000 A 
ATOM     10  C   UNL     1      -5.678  11.746  17.619  0.00  0.00    +0.000 A 
ATOM     11  N   UNL     1      -6.060  12.177  18.835  0.00  0.00    +0.000 NA
ATOM     12  C   UNL     1      -5.104  12.320  19.761  0.00  0.00    +0.000 A 
ATOM     13  N   UNL     1      -5.452  12.672  21.044  0.00  0.00    +0.000 N 
ATOM     14  C   UNL     1      -4.519  13.512  21.798  0.00  0.00    +0.000 C 
ATOM     15  C   UNL     1      -4.757  13.256  23.294  0.00  0.00    +0.000 C 
ATOM     16  O   UNL     1      -6.128  13.508  23.661  0.00  0.00    +0.000 OA
ATOM     17  C   UNL     1      -7.020  12.675  22.895  0.00  0.00    +0.000 C 
ATOM     18  C   UNL     1      -6.855  12.899  21.380  0.00  0.00    +0.000 C 
ATOM     19  N   UNL     1      -3.812  12.039  19.518  0.00  0.00    +0.000 NA
ATOM     20  C   UNL     1      -3.456  11.572  18.301  0.00  0.00    +0.000 A 
ATOM     21  C   UNL     1      -1.123  12.463  17.917  0.00  0.00    +0.000 C 
ENDROOT
TORSDOF 0
ENDMDL
MODEL 5
REMARK VINA RESULT:      -5.6      5.786      8.366
REMARK  Name = 
REMARK  1 active torsions:
REMARK  status: ('A' for Active; 'I' for Inactive)
REMARK    1  A    between atoms: C_1  and  N_2
REMARK                            x       y       z     vdW  Elec       q    Type
REMARK                         _______ _______ _______ _____ _____    ______ ____
ROOT
ATOM      1  C   UNL     1      -2.699  11.129  16.665  0.00  0.00    +0.000 C 
ATOM      2  N   UNL     1      -1.997  11.514  17.879  0.00  0.00    +0.000 NA
ATOM      3  C   UNL     1      -0.976  12.527  17.639  0.00  0.00    +0.000 C 
ATOM      4  C   UNL     1      -0.062  12.456  18.858  0.00  0.00    +0.000 C 
ATOM      5  C   UNL     1      -0.280  11.051  19.468  0.00  0.00    +0.000 C 
ATOM      6  C   UNL     1       1.049  10.273  19.468  0.00  0.00    +0.000 C 
ATOM      7  O   UNL     1       0.904   9.028  20.156  0.00  0.00    +0.000 OA
ATOM      8  C   UNL     1       0.743   9.243  21.561  0.00  0.00    +0.000 C 
ATOM      9  C   UNL     1      -0.333  10.234  21.853  0.00  0.00    +0.000 A 
ATOM     10  C   UNL     1      -0.853  10.394  23.118  0.00  0.00    +0.000 A 
ATOM     11  N   UNL     1      -1.785  11.309  23.439  0.00  0.00    +0.000 NA
ATOM     12  C   UNL     1      -2.237  12.094  22.454  0.00  0.00    +0.000 A 
ATOM     13  N   UNL     1      -3.124  13.104  22.745  0.00  0.00    +0.000 N 
ATOM     14  C   UNL     1      -4.135  13.436  21.739  0.00  0.00    +0.000 C 
ATOM     15  C   UNL     1      -4.554  14.898  21.957  0.00  0.00    +0.000 C 
ATOM     16  O   UNL     1      -5.035  15.115  23.298  0.00  0.00    +0.000 OA
ATOM     17  C   UNL     1      -4.022  14.769  24.263  0.00  0.00    +0.000 C 
ATOM     18  C   UNL     1      -3.571  13.303  24.121  0.00  0.00    +0.000 C 
ATOM     19  N   UNL     1      -1.788  12.001  21.190  0.00  0.00    +0.000 NA
ATOM     20  C   UNL     1      -0.825  11.099  20.896  0.00  0.00    +0.000 A 
ATOM     21  C   UNL     1      -1.300  10.388  18.518  0.00  0.00    +0.000 C 
ENDROOT
TORSDOF 0
ENDMDL
MODEL 6
REMARK VINA RESULT:      -5.6      6.298      9.139
REMARK  Name = 
REMARK  1 active torsions:
REMARK  status: ('A' for Active; 'I' for Inactive)
REMARK    1  A    between atoms: C_1  and  N_2
REMARK                            x       y       z     vdW  Elec       q    Type
REMARK                         _______ _______ _______ _____ _____    ______ ____
ROOT
ATOM      1  C   UNL     1       0.777   9.278  22.332  0.00  0.00    +0.000 C 
ATOM      2  N   UNL     1       0.141  10.406  21.671  0.00  0.00    +0.000 NA
ATOM      3  C   UNL     1       1.105  11.381  21.173  0.00  0.00    +0.000 C 
ATOM      4  C   UNL     1       0.295  12.656  20.960  0.00  0.00    +0.000 C 
ATOM      5  C   UNL     1      -0.959  12.514  21.853  0.00  0.00    +0.000 C 
ATOM      6  C   UNL     1      -0.996  13.659  22.883  0.00  0.00    +0.000 C 
ATOM      7  O   UNL     1      -2.218  13.630  23.624  0.00  0.00    +0.000 OA
ATOM      8  C   UNL     1      -3.321  14.008  22.795  0.00  0.00    +0.000 C 
ATOM      9  C   UNL     1      -3.356  13.225  21.525  0.00  0.00    +0.000 A 
ATOM     10  C   UNL     1      -4.464  13.213  20.707  0.00  0.00    +0.000 A 
ATOM     11  N   UNL     1      -4.522  12.567  19.529  0.00  0.00    +0.000 NA
ATOM     12  C   UNL     1      -3.435  11.884  19.151  0.00  0.00    +0.000 A 
ATOM     13  N   UNL     1      -3.411  11.279  17.916  0.00  0.00    +0.000 N 
ATOM     14  C   UNL     1      -2.675  10.019  17.787  0.00  0.00    +0.000 C 
ATOM     15  C   UNL     1      -2.246   9.873  16.319  0.00  0.00    +0.000 C 
ATOM     16  O   UNL     1      -3.379   9.930  15.430  0.00  0.00    +0.000 OA
ATOM     17  C   UNL     1      -4.086  11.176  15.589  0.00  0.00    +0.000 C 
ATOM     18  C   UNL     1      -4.572  11.379  17.036  0.00  0.00    +0.000 C 
ATOM     19  N   UNL     1      -2.314  11.838  19.892  0.00  0.00    +0.000 NA
ATOM     20  C   UNL     1      -2.264  12.524  21.055  0.00  0.00    +0.000 A 
ATOM     21  C   UNL     1      -0.763  11.154  22.556  0.00  0.00    +0.000 C 
ENDROOT
TORSDOF 0
ENDMDL
MODEL 7
REMARK VINA RESULT:      -5.5      3.864      6.511
REMARK  Name = 
REMARK  1 active torsions:
REMARK  status: ('A' for Active; 'I' for Inactive)
REMARK    1  A    between atoms: C_1  and  N_2
REMARK                            x       y       z     vdW  Elec       q    Type
REMARK                         _______ _______ _______ _____ _____    ______ ____
ROOT
ATOM      1  C   UNL     1       0.885   4.083  17.289  0.00  0.00    +0.000 C 
ATOM      2  N   UNL     1       2.299   3.754  17.211  0.00  0.00    +0.000 NA
ATOM      3  C   UNL     1       2.582   2.388  17.636  0.00  0.00    +0.000 C 
ATOM      4  C   UNL     1       4.076   2.375  17.940  0.00  0.00    +0.000 C 
ATOM      5  C   UNL     1       4.466   3.848  18.202  0.00  0.00    +0.000 C 
ATOM      6  C   UNL     1       5.027   3.992  19.630  0.00  0.00    +0.000 C 
ATOM      7  O   UNL     1       5.526   5.314  19.844  0.00  0.00    +0.000 OA
ATOM      8  C   UNL     1       6.720   5.533  19.087  0.00  0.00    +0.000 C 
ATOM      9  C   UNL     1       6.542   5.170  17.650  0.00  0.00    +0.000 A 
ATOM     10  C   UNL     1       7.448   5.549  16.686  0.00  0.00    +0.000 A 
ATOM     11  N   UNL     1       7.358   5.201  15.389  0.00  0.00    +0.000 NA
ATOM     12  C   UNL     1       6.307   4.455  15.028  0.00  0.00    +0.000 A 
ATOM     13  N   UNL     1       6.214   3.998  13.734  0.00  0.00    +0.000 N 
ATOM     14  C   UNL     1       4.877   3.873  13.149  0.00  0.00    +0.000 C 
ATOM     15  C   UNL     1       4.946   2.810  12.042  0.00  0.00    +0.000 C 
ATOM     16  O   UNL     1       5.940   3.142  11.052  0.00  0.00    +0.000 OA
ATOM     17  C   UNL     1       7.239   3.268  11.661  0.00  0.00    +0.000 C 
ATOM     18  C   UNL     1       7.253   4.340  12.767  0.00  0.00    +0.000 C 
ATOM     19  N   UNL     1       5.373   4.046  15.905  0.00  0.00    +0.000 NA
ATOM     20  C   UNL     1       5.503   4.376  17.209  0.00  0.00    +0.000 A 
ATOM     21  C   UNL     1       3.135   4.617  18.059  0.00  0.00    +0.000 C 
ENDROOT
TORSDOF 0
ENDMDL
MODEL 8
REMARK VINA RESULT:      -5.5      7.815      9.356
REMARK  Name = 
REMARK  1 active torsions:
REMARK  status: ('A' for Active; 'I' for Inactive)
REMARK    1  A    between atoms: C_1  and  N_2
REMARK                            x       y       z     vdW  Elec       q    Type
REMARK                         _______ _______ _______ _____ _____    ______ ____
ROOT
ATOM      1  C   UNL     1      -7.568  10.121  20.402  0.00  0.00    +0.000 C 
ATOM      2  N   UNL     1      -6.541  11.051  19.962  0.00  0.00    +0.000 NA
ATOM      3  C   UNL     1      -7.095  12.301  19.454  0.00  0.00    +0.000 C 
ATOM      4  C   UNL     1      -5.971  12.920  18.631  0.00  0.00    +0.000 C 
ATOM      5  C   UNL     1      -5.028  11.753  18.258  0.00  0.00    +0.000 C 
ATOM      6  C   UNL     1      -4.947  11.621  16.724  0.00  0.00    +0.000 C 
ATOM      7  O   UNL     1      -3.973  10.643  16.354  0.00  0.00    +0.000 OA
ATOM      8  C   UNL     1      -2.651  11.116  16.631  0.00  0.00    +0.000 C 
ATOM      9  C   UNL     1      -2.521  11.611  18.033  0.00  0.00    +0.000 A 
ATOM     10  C   UNL     1      -1.293  11.852  18.608  0.00  0.00    +0.000 A 
ATOM     11  N   UNL     1      -1.127  12.349  19.848  0.00  0.00    +0.000 NA
ATOM     12  C   UNL     1      -2.233  12.603  20.558  0.00  0.00    +0.000 A 
ATOM     13  N   UNL     1      -2.122  13.193  21.795  0.00  0.00    +0.000 N 
ATOM     14  C   UNL     1      -3.095  12.814  22.822  0.00  0.00    +0.000 C 
ATOM     15  C   UNL     1      -3.199  13.976  23.822  0.00  0.00    +0.000 C 
ATOM     16  O   UNL     1      -1.915  14.301  24.390  0.00  0.00    +0.000 OA
ATOM     17  C   UNL     1      -0.979  14.658  23.354  0.00  0.00    +0.000 C 
ATOM     18  C   UNL     1      -0.802  13.526  22.325  0.00  0.00    +0.000 C 
ATOM     19  N   UNL     1      -3.469  12.391  20.074  0.00  0.00    +0.000 NA
ATOM     20  C   UNL     1      -3.614  11.926  18.814  0.00  0.00    +0.000 A 
ATOM     21  C   UNL     1      -5.708  10.514  18.876  0.00  0.00    +0.000 C 
ENDROOT
TORSDOF 0
ENDMDL
MODEL 9
REMARK VINA RESULT:      -5.5      7.558     10.623
REMARK  Name = 
REMARK  1 active torsions:
REMARK  status: ('A' for Active; 'I' for Inactive)
REMARK    1  A    between atoms: C_1  and  N_2
REMARK                            x       y       z     vdW  Elec       q    Type
REMARK                         _______ _______ _______ _____ _____    ______ ____
ROOT
ATOM      1  C   UNL     1      -7.190  12.499  23.658  0.00  0.00    +0.000 C 
ATOM      2  N   UNL     1      -6.464  12.943  22.479  0.00  0.00    +0.000 NA
ATOM      3  C   UNL     1      -6.483  14.393  22.322  0.00  0.00    +0.000 C 
ATOM      4  C   UNL     1      -6.118  14.632  20.861  0.00  0.00    +0.000 C 
ATOM      5  C   UNL     1      -6.443  13.312  20.124  0.00  0.00    +0.000 C 
ATOM      6  C   UNL     1      -7.499  13.573  19.033  0.00  0.00    +0.000 C 
ATOM      7  O   UNL     1      -7.710  12.399  18.245  0.00  0.00    +0.000 OA
ATOM      8  C   UNL     1      -6.569  12.130  17.424  0.00  0.00    +0.000 C 
ATOM      9  C   UNL     1      -5.304  12.118  18.216  0.00  0.00    +0.000 A 
ATOM     10  C   UNL     1      -4.130  11.614  17.704  0.00  0.00    +0.000 A 
ATOM     11  N   UNL     1      -2.955  11.630  18.360  0.00  0.00    +0.000 NA
ATOM     12  C   UNL     1      -2.948  12.156  19.591  0.00  0.00    +0.000 A 
ATOM     13  N   UNL     1      -1.758  12.278  20.269  0.00  0.00    +0.000 N 
ATOM     14  C   UNL     1      -1.782  12.121  21.724  0.00  0.00    +0.000 C 
ATOM     15  C   UNL     1      -0.583  12.890  22.301  0.00  0.00    +0.000 C 
ATOM     16  O   UNL     1       0.660  12.434  21.729  0.00  0.00    +0.000 OA
ATOM     17  C   UNL     1       0.647  12.592  20.297  0.00  0.00    +0.000 C 
ATOM     18  C   UNL     1      -0.518  11.824  19.645  0.00  0.00    +0.000 C 
ATOM     19  N   UNL     1      -4.051  12.665  20.167  0.00  0.00    +0.000 NA
ATOM     20  C   UNL     1      -5.213  12.671  19.477  0.00  0.00    +0.000 A 
ATOM     21  C   UNL     1      -7.014  12.399  21.229  0.00  0.00    +0.000 C 
ENDROOT
TORSDOF 0
ENDMDL
