MODEL 1
REMARK VINA RESULT:      -7.8      0.000      0.000
REMARK  Name = 
REMARK  5 active torsions:
REMARK  status: ('A' for Active; 'I' for Inactive)
REMARK    1  A    between atoms: C_1  and  C_2
REMARK    2  A    between atoms: C_2  and  O_3
REMARK    3  A    between atoms: O_3  and  C_4
REMARK    4  A    between atoms: C_4  and  C_6
REMARK    5  A    between atoms: C_11  and  C_12
REMARK                            x       y       z     vdW  Elec       q    Type
REMARK                         _______ _______ _______ _____ _____    ______ ____
ROOT
ATOM      1  C   UNL     1       5.713   5.572  15.382  0.00  0.00    +0.000 C 
ATOM      2  O   UNL     1       5.443   6.751  15.214  0.00  0.00    +0.000 OA
ATOM      3  N   UNL     1       5.311   4.734  16.398  0.00  0.00    +0.000 N 
ATOM      4  C   UNL     1       4.509   5.178  17.406  0.00  0.00    +0.000 A 
ATOM      5  N   UNL     1       3.864   6.310  17.494  0.00  0.00    +0.000 NA
ATOM      6  C   UNL     1       3.183   6.370  18.698  0.00  0.00    +0.000 A 
ATOM      7  C   UNL     1       3.393   5.283  19.528  0.00  0.00    +0.000 A 
ATOM      8  S   UNL     1       4.358   4.109  18.723  0.00  0.00    +0.000 S 
ATOM      9  H   UNL     1       5.681   3.792  16.444  0.00  0.00    +0.000 HD
ENDROOT
BRANCH   6  10
ATOM     10  C   UNL     1       2.342   7.516  19.027  0.00  0.00    +0.000 A 
ATOM     11  C   UNL     1       1.832   7.703  20.322  0.00  0.00    +0.000 A 
ATOM     12  C   UNL     1       1.016   8.800  20.613  0.00  0.00    +0.000 A 
ATOM     13  C   UNL     1       0.705   9.709  19.609  0.00  0.00    +0.000 A 
ATOM     14  F   UNL     1      -0.075  10.760  19.893  0.00  0.00    +0.000 F 
ATOM     15  C   UNL     1       1.187   9.540  18.318  0.00  0.00    +0.000 A 
ATOM     16  C   UNL     1       2.001   8.440  18.026  0.00  0.00    +0.000 A 
ENDBRANCH   6  10
BRANCH   1  17
ATOM     17  C   UNL     1       6.666   4.856  14.405  0.00  0.00    +0.000 C 
ATOM     18  O   UNL     1       7.755   5.332  14.110  0.00  0.00    +0.000 OA
BRANCH  17  19
ATOM     19  O   UNL     1       6.103   3.727  13.936  0.00  0.00    +0.000 OA
BRANCH  19  21
ATOM     20  C   UNL     1       4.891   3.280  11.887  0.00  0.00    +0.000 C 
ATOM     21  C   UNL     1       6.249   3.469  12.537  0.00  0.00    +0.000 C 
ENDBRANCH  19  21
ENDBRANCH  17  19
ENDBRANCH   1  17
TORSDOF 4
ENDMDL
MODEL 2
REMARK VINA RESULT:      -7.7      0.094      1.085
REMARK  Name = 
REMARK  5 active torsions:
REMARK  status: ('A' for Active; 'I' for Inactive)
REMARK    1  A    between atoms: C_1  and  C_2
REMARK    2  A    between atoms: C_2  and  O_3
REMARK    3  A    between atoms: O_3  and  C_4
REMARK    4  A    between atoms: C_4  and  C_6
REMARK    5  A    between atoms: C_11  and  C_12
REMARK                            x       y       z     vdW  Elec       q    Type
REMARK                         _______ _______ _______ _____ _____    ______ ____
ROOT
ATOM      1  C   UNL     1       5.687   5.575  15.424  0.00  0.00    +0.000 C 
ATOM      2  O   UNL     1       5.367   6.732  15.204  0.00  0.00    +0.000 OA
ATOM      3  N   UNL     1       5.336   4.773  16.488  0.00  0.00    +0.000 N 
ATOM      4  C   UNL     1       4.535   5.235  17.488  0.00  0.00    +0.000 A 
ATOM      5  N   UNL     1       3.847   6.344  17.534  0.00  0.00    +0.000 NA
ATOM      6  C   UNL     1       3.186   6.439  18.746  0.00  0.00    +0.000 A 
ATOM      7  C   UNL     1       3.453   5.403  19.624  0.00  0.00    +0.000 A 
ATOM      8  S   UNL     1       4.449   4.229  18.859  0.00  0.00    +0.000 S 
ATOM      9  H   UNL     1       5.744   3.850  16.573  0.00  0.00    +0.000 HD
ENDROOT
BRANCH   6  10
ATOM     10  C   UNL     1       2.305   7.565  19.035  0.00  0.00    +0.000 A 
ATOM     11  C   UNL     1       1.963   8.502  18.047  0.00  0.00    +0.000 A 
ATOM     12  C   UNL     1       1.129   9.581  18.349  0.00  0.00    +0.000 A 
ATOM     13  C   UNL     1       0.638   9.729  19.641  0.00  0.00    +0.000 A 
ATOM     14  F   UNL     1      -0.164  10.764  19.925  0.00  0.00    +0.000 F 
ATOM     15  C   UNL     1       0.971   8.823  20.639  0.00  0.00    +0.000 A 
ATOM     16  C   UNL     1       1.809   7.744  20.337  0.00  0.00    +0.000 A 
ENDBRANCH   6  10
BRANCH   1  17
ATOM     17  C   UNL     1       6.650   4.849  14.465  0.00  0.00    +0.000 C 
ATOM     18  O   UNL     1       7.766   5.291  14.224  0.00  0.00    +0.000 OA
BRANCH  17  19
ATOM     19  O   UNL     1       6.066   3.753  13.947  0.00  0.00    +0.000 OA
BRANCH  19  21
ATOM     20  C   UNL     1       4.947   3.206  11.870  0.00  0.00    +0.000 C 
ATOM     21  C   UNL     1       6.266   3.516  12.551  0.00  0.00    +0.000 C 
ENDBRANCH  19  21
ENDBRANCH  17  19
ENDBRANCH   1  17
TORSDOF 4
ENDMDL
MODEL 3
REMARK VINA RESULT:      -7.2      0.957      1.054
REMARK  Name = 
REMARK  5 active torsions:
REMARK  status: ('A' for Active; 'I' for Inactive)
REMARK    1  A    between atoms: C_1  and  C_2
REMARK    2  A    between atoms: C_2  and  O_3
REMARK    3  A    between atoms: O_3  and  C_4
REMARK    4  A    between atoms: C_4  and  C_6
REMARK    5  A    between atoms: C_11  and  C_12
REMARK                            x       y       z     vdW  Elec       q    Type
REMARK                         _______ _______ _______ _____ _____    ______ ____
ROOT
ATOM      1  C   UNL     1       5.926   5.732  16.407  0.00  0.00    +0.000 C 
ATOM      2  O   UNL     1       5.824   6.940  16.257  0.00  0.00    +0.000 OA
ATOM      3  N   UNL     1       5.209   4.907  17.245  0.00  0.00    +0.000 N 
ATOM      4  C   UNL     1       4.237   5.400  18.063  0.00  0.00    +0.000 A 
ATOM      5  N   UNL     1       3.707   6.593  18.070  0.00  0.00    +0.000 NA
ATOM      6  C   UNL     1       2.768   6.685  19.082  0.00  0.00    +0.000 A 
ATOM      7  C   UNL     1       2.661   5.550  19.866  0.00  0.00    +0.000 A 
ATOM      8  S   UNL     1       3.667   4.306  19.237  0.00  0.00    +0.000 S 
ATOM      9  H   UNL     1       5.460   3.928  17.316  0.00  0.00    +0.000 HD
ENDROOT
BRANCH   6  10
ATOM     10  C   UNL     1       1.992   7.905  19.278  0.00  0.00    +0.000 A 
ATOM     11  C   UNL     1       1.424   8.221  20.522  0.00  0.00    +0.000 A 
ATOM     12  C   UNL     1       0.672   9.388  20.684  0.00  0.00    +0.000 A 
ATOM     13  C   UNL     1       0.484  10.239  19.601  0.00  0.00    +0.000 A 
ATOM     14  F   UNL     1      -0.235  11.358  19.762  0.00  0.00    +0.000 F 
ATOM     15  C   UNL     1       1.025   9.943  18.358  0.00  0.00    +0.000 A 
ATOM     16  C   UNL     1       1.774   8.773  18.195  0.00  0.00    +0.000 A 
ENDBRANCH   6  10
BRANCH   1  17
ATOM     17  C   UNL     1       7.008   4.951  15.637  0.00  0.00    +0.000 C 
ATOM     18  O   UNL     1       7.944   4.414  16.217  0.00  0.00    +0.000 OA
BRANCH  17  19
ATOM     19  O   UNL     1       6.779   5.005  14.312  0.00  0.00    +0.000 OA
BRANCH  19  21
ATOM     20  C   UNL     1       6.452   3.602  12.365  0.00  0.00    +0.000 C 
ATOM     21  C   UNL     1       5.969   3.966  13.756  0.00  0.00    +0.000 C 
ENDBRANCH  19  21
ENDBRANCH  17  19
ENDBRANCH   1  17
TORSDOF 4
ENDMDL
MODEL 4
REMARK VINA RESULT:      -7.2      3.272      3.902
REMARK  Name = 
REMARK  5 active torsions:
REMARK  status: ('A' for Active; 'I' for Inactive)
REMARK    1  A    between atoms: C_1  and  C_2
REMARK    2  A    between atoms: C_2  and  O_3
REMARK    3  A    between atoms: O_3  and  C_4
REMARK    4  A    between atoms: C_4  and  C_6
REMARK    5  A    between atoms: C_11  and  C_12
REMARK                            x       y       z     vdW  Elec       q    Type
REMARK                         _______ _______ _______ _____ _____    ______ ____
ROOT
ATOM      1  C   UNL     1       6.575   4.796  14.610  0.00  0.00    +0.000 C 
ATOM      2  O   UNL     1       5.407   4.457  14.492  0.00  0.00    +0.000 OA
ATOM      3  N   UNL     1       7.274   5.081  15.762  0.00  0.00    +0.000 N 
ATOM      4  C   UNL     1       6.679   5.016  16.986  0.00  0.00    +0.000 A 
ATOM      5  N   UNL     1       5.510   4.525  17.298  0.00  0.00    +0.000 NA
ATOM      6  C   UNL     1       5.281   4.679  18.654  0.00  0.00    +0.000 A 
ATOM      7  C   UNL     1       6.283   5.356  19.328  0.00  0.00    +0.000 A 
ATOM      8  S   UNL     1       7.589   5.686  18.260  0.00  0.00    +0.000 S 
ATOM      9  H   UNL     1       8.224   5.425  15.696  0.00  0.00    +0.000 HD
ENDROOT
BRANCH   6  10
ATOM     10  C   UNL     1       4.062   4.171  19.272  0.00  0.00    +0.000 A 
ATOM     11  C   UNL     1       3.642   2.844  19.084  0.00  0.00    +0.000 A 
ATOM     12  C   UNL     1       2.463   2.382  19.675  0.00  0.00    +0.000 A 
ATOM     13  C   UNL     1       1.700   3.245  20.452  0.00  0.00    +0.000 A 
ATOM     14  F   UNL     1       0.572   2.796  21.018  0.00  0.00    +0.000 F 
ATOM     15  C   UNL     1       2.087   4.565  20.643  0.00  0.00    +0.000 A 
ATOM     16  C   UNL     1       3.265   5.028  20.049  0.00  0.00    +0.000 A 
ENDBRANCH   6  10
BRANCH   1  17
ATOM     17  C   UNL     1       7.444   5.006  13.356  0.00  0.00    +0.000 C 
ATOM     18  O   UNL     1       8.520   5.588  13.414  0.00  0.00    +0.000 OA
BRANCH  17  19
ATOM     19  O   UNL     1       6.828   4.515  12.264  0.00  0.00    +0.000 OA
BRANCH  19  21
ATOM     20  C   UNL     1       5.677   2.468  11.673  0.00  0.00    +0.000 C 
ATOM     21  C   UNL     1       7.007   3.123  11.997  0.00  0.00    +0.000 C 
ENDBRANCH  19  21
ENDBRANCH  17  19
ENDBRANCH   1  17
TORSDOF 4
ENDMDL
MODEL 5
REMARK VINA RESULT:      -7.2      3.192      3.862
REMARK  Name = 
REMARK  5 active torsions:
REMARK  status: ('A' for Active; 'I' for Inactive)
REMARK    1  A    between atoms: C_1  and  C_2
REMARK    2  A    between atoms: C_2  and  O_3
REMARK    3  A    between atoms: O_3  and  C_4
REMARK    4  A    between atoms: C_4  and  C_6
REMARK    5  A    between atoms: C_11  and  C_12
REMARK                            x       y       z     vdW  Elec       q    Type
REMARK                         _______ _______ _______ _____ _____    ______ ____
ROOT
ATOM      1  C   UNL     1       6.507   4.821  14.632  0.00  0.00    +0.000 C 
ATOM      2  O   UNL     1       5.331   4.503  14.544  0.00  0.00    +0.000 OA
ATOM      3  N   UNL     1       7.238   5.106  15.763  0.00  0.00    +0.000 N 
ATOM      4  C   UNL     1       6.671   5.065  17.001  0.00  0.00    +0.000 A 
ATOM      5  N   UNL     1       5.500   4.599  17.346  0.00  0.00    +0.000 NA
ATOM      6  C   UNL     1       5.306   4.773  18.704  0.00  0.00    +0.000 A 
ATOM      7  C   UNL     1       6.335   5.438  19.348  0.00  0.00    +0.000 A 
ATOM      8  S   UNL     1       7.622   5.731  18.247  0.00  0.00    +0.000 S 
ATOM      9  H   UNL     1       8.193   5.431  15.672  0.00  0.00    +0.000 HD
ENDROOT
BRANCH   6  10
ATOM     10  C   UNL     1       4.091   4.294  19.357  0.00  0.00    +0.000 A 
ATOM     11  C   UNL     1       3.184   5.180  19.959  0.00  0.00    +0.000 A 
ATOM     12  C   UNL     1       2.034   4.698  20.590  0.00  0.00    +0.000 A 
ATOM     13  C   UNL     1       1.790   3.330  20.624  0.00  0.00    +0.000 A 
ATOM     14  F   UNL     1       0.685   2.874  21.228  0.00  0.00    +0.000 F 
ATOM     15  C   UNL     1       2.678   2.433  20.045  0.00  0.00    +0.000 A 
ATOM     16  C   UNL     1       3.831   2.915  19.417  0.00  0.00    +0.000 A 
ENDBRANCH   6  10
BRANCH   1  17
ATOM     17  C   UNL     1       7.351   5.001  13.355  0.00  0.00    +0.000 C 
ATOM     18  O   UNL     1       8.431   5.579  13.379  0.00  0.00    +0.000 OA
BRANCH  17  19
ATOM     19  O   UNL     1       6.711   4.491  12.287  0.00  0.00    +0.000 OA
BRANCH  19  21
ATOM     20  C   UNL     1       5.577   2.449  11.648  0.00  0.00    +0.000 C 
ATOM     21  C   UNL     1       6.893   3.096  12.034  0.00  0.00    +0.000 C 
ENDBRANCH  19  21
ENDBRANCH  17  19
ENDBRANCH   1  17
TORSDOF 4
ENDMDL
MODEL 6
REMARK VINA RESULT:      -7.2      1.550      2.067
REMARK  Name = 
REMARK  5 active torsions:
REMARK  status: ('A' for Active; 'I' for Inactive)
REMARK    1  A    between atoms: C_1  and  C_2
REMARK    2  A    between atoms: C_2  and  O_3
REMARK    3  A    between atoms: O_3  and  C_4
REMARK    4  A    between atoms: C_4  and  C_6
REMARK    5  A    between atoms: C_11  and  C_12
REMARK                            x       y       z     vdW  Elec       q    Type
REMARK                         _______ _______ _______ _____ _____    ______ ____
ROOT
ATOM      1  C   UNL     1       6.259   5.439  17.506  0.00  0.00    +0.000 C 
ATOM      2  O   UNL     1       6.263   6.655  17.389  0.00  0.00    +0.000 OA
ATOM      3  N   UNL     1       5.333   4.639  18.136  0.00  0.00    +0.000 N 
ATOM      4  C   UNL     1       4.240   5.172  18.751  0.00  0.00    +0.000 A 
ATOM      5  N   UNL     1       3.792   6.397  18.698  0.00  0.00    +0.000 NA
ATOM      6  C   UNL     1       2.665   6.521  19.491  0.00  0.00    +0.000 A 
ATOM      7  C   UNL     1       2.326   5.373  20.186  0.00  0.00    +0.000 A 
ATOM      8  S   UNL     1       3.368   4.084  19.730  0.00  0.00    +0.000 S 
ATOM      9  H   UNL     1       5.504   3.644  18.217  0.00  0.00    +0.000 HD
ENDROOT
BRANCH   6  10
ATOM     10  C   UNL     1       1.938   7.784  19.571  0.00  0.00    +0.000 A 
ATOM     11  C   UNL     1       1.828   8.638  18.462  0.00  0.00    +0.000 A 
ATOM     12  C   UNL     1       1.138   9.849  18.565  0.00  0.00    +0.000 A 
ATOM     13  C   UNL     1       0.561  10.211  19.776  0.00  0.00    +0.000 A 
ATOM     14  F   UNL     1      -0.101  11.372  19.869  0.00  0.00    +0.000 F 
ATOM     15  C   UNL     1       0.666   9.389  20.890  0.00  0.00    +0.000 A 
ATOM     16  C   UNL     1       1.359   8.178  20.789  0.00  0.00    +0.000 A 
ENDBRANCH   6  10
BRANCH   1  17
ATOM     17  C   UNL     1       7.433   4.611  16.949  0.00  0.00    +0.000 C 
ATOM     18  O   UNL     1       8.259   4.093  17.690  0.00  0.00    +0.000 OA
BRANCH  17  19
ATOM     19  O   UNL     1       7.411   4.603  15.603  0.00  0.00    +0.000 OA
BRANCH  19  21
ATOM     20  C   UNL     1       6.408   4.035  13.473  0.00  0.00    +0.000 C 
ATOM     21  C   UNL     1       6.356   3.867  14.980  0.00  0.00    +0.000 C 
ENDBRANCH  19  21
ENDBRANCH  17  19
ENDBRANCH   1  17
TORSDOF 4
ENDMDL
MODEL 7
REMARK VINA RESULT:      -7.0      4.908      7.738
REMARK  Name = 
REMARK  5 active torsions:
REMARK  status: ('A' for Active; 'I' for Inactive)
REMARK    1  A    between atoms: C_1  and  C_2
REMARK    2  A    between atoms: C_2  and  O_3
REMARK    3  A    between atoms: O_3  and  C_4
REMARK    4  A    between atoms: C_4  and  C_6
REMARK    5  A    between atoms: C_11  and  C_12
REMARK                            x       y       z     vdW  Elec       q    Type
REMARK                         _______ _______ _______ _____ _____    ______ ____
ROOT
ATOM      1  C   UNL     1       2.243   3.332  18.068  0.00  0.00    +0.000 C 
ATOM      2  O   UNL     1       2.110   2.876  16.943  0.00  0.00    +0.000 OA
ATOM      3  N   UNL     1       3.311   4.024  18.594  0.00  0.00    +0.000 N 
ATOM      4  C   UNL     1       4.423   4.284  17.850  0.00  0.00    +0.000 A 
ATOM      5  N   UNL     1       4.598   4.124  16.565  0.00  0.00    +0.000 NA
ATOM      6  C   UNL     1       5.887   4.488  16.218  0.00  0.00    +0.000 A 
ATOM      7  C   UNL     1       6.683   4.859  17.287  0.00  0.00    +0.000 A 
ATOM      8  S   UNL     1       5.754   4.874  18.733  0.00  0.00    +0.000 S 
ATOM      9  H   UNL     1       3.309   4.275  19.575  0.00  0.00    +0.000 HD
ENDROOT
BRANCH   6  10
ATOM     10  C   UNL     1       6.329   4.449  14.828  0.00  0.00    +0.000 A 
ATOM     11  C   UNL     1       7.375   5.265  14.368  0.00  0.00    +0.000 A 
ATOM     12  C   UNL     1       7.773   5.221  13.029  0.00  0.00    +0.000 A 
ATOM     13  C   UNL     1       7.124   4.366  12.147  0.00  0.00    +0.000 A 
ATOM     14  F   UNL     1       7.511   4.326  10.865  0.00  0.00    +0.000 F 
ATOM     15  C   UNL     1       6.079   3.558  12.574  0.00  0.00    +0.000 A 
ATOM     16  C   UNL     1       5.678   3.604  13.913  0.00  0.00    +0.000 A 
ENDBRANCH   6  10
BRANCH   1  17
ATOM     17  C   UNL     1       1.143   3.108  19.123  0.00  0.00    +0.000 C 
ATOM     18  O   UNL     1       0.224   2.321  18.931  0.00  0.00    +0.000 OA
BRANCH  17  19
ATOM     19  O   UNL     1       1.335   3.909  20.187  0.00  0.00    +0.000 OA
BRANCH  19  21
ATOM     20  C   UNL     1       2.671   2.408  21.538  0.00  0.00    +0.000 C 
ATOM     21  C   UNL     1       1.427   3.273  21.463  0.00  0.00    +0.000 C 
ENDBRANCH  19  21
ENDBRANCH  17  19
ENDBRANCH   1  17
TORSDOF 4
ENDMDL
MODEL 8
REMARK VINA RESULT:      -7.0      3.615      4.083
REMARK  Name = 
REMARK  5 active torsions:
REMARK  status: ('A' for Active; 'I' for Inactive)
REMARK    1  A    between atoms: C_1  and  C_2
REMARK    2  A    between atoms: C_2  and  O_3
REMARK    3  A    between atoms: O_3  and  C_4
REMARK    4  A    between atoms: C_4  and  C_6
REMARK    5  A    between atoms: C_11  and  C_12
REMARK                            x       y       z     vdW  Elec       q    Type
REMARK                         _______ _______ _______ _____ _____    ______ ____
ROOT
ATOM      1  C   UNL     1       6.682   4.782  14.118  0.00  0.00    +0.000 C 
ATOM      2  O   UNL     1       5.490   4.669  13.877  0.00  0.00    +0.000 OA
ATOM      3  N   UNL     1       7.318   4.754  15.340  0.00  0.00    +0.000 N 
ATOM      4  C   UNL     1       6.619   4.590  16.498  0.00  0.00    +0.000 A 
ATOM      5  N   UNL     1       5.365   4.259  16.652  0.00  0.00    +0.000 NA
ATOM      6  C   UNL     1       5.050   4.227  17.999  0.00  0.00    +0.000 A 
ATOM      7  C   UNL     1       6.084   4.605  18.837  0.00  0.00    +0.000 A 
ATOM      8  S   UNL     1       7.511   4.880  17.919  0.00  0.00    +0.000 S 
ATOM      9  H   UNL     1       8.312   4.938  15.389  0.00  0.00    +0.000 HD
ENDROOT
BRANCH   6  10
ATOM     10  C   UNL     1       3.718   3.837  18.449  0.00  0.00    +0.000 A 
ATOM     11  C   UNL     1       2.568   4.174  17.717  0.00  0.00    +0.000 A 
ATOM     12  C   UNL     1       1.301   3.802  18.173  0.00  0.00    +0.000 A 
ATOM     13  C   UNL     1       1.180   3.096  19.364  0.00  0.00    +0.000 A 
ATOM     14  F   UNL     1      -0.037   2.740  19.797  0.00  0.00    +0.000 F 
ATOM     15  C   UNL     1       2.300   2.761  20.113  0.00  0.00    +0.000 A 
ATOM     16  C   UNL     1       3.568   3.137  19.658  0.00  0.00    +0.000 A 
ENDBRANCH   6  10
BRANCH   1  17
ATOM     17  C   UNL     1       7.677   5.045  12.971  0.00  0.00    +0.000 C 
ATOM     18  O   UNL     1       8.614   5.822  13.103  0.00  0.00    +0.000 OA
BRANCH  17  19
ATOM     19  O   UNL     1       7.325   4.355  11.871  0.00  0.00    +0.000 OA
BRANCH  19  21
ATOM     20  C   UNL     1       7.264   2.074  11.059  0.00  0.00    +0.000 C 
ATOM     21  C   UNL     1       6.740   3.067  12.079  0.00  0.00    +0.000 C 
ENDBRANCH  19  21
ENDBRANCH  17  19
ENDBRANCH   1  17
TORSDOF 4
ENDMDL
MODEL 9
REMARK VINA RESULT:      -6.9      4.814      7.763
REMARK  Name = 
REMARK  5 active torsions:
REMARK  status: ('A' for Active; 'I' for Inactive)
REMARK    1  A    between atoms: C_1  and  C_2
REMARK    2  A    between atoms: C_2  and  O_3
REMARK    3  A    between atoms: O_3  and  C_4
REMARK    4  A    between atoms: C_4  and  C_6
REMARK    5  A    between atoms: C_11  and  C_12
REMARK                            x       y       z     vdW  Elec       q    Type
REMARK                         _______ _______ _______ _____ _____    ______ ____
ROOT
ATOM      1  C   UNL     1       2.440   2.721  18.027  0.00  0.00    +0.000 C 
ATOM      2  O   UNL     1       2.323   2.298  16.887  0.00  0.00    +0.000 OA
ATOM      3  N   UNL     1       3.449   3.494  18.558  0.00  0.00    +0.000 N 
ATOM      4  C   UNL     1       4.509   3.892  17.800  0.00  0.00    +0.000 A 
ATOM      5  N   UNL     1       4.665   3.801  16.506  0.00  0.00    +0.000 NA
ATOM      6  C   UNL     1       5.902   4.304  16.145  0.00  0.00    +0.000 A 
ATOM      7  C   UNL     1       6.687   4.710  17.211  0.00  0.00    +0.000 A 
ATOM      8  S   UNL     1       5.799   4.576  18.677  0.00  0.00    +0.000 S 
ATOM      9  H   UNL     1       3.447   3.705  19.548  0.00  0.00    +0.000 HD
ENDROOT
BRANCH   6  10
ATOM     10  C   UNL     1       6.309   4.364  14.745  0.00  0.00    +0.000 A 
ATOM     11  C   UNL     1       5.698   3.562  13.769  0.00  0.00    +0.000 A 
ATOM     12  C   UNL     1       6.112   3.625  12.436  0.00  0.00    +0.000 A 
ATOM     13  C   UNL     1       7.142   4.487  12.077  0.00  0.00    +0.000 A 
ATOM     14  F   UNL     1       7.534   4.546  10.797  0.00  0.00    +0.000 F 
ATOM     15  C   UNL     1       7.770   5.282  13.026  0.00  0.00    +0.000 A 
ATOM     16  C   UNL     1       7.358   5.216  14.361  0.00  0.00    +0.000 A 
ENDBRANCH   6  10
BRANCH   1  17
ATOM     17  C   UNL     1       1.395   2.347  19.096  0.00  0.00    +0.000 C 
ATOM     18  O   UNL     1       0.207   2.239  18.818  0.00  0.00    +0.000 OA
BRANCH  17  19
ATOM     19  O   UNL     1       1.976   2.221  20.303  0.00  0.00    +0.000 OA
BRANCH  19  21
ATOM     20  C   UNL     1       2.127   4.367  21.415  0.00  0.00    +0.000 C 
ATOM     21  C   UNL     1       1.438   3.016  21.363  0.00  0.00    +0.000 C 
ENDBRANCH  19  21
ENDBRANCH  17  19
ENDBRANCH   1  17
TORSDOF 4
ENDMDL
