MODEL 1
REMARK VINA RESULT:      -7.4      0.000      0.000
REMARK  Name = 
REMARK  9 active torsions:
REMARK  status: ('A' for Active; 'I' for Inactive)
REMARK    1  A    between atoms: C_1  and  C_2
REMARK    2  A    between atoms: C_2  and  C_3
REMARK    3  A    between atoms: C_2  and  O_4
REMARK    4  A    between atoms: O_4  and  C_5
REMARK    5  A    between atoms: C_8  and  C_9
REMARK    6  A    between atoms: N_11  and  C_12
REMARK    7  A    between atoms: N_11  and  C_18
REMARK    8  A    between atoms: C_12  and  C_13
REMARK    9  A    between atoms: C_18  and  C_19
REMARK                            x       y       z     vdW  Elec       q    Type
REMARK                         _______ _______ _______ _____ _____    ______ ____
ROOT
ATOM      1  C   UNL     1       3.856   6.214  18.419  0.00  0.00    +0.000 C 
ATOM      2  O   UNL     1       5.030   6.577  18.526  0.00  0.00    +0.000 OA
ATOM      3  N   UNL     1       3.538   4.877  18.137  0.00  0.00    +0.000 N 
ENDROOT
BRANCH   1   7
ATOM      4  C   UNL     1       1.091   9.489  19.067  0.00  0.00    +0.000 A 
ATOM      5  C   UNL     1       1.716   9.337  17.833  0.00  0.00    +0.000 A 
ATOM      6  C   UNL     1       2.589   8.268  17.600  0.00  0.00    +0.000 A 
ATOM      7  C   UNL     1       2.827   7.294  18.570  0.00  0.00    +0.000 A 
ATOM      8  C   UNL     1       2.190   7.445  19.813  0.00  0.00    +0.000 A 
ATOM      9  C   UNL     1       1.335   8.534  20.057  0.00  0.00    +0.000 A 
BRANCH   4  10
ATOM     10  O   UNL     1       0.275  10.523  19.423  0.00  0.00    +0.000 OA
BRANCH  10  12
ATOM     11  C   UNL     1      -1.830  10.275  18.331  0.00  0.00    +0.000 C 
ATOM     12  C   UNL     1      -0.564  11.124  18.425  0.00  0.00    +0.000 C 
ATOM     13  C   UNL     1      -0.928  12.558  18.813  0.00  0.00    +0.000 C 
ENDBRANCH  10  12
ENDBRANCH   4  10
ENDBRANCH   1   7
BRANCH   3  14
ATOM     14  C   UNL     1       2.209   4.265  18.182  0.00  0.00    +0.000 C 
BRANCH  14  15
ATOM     15  C   UNL     1       1.909   3.671  19.526  0.00  0.00    +0.000 A 
ATOM     16  C   UNL     1       0.964   2.790  20.026  0.00  0.00    +0.000 A 
ATOM     17  C   UNL     1       1.203   2.680  21.418  0.00  0.00    +0.000 A 
ATOM     18  C   UNL     1       2.273   3.499  21.686  0.00  0.00    +0.000 A 
ATOM     19  O   UNL     1       2.705   4.105  20.549  0.00  0.00    +0.000 OA
ENDBRANCH  14  15
ENDBRANCH   3  14
BRANCH   3  20
ATOM     20  C   UNL     1       4.652   3.971  17.822  0.00  0.00    +0.000 C 
BRANCH  20  21
ATOM     21  C   UNL     1       5.370   4.334  16.550  0.00  0.00    +0.000 A 
ATOM     22  C   UNL     1       4.876   4.386  15.260  0.00  0.00    +0.000 A 
ATOM     23  C   UNL     1       5.902   4.576  14.285  0.00  0.00    +0.000 A 
ATOM     24  C   UNL     1       7.144   4.696  14.862  0.00  0.00    +0.000 A 
ATOM     25  S   UNL     1       7.067   4.606  16.569  0.00  0.00    +0.000 S 
ENDBRANCH  20  21
ENDBRANCH   3  20
TORSDOF 7
ENDMDL
MODEL 2
REMARK VINA RESULT:      -7.2      0.804      1.030
REMARK  Name = 
REMARK  9 active torsions:
REMARK  status: ('A' for Active; 'I' for Inactive)
REMARK    1  A    between atoms: C_1  and  C_2
REMARK    2  A    between atoms: C_2  and  C_3
REMARK    3  A    between atoms: C_2  and  O_4
REMARK    4  A    between atoms: O_4  and  C_5
REMARK    5  A    between atoms: C_8  and  C_9
REMARK    6  A    between atoms: N_11  and  C_12
REMARK    7  A    between atoms: N_11  and  C_18
REMARK    8  A    between atoms: C_12  and  C_13
REMARK    9  A    between atoms: C_18  and  C_19
REMARK                            x       y       z     vdW  Elec       q    Type
REMARK                         _______ _______ _______ _____ _____    ______ ____
ROOT
ATOM      1  C   UNL     1       3.893   6.125  18.257  0.00  0.00    +0.000 C 
ATOM      2  O   UNL     1       5.076   6.416  18.456  0.00  0.00    +0.000 OA
ATOM      3  N   UNL     1       3.527   4.831  17.859  0.00  0.00    +0.000 N 
ENDROOT
BRANCH   1   7
ATOM      4  C   UNL     1       1.274   9.503  18.976  0.00  0.00    +0.000 A 
ATOM      5  C   UNL     1       1.885   9.345  17.735  0.00  0.00    +0.000 A 
ATOM      6  C   UNL     1       2.710   8.243  17.480  0.00  0.00    +0.000 A 
ATOM      7  C   UNL     1       2.912   7.245  18.433  0.00  0.00    +0.000 A 
ATOM      8  C   UNL     1       2.290   7.403  19.682  0.00  0.00    +0.000 A 
ATOM      9  C   UNL     1       1.483   8.523  19.949  0.00  0.00    +0.000 A 
BRANCH   4  10
ATOM     10  O   UNL     1       0.505  10.565  19.354  0.00  0.00    +0.000 OA
BRANCH  10  12
ATOM     11  C   UNL     1      -1.298  11.459  20.631  0.00  0.00    +0.000 C 
ATOM     12  C   UNL     1      -0.877  10.345  19.676  0.00  0.00    +0.000 C 
ATOM     13  C   UNL     1      -1.742  10.386  18.416  0.00  0.00    +0.000 C 
ENDBRANCH  10  12
ENDBRANCH   4  10
ENDBRANCH   1   7
BRANCH   3  14
ATOM     14  C   UNL     1       2.169   4.289  17.785  0.00  0.00    +0.000 C 
BRANCH  14  15
ATOM     15  C   UNL     1       1.740   3.668  19.080  0.00  0.00    +0.000 A 
ATOM     16  C   UNL     1       1.008   4.087  20.179  0.00  0.00    +0.000 A 
ATOM     17  C   UNL     1       1.011   3.015  21.105  0.00  0.00    +0.000 A 
ATOM     18  C   UNL     1       1.745   2.010  20.522  0.00  0.00    +0.000 A 
ATOM     19  O   UNL     1       2.193   2.397  19.299  0.00  0.00    +0.000 OA
ENDBRANCH  14  15
ENDBRANCH   3  14
BRANCH   3  20
ATOM     20  C   UNL     1       4.611   3.891  17.539  0.00  0.00    +0.000 C 
BRANCH  20  21
ATOM     21  C   UNL     1       5.371   4.265  16.294  0.00  0.00    +0.000 A 
ATOM     22  C   UNL     1       4.925   4.310  14.986  0.00  0.00    +0.000 A 
ATOM     23  C   UNL     1       5.984   4.516  14.050  0.00  0.00    +0.000 A 
ATOM     24  C   UNL     1       7.202   4.653  14.674  0.00  0.00    +0.000 A 
ATOM     25  S   UNL     1       7.062   4.561  16.376  0.00  0.00    +0.000 S 
ENDBRANCH  20  21
ENDBRANCH   3  20
TORSDOF 7
ENDMDL
MODEL 3
REMARK VINA RESULT:      -7.1      0.634      1.148
REMARK  Name = 
REMARK  9 active torsions:
REMARK  status: ('A' for Active; 'I' for Inactive)
REMARK    1  A    between atoms: C_1  and  C_2
REMARK    2  A    between atoms: C_2  and  C_3
REMARK    3  A    between atoms: C_2  and  O_4
REMARK    4  A    between atoms: O_4  and  C_5
REMARK    5  A    between atoms: C_8  and  C_9
REMARK    6  A    between atoms: N_11  and  C_12
REMARK    7  A    between atoms: N_11  and  C_18
REMARK    8  A    between atoms: C_12  and  C_13
REMARK    9  A    between atoms: C_18  and  C_19
REMARK                            x       y       z     vdW  Elec       q    Type
REMARK                         _______ _______ _______ _____ _____    ______ ____
ROOT
ATOM      1  C   UNL     1       4.188   5.810  18.516  0.00  0.00    +0.000 C 
ATOM      2  O   UNL     1       5.383   6.100  18.617  0.00  0.00    +0.000 OA
ATOM      3  N   UNL     1       3.790   4.548  18.051  0.00  0.00    +0.000 N 
ENDROOT
BRANCH   1   7
ATOM      4  C   UNL     1       1.182   8.816  19.364  0.00  0.00    +0.000 A 
ATOM      5  C   UNL     1       1.539   7.890  20.341  0.00  0.00    +0.000 A 
ATOM      6  C   UNL     1       2.529   6.933  20.090  0.00  0.00    +0.000 A 
ATOM      7  C   UNL     1       3.224   6.898  18.882  0.00  0.00    +0.000 A 
ATOM      8  C   UNL     1       2.868   7.837  17.899  0.00  0.00    +0.000 A 
ATOM      9  C   UNL     1       1.855   8.782  18.140  0.00  0.00    +0.000 A 
BRANCH   4  10
ATOM     10  O   UNL     1       0.193   9.748  19.476  0.00  0.00    +0.000 OA
BRANCH  10  12
ATOM     11  C   UNL     1      -1.493  10.205  17.855  0.00  0.00    +0.000 C 
ATOM     12  C   UNL     1      -0.102  10.591  18.352  0.00  0.00    +0.000 C 
ATOM     13  C   UNL     1      -0.085  12.065  18.757  0.00  0.00    +0.000 C 
ENDBRANCH  10  12
ENDBRANCH   4  10
ENDBRANCH   1   7
BRANCH   3  14
ATOM     14  C   UNL     1       2.435   3.995  18.070  0.00  0.00    +0.000 C 
BRANCH  14  15
ATOM     15  C   UNL     1       2.048   3.503  19.432  0.00  0.00    +0.000 A 
ATOM     16  C   UNL     1       0.884   3.494  20.183  0.00  0.00    +0.000 A 
ATOM     17  C   UNL     1       1.208   2.914  21.434  0.00  0.00    +0.000 A 
ATOM     18  C   UNL     1       2.546   2.608  21.375  0.00  0.00    +0.000 A 
ATOM     19  O   UNL     1       3.064   2.963  20.170  0.00  0.00    +0.000 OA
ENDBRANCH  14  15
ENDBRANCH   3  14
BRANCH   3  20
ATOM     20  C   UNL     1       4.841   3.653  17.546  0.00  0.00    +0.000 C 
BRANCH  20  21
ATOM     21  C   UNL     1       5.467   4.136  16.265  0.00  0.00    +0.000 A 
ATOM     22  C   UNL     1       4.918   4.188  14.997  0.00  0.00    +0.000 A 
ATOM     23  C   UNL     1       5.878   4.520  13.994  0.00  0.00    +0.000 A 
ATOM     24  C   UNL     1       7.125   4.743  14.530  0.00  0.00    +0.000 A 
ATOM     25  S   UNL     1       7.127   4.579  16.233  0.00  0.00    +0.000 S 
ENDBRANCH  20  21
ENDBRANCH   3  20
TORSDOF 7
ENDMDL
MODEL 4
REMARK VINA RESULT:      -7.1      3.930      9.049
REMARK  Name = 
REMARK  9 active torsions:
REMARK  status: ('A' for Active; 'I' for Inactive)
REMARK    1  A    between atoms: C_1  and  C_2
REMARK    2  A    between atoms: C_2  and  C_3
REMARK    3  A    between atoms: C_2  and  O_4
REMARK    4  A    between atoms: O_4  and  C_5
REMARK    5  A    between atoms: C_8  and  C_9
REMARK    6  A    between atoms: N_11  and  C_12
REMARK    7  A    between atoms: N_11  and  C_18
REMARK    8  A    between atoms: C_12  and  C_13
REMARK    9  A    between atoms: C_18  and  C_19
REMARK                            x       y       z     vdW  Elec       q    Type
REMARK                         _______ _______ _______ _____ _____    ______ ____
ROOT
ATOM      1  C   UNL     1       0.484  10.886  19.226  0.00  0.00    +0.000 C 
ATOM      2  O   UNL     1       1.279  11.824  19.331  0.00  0.00    +0.000 OA
ATOM      3  N   UNL     1      -0.899  11.115  19.200  0.00  0.00    +0.000 N 
ENDROOT
BRANCH   1   7
ATOM      4  C   UNL     1       2.555   7.083  19.037  0.00  0.00    +0.000 A 
ATOM      5  C   UNL     1       1.945   7.487  20.221  0.00  0.00    +0.000 A 
ATOM      6  C   UNL     1       1.247   8.699  20.288  0.00  0.00    +0.000 A 
ATOM      7  C   UNL     1       1.098   9.519  19.169  0.00  0.00    +0.000 A 
ATOM      8  C   UNL     1       1.708   9.107  17.974  0.00  0.00    +0.000 A 
ATOM      9  C   UNL     1       2.432   7.902  17.913  0.00  0.00    +0.000 A 
BRANCH   4  10
ATOM     10  O   UNL     1       3.309   5.957  18.876  0.00  0.00    +0.000 OA
BRANCH  10  12
ATOM     11  C   UNL     1       4.388   4.321  17.520  0.00  0.00    +0.000 C 
ATOM     12  C   UNL     1       3.122   5.155  17.700  0.00  0.00    +0.000 C 
ATOM     13  C   UNL     1       1.910   4.235  17.856  0.00  0.00    +0.000 C 
ENDBRANCH  10  12
ENDBRANCH   4  10
ENDBRANCH   1   7
BRANCH   3  14
ATOM     14  C   UNL     1      -1.942  10.139  18.880  0.00  0.00    +0.000 C 
BRANCH  14  15
ATOM     15  C   UNL     1      -2.619  10.447  17.578  0.00  0.00    +0.000 A 
ATOM     16  C   UNL     1      -2.296  10.297  16.239  0.00  0.00    +0.000 A 
ATOM     17  C   UNL     1      -3.368  10.847  15.495  0.00  0.00    +0.000 A 
ATOM     18  C   UNL     1      -4.278  11.301  16.419  0.00  0.00    +0.000 A 
ATOM     19  O   UNL     1      -3.833  11.068  17.681  0.00  0.00    +0.000 OA
ENDBRANCH  14  15
ENDBRANCH   3  14
BRANCH   3  20
ATOM     20  C   UNL     1      -1.361  12.487  19.460  0.00  0.00    +0.000 C 
BRANCH  20  21
ATOM     21  C   UNL     1      -2.176  12.609  20.720  0.00  0.00    +0.000 A 
ATOM     22  C   UNL     1      -1.831  12.261  22.013  0.00  0.00    +0.000 A 
ATOM     23  C   UNL     1      -2.934  12.337  22.916  0.00  0.00    +0.000 A 
ATOM     24  C   UNL     1      -4.080  12.772  22.292  0.00  0.00    +0.000 A 
ATOM     25  S   UNL     1      -3.818  13.110  20.636  0.00  0.00    +0.000 S 
ENDBRANCH  20  21
ENDBRANCH   3  20
TORSDOF 7
ENDMDL
MODEL 5
REMARK VINA RESULT:      -7.0      1.071      1.215
REMARK  Name = 
REMARK  9 active torsions:
REMARK  status: ('A' for Active; 'I' for Inactive)
REMARK    1  A    between atoms: C_1  and  C_2
REMARK    2  A    between atoms: C_2  and  C_3
REMARK    3  A    between atoms: C_2  and  O_4
REMARK    4  A    between atoms: O_4  and  C_5
REMARK    5  A    between atoms: C_8  and  C_9
REMARK    6  A    between atoms: N_11  and  C_12
REMARK    7  A    between atoms: N_11  and  C_18
REMARK    8  A    between atoms: C_12  and  C_13
REMARK    9  A    between atoms: C_18  and  C_19
REMARK                            x       y       z     vdW  Elec       q    Type
REMARK                         _______ _______ _______ _____ _____    ______ ____
ROOT
ATOM      1  C   UNL     1       4.307   5.866  18.129  0.00  0.00    +0.000 C 
ATOM      2  O   UNL     1       5.460   6.248  18.348  0.00  0.00    +0.000 OA
ATOM      3  N   UNL     1       4.060   4.585  17.615  0.00  0.00    +0.000 N 
ENDROOT
BRANCH   1   7
ATOM      4  C   UNL     1       1.394   8.907  19.157  0.00  0.00    +0.000 A 
ATOM      5  C   UNL     1       1.971   8.892  17.890  0.00  0.00    +0.000 A 
ATOM      6  C   UNL     1       2.891   7.899  17.535  0.00  0.00    +0.000 A 
ATOM      7  C   UNL     1       3.227   6.867  18.411  0.00  0.00    +0.000 A 
ATOM      8  C   UNL     1       2.640   6.878  19.686  0.00  0.00    +0.000 A 
ATOM      9  C   UNL     1       1.736   7.891  20.054  0.00  0.00    +0.000 A 
BRANCH   4  10
ATOM     10  O   UNL     1       0.538   9.858  19.630  0.00  0.00    +0.000 OA
BRANCH  10  12
ATOM     11  C   UNL     1      -0.644  11.703  18.692  0.00  0.00    +0.000 C 
ATOM     12  C   UNL     1       0.709  11.220  19.210  0.00  0.00    +0.000 C 
ATOM     13  C   UNL     1       1.161  12.097  20.378  0.00  0.00    +0.000 C 
ENDBRANCH  10  12
ENDBRANCH   4  10
ENDBRANCH   1   7
BRANCH   3  14
ATOM     14  C   UNL     1       2.758   3.925  17.497  0.00  0.00    +0.000 C 
BRANCH  14  15
ATOM     15  C   UNL     1       2.257   3.430  18.820  0.00  0.00    +0.000 A 
ATOM     16  C   UNL     1       2.730   2.561  19.791  0.00  0.00    +0.000 A 
ATOM     17  C   UNL     1       1.732   2.487  20.794  0.00  0.00    +0.000 A 
ATOM     18  C   UNL     1       0.712   3.308  20.378  0.00  0.00    +0.000 A 
ATOM     19  O   UNL     1       1.018   3.880  19.184  0.00  0.00    +0.000 OA
ENDBRANCH  14  15
ENDBRANCH   3  14
BRANCH   3  20
ATOM     20  C   UNL     1       5.224   3.785  17.205  0.00  0.00    +0.000 C 
BRANCH  20  21
ATOM     21  C   UNL     1       5.713   4.117  15.820  0.00  0.00    +0.000 A 
ATOM     22  C   UNL     1       5.204   3.711  14.601  0.00  0.00    +0.000 A 
ATOM     23  C   UNL     1       6.051   4.063  13.506  0.00  0.00    +0.000 A 
ATOM     24  C   UNL     1       7.165   4.755  13.920  0.00  0.00    +0.000 A 
ATOM     25  S   UNL     1       7.172   5.001  15.613  0.00  0.00    +0.000 S 
ENDBRANCH  20  21
ENDBRANCH   3  20
TORSDOF 7
ENDMDL
MODEL 6
REMARK VINA RESULT:      -7.0      3.856      6.201
REMARK  Name = 
REMARK  9 active torsions:
REMARK  status: ('A' for Active; 'I' for Inactive)
REMARK    1  A    between atoms: C_1  and  C_2
REMARK    2  A    between atoms: C_2  and  C_3
REMARK    3  A    between atoms: C_2  and  O_4
REMARK    4  A    between atoms: O_4  and  C_5
REMARK    5  A    between atoms: C_8  and  C_9
REMARK    6  A    between atoms: N_11  and  C_12
REMARK    7  A    between atoms: N_11  and  C_18
REMARK    8  A    between atoms: C_12  and  C_13
REMARK    9  A    between atoms: C_18  and  C_19
REMARK                            x       y       z     vdW  Elec       q    Type
REMARK                         _______ _______ _______ _____ _____    ______ ____
ROOT
ATOM      1  C   UNL     1       6.049   5.352  17.114  0.00  0.00    +0.000 C 
ATOM      2  O   UNL     1       6.576   4.793  16.149  0.00  0.00    +0.000 OA
ATOM      3  N   UNL     1       4.804   4.928  17.601  0.00  0.00    +0.000 N 
ENDROOT
BRANCH   1   7
ATOM      4  C   UNL     1       8.514   8.583  18.623  0.00  0.00    +0.000 A 
ATOM      5  C   UNL     1       7.583   8.826  17.617  0.00  0.00    +0.000 A 
ATOM      6  C   UNL     1       6.760   7.799  17.141  0.00  0.00    +0.000 A 
ATOM      7  C   UNL     1       6.806   6.515  17.683  0.00  0.00    +0.000 A 
ATOM      8  C   UNL     1       7.741   6.272  18.702  0.00  0.00    +0.000 A 
ATOM      9  C   UNL     1       8.588   7.296  19.163  0.00  0.00    +0.000 A 
BRANCH   4  10
ATOM     10  O   UNL     1       9.406   9.489  19.117  0.00  0.00    +0.000 OA
BRANCH  10  12
ATOM     11  C   UNL     1       9.353  11.681  20.053  0.00  0.00    +0.000 C 
ATOM     12  C   UNL     1       9.263  10.873  18.761  0.00  0.00    +0.000 C 
ATOM     13  C   UNL     1      10.373  11.304  17.800  0.00  0.00    +0.000 C 
ENDBRANCH  10  12
ENDBRANCH   4  10
ENDBRANCH   1   7
BRANCH   3  14
ATOM     14  C   UNL     1       4.158   5.353  18.844  0.00  0.00    +0.000 C 
BRANCH  14  15
ATOM     15  C   UNL     1       3.315   6.577  18.649  0.00  0.00    +0.000 A 
ATOM     16  C   UNL     1       3.137   7.499  17.630  0.00  0.00    +0.000 A 
ATOM     17  C   UNL     1       2.216   8.464  18.109  0.00  0.00    +0.000 A 
ATOM     18  C   UNL     1       1.891   8.079  19.387  0.00  0.00    +0.000 A 
ATOM     19  O   UNL     1       2.553   6.941  19.724  0.00  0.00    +0.000 OA
ENDBRANCH  14  15
ENDBRANCH   3  14
BRANCH   3  20
ATOM     20  C   UNL     1       4.090   3.904  16.824  0.00  0.00    +0.000 C 
BRANCH  20  21
ATOM     21  C   UNL     1       2.980   3.241  17.597  0.00  0.00    +0.000 A 
ATOM     22  C   UNL     1       1.667   3.646  17.748  0.00  0.00    +0.000 A 
ATOM     23  C   UNL     1       0.960   2.870  18.715  0.00  0.00    +0.000 A 
ATOM     24  C   UNL     1       1.745   1.876  19.251  0.00  0.00    +0.000 A 
ATOM     25  S   UNL     1       3.314   1.864  18.570  0.00  0.00    +0.000 S 
ENDBRANCH  20  21
ENDBRANCH   3  20
TORSDOF 7
ENDMDL
MODEL 7
REMARK VINA RESULT:      -7.0      3.881      8.912
REMARK  Name = 
REMARK  9 active torsions:
REMARK  status: ('A' for Active; 'I' for Inactive)
REMARK    1  A    between atoms: C_1  and  C_2
REMARK    2  A    between atoms: C_2  and  C_3
REMARK    3  A    between atoms: C_2  and  O_4
REMARK    4  A    between atoms: O_4  and  C_5
REMARK    5  A    between atoms: C_8  and  C_9
REMARK    6  A    between atoms: N_11  and  C_12
REMARK    7  A    between atoms: N_11  and  C_18
REMARK    8  A    between atoms: C_12  and  C_13
REMARK    9  A    between atoms: C_18  and  C_19
REMARK                            x       y       z     vdW  Elec       q    Type
REMARK                         _______ _______ _______ _____ _____    ______ ____
ROOT
ATOM      1  C   UNL     1       0.620  11.040  19.091  0.00  0.00    +0.000 C 
ATOM      2  O   UNL     1       1.327  12.044  19.217  0.00  0.00    +0.000 OA
ATOM      3  N   UNL     1      -0.778  11.146  19.041  0.00  0.00    +0.000 N 
ENDROOT
BRANCH   1   7
ATOM      4  C   UNL     1       2.443   7.110  18.957  0.00  0.00    +0.000 A 
ATOM      5  C   UNL     1       2.470   7.931  17.833  0.00  0.00    +0.000 A 
ATOM      6  C   UNL     1       1.911   9.213  17.871  0.00  0.00    +0.000 A 
ATOM      7  C   UNL     1       1.353   9.734  19.039  0.00  0.00    +0.000 A 
ATOM      8  C   UNL     1       1.333   8.907  20.174  0.00  0.00    +0.000 A 
ATOM      9  C   UNL     1       1.870   7.608  20.129  0.00  0.00    +0.000 A 
BRANCH   4  10
ATOM     10  O   UNL     1       2.900   5.826  19.014  0.00  0.00    +0.000 OA
BRANCH  10  12
ATOM     11  C   UNL     1       4.065   4.137  17.801  0.00  0.00    +0.000 C 
ATOM     12  C   UNL     1       2.806   5.000  17.844  0.00  0.00    +0.000 C 
ATOM     13  C   UNL     1       1.565   4.107  17.906  0.00  0.00    +0.000 C 
ENDBRANCH  10  12
ENDBRANCH   4  10
ENDBRANCH   1   7
BRANCH   3  14
ATOM     14  C   UNL     1      -1.724  10.084  18.694  0.00  0.00    +0.000 C 
BRANCH  14  15
ATOM     15  C   UNL     1      -2.651  10.495  17.591  0.00  0.00    +0.000 A 
ATOM     16  C   UNL     1      -3.998  10.808  17.500  0.00  0.00    +0.000 A 
ATOM     17  C   UNL     1      -4.266  11.068  16.134  0.00  0.00    +0.000 A 
ATOM     18  C   UNL     1      -3.075  10.896  15.472  0.00  0.00    +0.000 A 
ATOM     19  O   UNL     1      -2.092  10.547  16.344  0.00  0.00    +0.000 OA
ENDBRANCH  14  15
ENDBRANCH   3  14
BRANCH   3  20
ATOM     20  C   UNL     1      -1.365  12.469  19.299  0.00  0.00    +0.000 C 
BRANCH  20  21
ATOM     21  C   UNL     1      -2.066  12.556  20.628  0.00  0.00    +0.000 A 
ATOM     22  C   UNL     1      -1.616  12.161  21.874  0.00  0.00    +0.000 A 
ATOM     23  C   UNL     1      -2.637  12.218  22.871  0.00  0.00    +0.000 A 
ATOM     24  C   UNL     1      -3.827  12.684  22.364  0.00  0.00    +0.000 A 
ATOM     25  S   UNL     1      -3.703  13.076  20.703  0.00  0.00    +0.000 S 
ENDBRANCH  20  21
ENDBRANCH   3  20
TORSDOF 7
ENDMDL
MODEL 8
REMARK VINA RESULT:      -7.0      1.728      2.261
REMARK  Name = 
REMARK  9 active torsions:
REMARK  status: ('A' for Active; 'I' for Inactive)
REMARK    1  A    between atoms: C_1  and  C_2
REMARK    2  A    between atoms: C_2  and  C_3
REMARK    3  A    between atoms: C_2  and  O_4
REMARK    4  A    between atoms: O_4  and  C_5
REMARK    5  A    between atoms: C_8  and  C_9
REMARK    6  A    between atoms: N_11  and  C_12
REMARK    7  A    between atoms: N_11  and  C_18
REMARK    8  A    between atoms: C_12  and  C_13
REMARK    9  A    between atoms: C_18  and  C_19
REMARK                            x       y       z     vdW  Elec       q    Type
REMARK                         _______ _______ _______ _____ _____    ______ ____
ROOT
ATOM      1  C   UNL     1       3.241   7.023  17.996  0.00  0.00    +0.000 C 
ATOM      2  O   UNL     1       4.331   7.559  17.774  0.00  0.00    +0.000 OA
ATOM      3  N   UNL     1       3.041   5.661  17.729  0.00  0.00    +0.000 N 
ENDROOT
BRANCH   1   7
ATOM      4  C   UNL     1       0.378   9.818  19.663  0.00  0.00    +0.000 A 
ATOM      5  C   UNL     1       0.630   9.811  18.294  0.00  0.00    +0.000 A 
ATOM      6  C   UNL     1       1.530   8.894  17.738  0.00  0.00    +0.000 A 
ATOM      7  C   UNL     1       2.168   7.930  18.519  0.00  0.00    +0.000 A 
ATOM      8  C   UNL     1       1.908   7.934  19.899  0.00  0.00    +0.000 A 
ATOM      9  C   UNL     1       1.024   8.872  20.463  0.00  0.00    +0.000 A 
BRANCH   4  10
ATOM     10  O   UNL     1      -0.428  10.703  20.318  0.00  0.00    +0.000 OA
BRANCH  10  12
ATOM     11  C   UNL     1       0.649  12.719  20.994  0.00  0.00    +0.000 C 
ATOM     12  C   UNL     1       0.080  11.385  21.474  0.00  0.00    +0.000 C 
ATOM     13  C   UNL     1      -1.033  11.632  22.493  0.00  0.00    +0.000 C 
ENDBRANCH  10  12
ENDBRANCH   4  10
ENDBRANCH   1   7
BRANCH   3  14
ATOM     14  C   UNL     1       1.887   4.852  18.124  0.00  0.00    +0.000 C 
BRANCH  14  15
ATOM     15  C   UNL     1       2.067   4.240  19.480  0.00  0.00    +0.000 A 
ATOM     16  C   UNL     1       1.711   4.586  20.774  0.00  0.00    +0.000 A 
ATOM     17  C   UNL     1       2.238   3.584  21.625  0.00  0.00    +0.000 A 
ATOM     18  C   UNL     1       2.884   2.690  20.807  0.00  0.00    +0.000 A 
ATOM     19  O   UNL     1       2.790   3.079  19.508  0.00  0.00    +0.000 OA
ENDBRANCH  14  15
ENDBRANCH   3  14
BRANCH   3  20
ATOM     20  C   UNL     1       4.121   4.943  17.037  0.00  0.00    +0.000 C 
BRANCH  20  21
ATOM     21  C   UNL     1       5.426   4.969  17.788  0.00  0.00    +0.000 A 
ATOM     22  C   UNL     1       5.640   5.027  19.153  0.00  0.00    +0.000 A 
ATOM     23  C   UNL     1       7.013   5.236  19.486  0.00  0.00    +0.000 A 
ATOM     24  C   UNL     1       7.809   5.301  18.367  0.00  0.00    +0.000 A 
ATOM     25  S   UNL     1       6.910   5.082  16.929  0.00  0.00    +0.000 S 
ENDBRANCH  20  21
ENDBRANCH   3  20
TORSDOF 7
ENDMDL
MODEL 9
REMARK VINA RESULT:      -6.9      2.324      4.103
REMARK  Name = 
REMARK  9 active torsions:
REMARK  status: ('A' for Active; 'I' for Inactive)
REMARK    1  A    between atoms: C_1  and  C_2
REMARK    2  A    between atoms: C_2  and  C_3
REMARK    3  A    between atoms: C_2  and  O_4
REMARK    4  A    between atoms: O_4  and  C_5
REMARK    5  A    between atoms: C_8  and  C_9
REMARK    6  A    between atoms: N_11  and  C_12
REMARK    7  A    between atoms: N_11  and  C_18
REMARK    8  A    between atoms: C_12  and  C_13
REMARK    9  A    between atoms: C_18  and  C_19
REMARK                            x       y       z     vdW  Elec       q    Type
REMARK                         _______ _______ _______ _____ _____    ______ ____
ROOT
ATOM      1  C   UNL     1       3.785   4.651  17.324  0.00  0.00    +0.000 C 
ATOM      2  O   UNL     1       3.331   3.505  17.383  0.00  0.00    +0.000 OA
ATOM      3  N   UNL     1       4.915   4.939  16.545  0.00  0.00    +0.000 N 
ENDROOT
BRANCH   1   7
ATOM      4  C   UNL     1       2.004   7.617  19.937  0.00  0.00    +0.000 A 
ATOM      5  C   UNL     1       2.357   7.956  18.634  0.00  0.00    +0.000 A 
ATOM      6  C   UNL     1       2.905   7.001  17.770  0.00  0.00    +0.000 A 
ATOM      7  C   UNL     1       3.075   5.673  18.161  0.00  0.00    +0.000 A 
ATOM      8  C   UNL     1       2.713   5.330  19.475  0.00  0.00    +0.000 A 
ATOM      9  C   UNL     1       2.187   6.295  20.352  0.00  0.00    +0.000 A 
BRANCH   4  10
ATOM     10  O   UNL     1       1.523   8.477  20.880  0.00  0.00    +0.000 OA
BRANCH  10  12
ATOM     11  C   UNL     1      -0.433   8.912  22.171  0.00  0.00    +0.000 C 
ATOM     12  C   UNL     1       0.171   8.946  20.770  0.00  0.00    +0.000 C 
ATOM     13  C   UNL     1       0.134  10.374  20.223  0.00  0.00    +0.000 C 
ENDBRANCH  10  12
ENDBRANCH   4  10
ENDBRANCH   1   7
BRANCH   3  14
ATOM     14  C   UNL     1       5.438   6.267  16.220  0.00  0.00    +0.000 C 
BRANCH  14  15
ATOM     15  C   UNL     1       6.551   6.673  17.139  0.00  0.00    +0.000 A 
ATOM     16  C   UNL     1       7.187   6.102  18.228  0.00  0.00    +0.000 A 
ATOM     17  C   UNL     1       8.140   7.045  18.687  0.00  0.00    +0.000 A 
ATOM     18  C   UNL     1       8.027   8.133  17.857  0.00  0.00    +0.000 A 
ATOM     19  O   UNL     1       7.067   7.920  16.919  0.00  0.00    +0.000 OA
ENDBRANCH  14  15
ENDBRANCH   3  14
BRANCH   3  20
ATOM     20  C   UNL     1       5.620   3.803  15.934  0.00  0.00    +0.000 C 
BRANCH  20  21
ATOM     21  C   UNL     1       5.876   3.987  14.462  0.00  0.00    +0.000 A 
ATOM     22  C   UNL     1       5.122   3.548  13.389  0.00  0.00    +0.000 A 
ATOM     23  C   UNL     1       5.783   3.738  12.138  0.00  0.00    +0.000 A 
ATOM     24  C   UNL     1       7.007   4.345  12.290  0.00  0.00    +0.000 A 
ATOM     25  S   UNL     1       7.342   4.707  13.928  0.00  0.00    +0.000 S 
ENDBRANCH  20  21
ENDBRANCH   3  20
TORSDOF 7
ENDMDL
