MODEL 1
REMARK VINA RESULT:      -8.6      0.000      0.000
REMARK  Name = 
REMARK  5 active torsions:
REMARK  status: ('A' for Active; 'I' for Inactive)
REMARK    1  A    between atoms: C_1  and  C_2
REMARK    2  A    between atoms: C_7  and  C_8
REMARK    3  A    between atoms: C_8  and  N_9
REMARK    4  A    between atoms: C_10  and  C_12
REMARK    5  A    between atoms: C_18  and  C_19
REMARK                            x       y       z     vdW  Elec       q    Type
REMARK                         _______ _______ _______ _____ _____    ______ ____
ROOT
ATOM      1  C   UNL     1       2.947   4.673  19.717  0.00  0.00    +0.000 A 
ATOM      2  C   UNL     1       2.122   3.988  20.626  0.00  0.00    +0.000 A 
ATOM      3  F   UNL     1       0.965   4.529  21.047  0.00  0.00    +0.000 F 
ATOM      4  C   UNL     1       2.456   2.734  21.123  0.00  0.00    +0.000 A 
ATOM      5  C   UNL     1       3.640   2.143  20.719  0.00  0.00    +0.000 A 
ATOM      6  C   UNL     1       4.490   2.815  19.837  0.00  0.00    +0.000 A 
ATOM      7  C   UNL     1       4.178   4.092  19.303  0.00  0.00    +0.000 A 
ENDROOT
BRANCH   7   8
ATOM      8  C   UNL     1       5.166   4.730  18.383  0.00  0.00    +0.000 A 
ATOM      9  C   UNL     1       5.137   4.476  16.995  0.00  0.00    +0.000 A 
ATOM     10  C   UNL     1       6.057   5.058  16.115  0.00  0.00    +0.000 A 
ATOM     11  C   UNL     1       7.016   5.941  16.596  0.00  0.00    +0.000 A 
ATOM     12  C   UNL     1       7.068   6.208  17.960  0.00  0.00    +0.000 A 
ATOM     13 CL   UNL     1       8.234   7.324  18.564  0.00  0.00    +0.000 Cl
ATOM     14  C   UNL     1       6.182   5.589  18.844  0.00  0.00    +0.000 A 
ENDBRANCH   7   8
BRANCH   1  16
ATOM     15  N   UNL     1       2.303   6.997  20.091  0.00  0.00    +0.000 N 
ATOM     16  C   UNL     1       2.443   5.968  19.182  0.00  0.00    +0.000 C 
ATOM     17  O   UNL     1       2.181   6.093  17.992  0.00  0.00    +0.000 OA
ATOM     18  H   UNL     1       2.368   6.794  21.084  0.00  0.00    +0.000 HD
BRANCH  15  19
ATOM     19  C   UNL     1       1.888   8.333  19.702  0.00  0.00    +0.000 C 
BRANCH  19  26
ATOM     20  C   UNL     1      -0.002  10.629  18.864  0.00  0.00    +0.000 C 
ATOM     21  C   UNL     1       0.513  10.420  20.290  0.00  0.00    +0.000 C 
ATOM     22  C   UNL     1      -0.507  10.990  21.292  0.00  0.00    +0.000 C 
ATOM     23  N   UNL     1      -0.033  10.864  22.670  0.00  0.00    +0.000 NA
ATOM     24  C   UNL     1       0.190   9.464  23.023  0.00  0.00    +0.000 C 
ATOM     25  C   UNL     1       1.214   8.811  22.098  0.00  0.00    +0.000 C 
ATOM     26  C   UNL     1       0.805   8.930  20.617  0.00  0.00    +0.000 C 
ATOM     27  H   UNL     1      -0.731  11.260  23.299  0.00  0.00    +0.000 HD
ENDBRANCH  19  26
ENDBRANCH  15  19
ENDBRANCH   1  16
TORSDOF 4
ENDMDL
MODEL 2
REMARK VINA RESULT:      -8.5      1.003      1.386
REMARK  Name = 
REMARK  5 active torsions:
REMARK  status: ('A' for Active; 'I' for Inactive)
REMARK    1  A    between atoms: C_1  and  C_2
REMARK    2  A    between atoms: C_7  and  C_8
REMARK    3  A    between atoms: C_8  and  N_9
REMARK    4  A    between atoms: C_10  and  C_12
REMARK    5  A    between atoms: C_18  and  C_19
REMARK                            x       y       z     vdW  Elec       q    Type
REMARK                         _______ _______ _______ _____ _____    ______ ____
ROOT
ATOM      1  C   UNL     1       2.897   4.714  19.696  0.00  0.00    +0.000 A 
ATOM      2  C   UNL     1       2.016   4.000  20.527  0.00  0.00    +0.000 A 
ATOM      3  F   UNL     1       0.836   4.531  20.895  0.00  0.00    +0.000 F 
ATOM      4  C   UNL     1       2.316   2.728  20.998  0.00  0.00    +0.000 A 
ATOM      5  C   UNL     1       3.521   2.146  20.647  0.00  0.00    +0.000 A 
ATOM      6  C   UNL     1       4.426   2.846  19.844  0.00  0.00    +0.000 A 
ATOM      7  C   UNL     1       4.150   4.143  19.339  0.00  0.00    +0.000 A 
ENDROOT
BRANCH   7   8
ATOM      8  C   UNL     1       5.194   4.810  18.505  0.00  0.00    +0.000 A 
ATOM      9  C   UNL     1       6.200   5.604  19.097  0.00  0.00    +0.000 A 
ATOM     10  C   UNL     1       7.184   6.245  18.334  0.00  0.00    +0.000 A 
ATOM     11  C   UNL     1       7.210   6.081  16.955  0.00  0.00    +0.000 A 
ATOM     12  C   UNL     1       6.229   5.305  16.345  0.00  0.00    +0.000 A 
ATOM     13 CL   UNL     1       6.269   5.071  14.639  0.00  0.00    +0.000 Cl
ATOM     14  C   UNL     1       5.219   4.706  17.101  0.00  0.00    +0.000 A 
ENDBRANCH   7   8
BRANCH   1  16
ATOM     15  N   UNL     1       2.267   7.036  20.110  0.00  0.00    +0.000 N 
ATOM     16  C   UNL     1       2.429   6.030  19.178  0.00  0.00    +0.000 C 
ATOM     17  O   UNL     1       2.214   6.190  17.983  0.00  0.00    +0.000 OA
ATOM     18  H   UNL     1       2.292   6.805  21.098  0.00  0.00    +0.000 HD
BRANCH  15  19
ATOM     19  C   UNL     1       1.884   8.387  19.741  0.00  0.00    +0.000 C 
BRANCH  19  26
ATOM     20  C   UNL     1      -0.001  10.678  18.879  0.00  0.00    +0.000 C 
ATOM     21  C   UNL     1       0.494  10.469  20.313  0.00  0.00    +0.000 C 
ATOM     22  C   UNL     1      -0.541  11.035  21.300  0.00  0.00    +0.000 C 
ATOM     23  N   UNL     1      -0.087  10.909  22.684  0.00  0.00    +0.000 NA
ATOM     24  C   UNL     1       0.135   9.509  23.040  0.00  0.00    +0.000 C 
ATOM     25  C   UNL     1       1.174   8.860  22.128  0.00  0.00    +0.000 C 
ATOM     26  C   UNL     1       0.786   8.980  20.642  0.00  0.00    +0.000 C 
ATOM     27  H   UNL     1      -0.794  11.302  23.304  0.00  0.00    +0.000 HD
ENDBRANCH  19  26
ENDBRANCH  15  19
ENDBRANCH   1  16
TORSDOF 4
ENDMDL
MODEL 3
REMARK VINA RESULT:      -8.1      1.938      2.452
REMARK  Name = 
REMARK  5 active torsions:
REMARK  status: ('A' for Active; 'I' for Inactive)
REMARK    1  A    between atoms: C_1  and  C_2
REMARK    2  A    between atoms: C_7  and  C_8
REMARK    3  A    between atoms: C_8  and  N_9
REMARK    4  A    between atoms: C_10  and  C_12
REMARK    5  A    between atoms: C_18  and  C_19
REMARK                            x       y       z     vdW  Elec       q    Type
REMARK                         _______ _______ _______ _____ _____    ______ ____
ROOT
ATOM      1  C   UNL     1       2.344   3.954  19.530  0.00  0.00    +0.000 A 
ATOM      2  C   UNL     1       1.387   2.935  19.676  0.00  0.00    +0.000 A 
ATOM      3  F   UNL     1       0.511   2.955  20.697  0.00  0.00    +0.000 F 
ATOM      4  C   UNL     1       1.298   1.874  18.782  0.00  0.00    +0.000 A 
ATOM      5  C   UNL     1       2.183   1.812  17.720  0.00  0.00    +0.000 A 
ATOM      6  C   UNL     1       3.160   2.799  17.569  0.00  0.00    +0.000 A 
ATOM      7  C   UNL     1       3.276   3.900  18.456  0.00  0.00    +0.000 A 
ENDROOT
BRANCH   7   8
ATOM      8  C   UNL     1       4.370   4.888  18.214  0.00  0.00    +0.000 A 
ATOM      9  C   UNL     1       4.205   5.943  17.291  0.00  0.00    +0.000 A 
ATOM     10  C   UNL     1       5.219   6.876  17.043  0.00  0.00    +0.000 A 
ATOM     11  C   UNL     1       6.419   6.799  17.739  0.00  0.00    +0.000 A 
ATOM     12  C   UNL     1       6.608   5.769  18.654  0.00  0.00    +0.000 A 
ATOM     13 CL   UNL     1       8.081   5.682  19.544  0.00  0.00    +0.000 Cl
ATOM     14  C   UNL     1       5.615   4.809  18.864  0.00  0.00    +0.000 A 
ENDBRANCH   7   8
BRANCH   1  16
ATOM     15  N   UNL     1       1.714   6.257  20.037  0.00  0.00    +0.000 N 
ATOM     16  C   UNL     1       2.285   5.087  20.495  0.00  0.00    +0.000 C 
ATOM     17  O   UNL     1       2.719   4.961  21.633  0.00  0.00    +0.000 OA
ATOM     18  H   UNL     1       1.529   6.363  19.044  0.00  0.00    +0.000 HD
BRANCH  15  19
ATOM     19  C   UNL     1       1.527   7.420  20.886  0.00  0.00    +0.000 C 
BRANCH  19  26
ATOM     20  C   UNL     1      -0.080   9.936  21.680  0.00  0.00    +0.000 C 
ATOM     21  C   UNL     1       0.268   9.561  20.237  0.00  0.00    +0.000 C 
ATOM     22  C   UNL     1       0.352  10.837  19.382  0.00  0.00    +0.000 C 
ATOM     23  N   UNL     1       0.628  10.526  17.980  0.00  0.00    +0.000 NA
ATOM     24  C   UNL     1       1.899   9.820  17.838  0.00  0.00    +0.000 C 
ATOM     25  C   UNL     1       1.906   8.517  18.633  0.00  0.00    +0.000 C 
ATOM     26  C   UNL     1       1.589   8.753  20.122  0.00  0.00    +0.000 C 
ATOM     27  H   UNL     1       0.667  11.395  17.448  0.00  0.00    +0.000 HD
ENDBRANCH  19  26
ENDBRANCH  15  19
ENDBRANCH   1  16
TORSDOF 4
ENDMDL
MODEL 4
REMARK VINA RESULT:      -7.9      1.790      2.048
REMARK  Name = 
REMARK  5 active torsions:
REMARK  status: ('A' for Active; 'I' for Inactive)
REMARK    1  A    between atoms: C_1  and  C_2
REMARK    2  A    between atoms: C_7  and  C_8
REMARK    3  A    between atoms: C_8  and  N_9
REMARK    4  A    between atoms: C_10  and  C_12
REMARK    5  A    between atoms: C_18  and  C_19
REMARK                            x       y       z     vdW  Elec       q    Type
REMARK                         _______ _______ _______ _____ _____    ______ ____
ROOT
ATOM      1  C   UNL     1       2.485   4.346  19.029  0.00  0.00    +0.000 A 
ATOM      2  C   UNL     1       1.298   3.825  19.571  0.00  0.00    +0.000 A 
ATOM      3  F   UNL     1       0.526   4.572  20.381  0.00  0.00    +0.000 F 
ATOM      4  C   UNL     1       0.868   2.532  19.297  0.00  0.00    +0.000 A 
ATOM      5  C   UNL     1       1.635   1.729  18.472  0.00  0.00    +0.000 A 
ATOM      6  C   UNL     1       2.833   2.215  17.942  0.00  0.00    +0.000 A 
ATOM      7  C   UNL     1       3.299   3.531  18.193  0.00  0.00    +0.000 A 
ENDROOT
BRANCH   7   8
ATOM      8  C   UNL     1       4.602   3.944  17.593  0.00  0.00    +0.000 A 
ATOM      9  C   UNL     1       5.703   4.285  18.408  0.00  0.00    +0.000 A 
ATOM     10  C   UNL     1       6.932   4.682  17.868  0.00  0.00    +0.000 A 
ATOM     11  C   UNL     1       7.105   4.716  16.490  0.00  0.00    +0.000 A 
ATOM     12  C   UNL     1       6.037   4.387  15.663  0.00  0.00    +0.000 A 
ATOM     13 CL   UNL     1       6.250   4.398  13.953  0.00  0.00    +0.000 Cl
ATOM     14  C   UNL     1       4.796   4.039  16.202  0.00  0.00    +0.000 A 
ENDBRANCH   7   8
BRANCH   1  16
ATOM     15  N   UNL     1       1.982   6.715  18.723  0.00  0.00    +0.000 N 
ATOM     16  C   UNL     1       2.797   5.775  19.318  0.00  0.00    +0.000 C 
ATOM     17  O   UNL     1       3.727   6.073  20.057  0.00  0.00    +0.000 OA
ATOM     18  H   UNL     1       1.340   6.425  17.991  0.00  0.00    +0.000 HD
BRANCH  15  19
ATOM     19  C   UNL     1       2.123   8.140  18.969  0.00  0.00    +0.000 C 
BRANCH  19  26
ATOM     20  C   UNL     1       0.070  10.350  18.303  0.00  0.00    +0.000 C 
ATOM     21  C   UNL     1       0.717  10.167  19.678  0.00  0.00    +0.000 C 
ATOM     22  C   UNL     1      -0.234  10.696  20.766  0.00  0.00    +0.000 C 
ATOM     23  N   UNL     1       0.364  10.594  22.096  0.00  0.00    +0.000 NA
ATOM     24  C   UNL     1       0.677   9.206  22.428  0.00  0.00    +0.000 C 
ATOM     25  C   UNL     1       1.643   8.595  21.415  0.00  0.00    +0.000 C 
ATOM     26  C   UNL     1       1.101   8.692  19.976  0.00  0.00    +0.000 C 
ATOM     27  H   UNL     1      -0.292  10.962  22.785  0.00  0.00    +0.000 HD
ENDBRANCH  19  26
ENDBRANCH  15  19
ENDBRANCH   1  16
TORSDOF 4
ENDMDL
MODEL 5
REMARK VINA RESULT:      -7.8      1.433      1.498
REMARK  Name = 
REMARK  5 active torsions:
REMARK  status: ('A' for Active; 'I' for Inactive)
REMARK    1  A    between atoms: C_1  and  C_2
REMARK    2  A    between atoms: C_7  and  C_8
REMARK    3  A    between atoms: C_8  and  N_9
REMARK    4  A    between atoms: C_10  and  C_12
REMARK    5  A    between atoms: C_18  and  C_19
REMARK                            x       y       z     vdW  Elec       q    Type
REMARK                         _______ _______ _______ _____ _____    ______ ____
ROOT
ATOM      1  C   UNL     1       2.419   4.464  19.014  0.00  0.00    +0.000 A 
ATOM      2  C   UNL     1       1.239   3.958  19.587  0.00  0.00    +0.000 A 
ATOM      3  F   UNL     1       0.495   4.716  20.411  0.00  0.00    +0.000 F 
ATOM      4  C   UNL     1       0.791   2.668  19.329  0.00  0.00    +0.000 A 
ATOM      5  C   UNL     1       1.529   1.853  18.490  0.00  0.00    +0.000 A 
ATOM      6  C   UNL     1       2.720   2.325  17.930  0.00  0.00    +0.000 A 
ATOM      7  C   UNL     1       3.205   3.637  18.164  0.00  0.00    +0.000 A 
ENDROOT
BRANCH   7   8
ATOM      8  C   UNL     1       4.498   4.033  17.531  0.00  0.00    +0.000 A 
ATOM      9  C   UNL     1       4.644   4.058  16.128  0.00  0.00    +0.000 A 
ATOM     10  C   UNL     1       5.849   4.419  15.513  0.00  0.00    +0.000 A 
ATOM     11  C   UNL     1       6.937   4.800  16.289  0.00  0.00    +0.000 A 
ATOM     12  C   UNL     1       6.821   4.783  17.675  0.00  0.00    +0.000 A 
ATOM     13 CL   UNL     1       8.155   5.281  18.645  0.00  0.00    +0.000 Cl
ATOM     14  C   UNL     1       5.634   4.375  18.288  0.00  0.00    +0.000 A 
ENDBRANCH   7   8
BRANCH   1  16
ATOM     15  N   UNL     1       1.958   6.837  18.676  0.00  0.00    +0.000 N 
ATOM     16  C   UNL     1       2.752   5.890  19.290  0.00  0.00    +0.000 C 
ATOM     17  O   UNL     1       3.682   6.182  20.032  0.00  0.00    +0.000 OA
ATOM     18  H   UNL     1       1.317   6.548  17.943  0.00  0.00    +0.000 HD
BRANCH  15  19
ATOM     19  C   UNL     1       2.121   8.262  18.907  0.00  0.00    +0.000 C 
BRANCH  19  26
ATOM     20  C   UNL     1       0.823  11.036  18.500  0.00  0.00    +0.000 C 
ATOM     21  C   UNL     1       1.095  10.409  19.870  0.00  0.00    +0.000 C 
ATOM     22  C   UNL     1       0.075  10.946  20.889  0.00  0.00    +0.000 C 
ATOM     23  N   UNL     1       0.329  10.418  22.230  0.00  0.00    +0.000 NA
ATOM     24  C   UNL     1       0.237   8.960  22.247  0.00  0.00    +0.000 C 
ATOM     25  C   UNL     1       1.235   8.326  21.281  0.00  0.00    +0.000 C 
ATOM     26  C   UNL     1       1.057   8.857  19.845  0.00  0.00    +0.000 C 
ATOM     27  H   UNL     1      -0.360  10.804  22.875  0.00  0.00    +0.000 HD
ENDBRANCH  19  26
ENDBRANCH  15  19
ENDBRANCH   1  16
TORSDOF 4
ENDMDL
MODEL 6
REMARK VINA RESULT:      -7.8      1.774      2.045
REMARK  Name = 
REMARK  5 active torsions:
REMARK  status: ('A' for Active; 'I' for Inactive)
REMARK    1  A    between atoms: C_1  and  C_2
REMARK    2  A    between atoms: C_7  and  C_8
REMARK    3  A    between atoms: C_8  and  N_9
REMARK    4  A    between atoms: C_10  and  C_12
REMARK    5  A    between atoms: C_18  and  C_19
REMARK                            x       y       z     vdW  Elec       q    Type
REMARK                         _______ _______ _______ _____ _____    ______ ____
ROOT
ATOM      1  C   UNL     1       2.312   4.264  19.384  0.00  0.00    +0.000 A 
ATOM      2  C   UNL     1       1.285   3.316  19.541  0.00  0.00    +0.000 A 
ATOM      3  F   UNL     1       0.398   3.423  20.547  0.00  0.00    +0.000 F 
ATOM      4  C   UNL     1       1.137   2.241  18.674  0.00  0.00    +0.000 A 
ATOM      5  C   UNL     1       2.031   2.090  17.629  0.00  0.00    +0.000 A 
ATOM      6  C   UNL     1       3.076   3.004  17.468  0.00  0.00    +0.000 A 
ATOM      7  C   UNL     1       3.254   4.118  18.328  0.00  0.00    +0.000 A 
ENDROOT
BRANCH   7   8
ATOM      8  C   UNL     1       4.415   5.022  18.079  0.00  0.00    +0.000 A 
ATOM      9  C   UNL     1       4.363   6.014  17.075  0.00  0.00    +0.000 A 
ATOM     10  C   UNL     1       5.442   6.868  16.819  0.00  0.00    +0.000 A 
ATOM     11  C   UNL     1       6.597   6.776  17.586  0.00  0.00    +0.000 A 
ATOM     12  C   UNL     1       6.676   5.807  18.580  0.00  0.00    +0.000 A 
ATOM     13 CL   UNL     1       8.093   5.704  19.556  0.00  0.00    +0.000 Cl
ATOM     14  C   UNL     1       5.618   4.922  18.802  0.00  0.00    +0.000 A 
ENDBRANCH   7   8
BRANCH   1  16
ATOM     15  N   UNL     1       1.979   6.649  19.780  0.00  0.00    +0.000 N 
ATOM     16  C   UNL     1       2.316   5.424  20.319  0.00  0.00    +0.000 C 
ATOM     17  O   UNL     1       2.598   5.273  21.501  0.00  0.00    +0.000 OA
ATOM     18  H   UNL     1       1.922   6.749  18.771  0.00  0.00    +0.000 HD
BRANCH  15  19
ATOM     19  C   UNL     1       1.874   7.854  20.585  0.00  0.00    +0.000 C 
BRANCH  19  26
ATOM     20  C   UNL     1       1.943   9.050  17.737  0.00  0.00    +0.000 C 
ATOM     21  C   UNL     1       1.434   9.801  18.970  0.00  0.00    +0.000 C 
ATOM     22  C   UNL     1       0.385  10.841  18.540  0.00  0.00    +0.000 C 
ATOM     23  N   UNL     1      -0.091  11.625  19.679  0.00  0.00    +0.000 NA
ATOM     24  C   UNL     1      -0.714  10.767  20.684  0.00  0.00    +0.000 C 
ATOM     25  C   UNL     1       0.261   9.711  21.198  0.00  0.00    +0.000 C 
ATOM     26  C   UNL     1       0.838   8.859  20.051  0.00  0.00    +0.000 C 
ATOM     27  H   UNL     1      -0.775  12.307  19.351  0.00  0.00    +0.000 HD
ENDBRANCH  19  26
ENDBRANCH  15  19
ENDBRANCH   1  16
TORSDOF 4
ENDMDL
MODEL 7
REMARK VINA RESULT:      -7.7      1.174      1.859
REMARK  Name = 
REMARK  5 active torsions:
REMARK  status: ('A' for Active; 'I' for Inactive)
REMARK    1  A    between atoms: C_1  and  C_2
REMARK    2  A    between atoms: C_7  and  C_8
REMARK    3  A    between atoms: C_8  and  N_9
REMARK    4  A    between atoms: C_10  and  C_12
REMARK    5  A    between atoms: C_18  and  C_19
REMARK                            x       y       z     vdW  Elec       q    Type
REMARK                         _______ _______ _______ _____ _____    ______ ____
ROOT
ATOM      1  C   UNL     1       2.787   4.415  19.310  0.00  0.00    +0.000 A 
ATOM      2  C   UNL     1       2.024   3.882  20.363  0.00  0.00    +0.000 A 
ATOM      3  F   UNL     1       0.817   4.391  20.665  0.00  0.00    +0.000 F 
ATOM      4  C   UNL     1       2.475   2.814  21.131  0.00  0.00    +0.000 A 
ATOM      5  C   UNL     1       3.714   2.264  20.858  0.00  0.00    +0.000 A 
ATOM      6  C   UNL     1       4.502   2.794  19.832  0.00  0.00    +0.000 A 
ATOM      7  C   UNL     1       4.073   3.877  19.024  0.00  0.00    +0.000 A 
ENDROOT
BRANCH   7   8
ATOM      8  C   UNL     1       5.001   4.379  17.968  0.00  0.00    +0.000 A 
ATOM      9  C   UNL     1       5.051   3.772  16.694  0.00  0.00    +0.000 A 
ATOM     10  C   UNL     1       5.918   4.222  15.692  0.00  0.00    +0.000 A 
ATOM     11  C   UNL     1       6.741   5.317  15.925  0.00  0.00    +0.000 A 
ATOM     12  C   UNL     1       6.713   5.933  17.171  0.00  0.00    +0.000 A 
ATOM     13 CL   UNL     1       7.707   7.310  17.461  0.00  0.00    +0.000 Cl
ATOM     14  C   UNL     1       5.884   5.453  18.188  0.00  0.00    +0.000 A 
ENDBRANCH   7   8
BRANCH   1  16
ATOM     15  N   UNL     1       2.478   6.794  18.854  0.00  0.00    +0.000 N 
ATOM     16  C   UNL     1       2.163   5.498  18.498  0.00  0.00    +0.000 C 
ATOM     17  O   UNL     1       1.420   5.228  17.563  0.00  0.00    +0.000 OA
ATOM     18  H   UNL     1       2.956   6.965  19.734  0.00  0.00    +0.000 HD
BRANCH  15  19
ATOM     19  C   UNL     1       2.000   7.946  18.112  0.00  0.00    +0.000 C 
BRANCH  19  26
ATOM     20  C   UNL     1       1.067   8.070  21.054  0.00  0.00    +0.000 C 
ATOM     21  C   UNL     1       0.861   9.199  20.041  0.00  0.00    +0.000 C 
ATOM     22  C   UNL     1       0.803  10.547  20.781  0.00  0.00    +0.000 C 
ATOM     23  N   UNL     1       0.551  11.654  19.860  0.00  0.00    +0.000 NA
ATOM     24  C   UNL     1       1.606  11.753  18.854  0.00  0.00    +0.000 C 
ATOM     25  C   UNL     1       1.725  10.465  18.042  0.00  0.00    +0.000 C 
ATOM     26  C   UNL     1       1.960   9.239  18.945  0.00  0.00    +0.000 C 
ATOM     27  H   UNL     1       0.511  12.525  20.389  0.00  0.00    +0.000 HD
ENDBRANCH  19  26
ENDBRANCH  15  19
ENDBRANCH   1  16
TORSDOF 4
ENDMDL
MODEL 8
REMARK VINA RESULT:      -7.7      1.708      2.443
REMARK  Name = 
REMARK  5 active torsions:
REMARK  status: ('A' for Active; 'I' for Inactive)
REMARK    1  A    between atoms: C_1  and  C_2
REMARK    2  A    between atoms: C_7  and  C_8
REMARK    3  A    between atoms: C_8  and  N_9
REMARK    4  A    between atoms: C_10  and  C_12
REMARK    5  A    between atoms: C_18  and  C_19
REMARK                            x       y       z     vdW  Elec       q    Type
REMARK                         _______ _______ _______ _____ _____    ______ ____
ROOT
ATOM      1  C   UNL     1       2.759   4.325  19.407  0.00  0.00    +0.000 A 
ATOM      2  C   UNL     1       1.904   3.847  20.415  0.00  0.00    +0.000 A 
ATOM      3  F   UNL     1       0.697   4.405  20.615  0.00  0.00    +0.000 F 
ATOM      4  C   UNL     1       2.259   2.786  21.240  0.00  0.00    +0.000 A 
ATOM      5  C   UNL     1       3.495   2.186  21.071  0.00  0.00    +0.000 A 
ATOM      6  C   UNL     1       4.373   2.661  20.093  0.00  0.00    +0.000 A 
ATOM      7  C   UNL     1       4.042   3.735  19.229  0.00  0.00    +0.000 A 
ENDROOT
BRANCH   7   8
ATOM      8  C   UNL     1       5.062   4.177  18.231  0.00  0.00    +0.000 A 
ATOM      9  C   UNL     1       6.174   4.952  18.623  0.00  0.00    +0.000 A 
ATOM     10  C   UNL     1       7.138   5.383  17.704  0.00  0.00    +0.000 A 
ATOM     11  C   UNL     1       7.034   5.020  16.366  0.00  0.00    +0.000 A 
ATOM     12  C   UNL     1       5.947   4.258  15.953  0.00  0.00    +0.000 A 
ATOM     13 CL   UNL     1       5.823   3.778  14.303  0.00  0.00    +0.000 Cl
ATOM     14  C   UNL     1       4.959   3.870  16.861  0.00  0.00    +0.000 A 
ENDBRANCH   7   8
BRANCH   1  16
ATOM     15  N   UNL     1       2.570   6.699  18.871  0.00  0.00    +0.000 N 
ATOM     16  C   UNL     1       2.235   5.406  18.525  0.00  0.00    +0.000 C 
ATOM     17  O   UNL     1       1.551   5.135  17.546  0.00  0.00    +0.000 OA
ATOM     18  H   UNL     1       2.989   6.878  19.778  0.00  0.00    +0.000 HD
BRANCH  15  19
ATOM     19  C   UNL     1       2.188   7.846  18.067  0.00  0.00    +0.000 C 
BRANCH  19  26
ATOM     20  C   UNL     1       1.156   8.033  20.973  0.00  0.00    +0.000 C 
ATOM     21  C   UNL     1       0.978   9.137  19.926  0.00  0.00    +0.000 C 
ATOM     22  C   UNL     1       0.888  10.501  20.632  0.00  0.00    +0.000 C 
ATOM     23  N   UNL     1       0.660  11.585  19.677  0.00  0.00    +0.000 NA
ATOM     24  C   UNL     1       1.747  11.666  18.704  0.00  0.00    +0.000 C 
ATOM     25  C   UNL     1       1.901  10.361  17.928  0.00  0.00    +0.000 C 
ATOM     26  C   UNL     1       2.112   9.158  18.867  0.00  0.00    +0.000 C 
ATOM     27  H   UNL     1       0.597  12.467  20.183  0.00  0.00    +0.000 HD
ENDBRANCH  19  26
ENDBRANCH  15  19
ENDBRANCH   1  16
TORSDOF 4
ENDMDL
MODEL 9
REMARK VINA RESULT:      -7.7      1.521      1.560
REMARK  Name = 
REMARK  5 active torsions:
REMARK  status: ('A' for Active; 'I' for Inactive)
REMARK    1  A    between atoms: C_1  and  C_2
REMARK    2  A    between atoms: C_7  and  C_8
REMARK    3  A    between atoms: C_8  and  N_9
REMARK    4  A    between atoms: C_10  and  C_12
REMARK    5  A    between atoms: C_18  and  C_19
REMARK                            x       y       z     vdW  Elec       q    Type
REMARK                         _______ _______ _______ _____ _____    ______ ____
ROOT
ATOM      1  C   UNL     1       2.289   4.437  19.225  0.00  0.00    +0.000 A 
ATOM      2  C   UNL     1       1.179   3.615  19.488  0.00  0.00    +0.000 A 
ATOM      3  F   UNL     1       0.291   3.943  20.442  0.00  0.00    +0.000 F 
ATOM      4  C   UNL     1       0.948   2.442  18.779  0.00  0.00    +0.000 A 
ATOM      5  C   UNL     1       1.841   2.065  17.792  0.00  0.00    +0.000 A 
ATOM      6  C   UNL     1       2.966   2.852  17.531  0.00  0.00    +0.000 A 
ATOM      7  C   UNL     1       3.230   4.059  18.227  0.00  0.00    +0.000 A 
ENDROOT
BRANCH   7   8
ATOM      8  C   UNL     1       4.471   4.814  17.883  0.00  0.00    +0.000 A 
ATOM      9  C   UNL     1       4.593   5.490  16.651  0.00  0.00    +0.000 A 
ATOM     10  C   UNL     1       5.750   6.198  16.304  0.00  0.00    +0.000 A 
ATOM     11  C   UNL     1       6.810   6.277  17.199  0.00  0.00    +0.000 A 
ATOM     12  C   UNL     1       6.717   5.618  18.420  0.00  0.00    +0.000 A 
ATOM     13 CL   UNL     1       8.014   5.735  19.549  0.00  0.00    +0.000 Cl
ATOM     14  C   UNL     1       5.583   4.871  18.745  0.00  0.00    +0.000 A 
ENDBRANCH   7   8
BRANCH   1  16
ATOM     15  N   UNL     1       2.323   6.878  19.241  0.00  0.00    +0.000 N 
ATOM     16  C   UNL     1       2.383   5.716  19.984  0.00  0.00    +0.000 C 
ATOM     17  O   UNL     1       2.499   5.712  21.203  0.00  0.00    +0.000 OA
ATOM     18  H   UNL     1       2.400   6.826  18.230  0.00  0.00    +0.000 HD
BRANCH  15  19
ATOM     19  C   UNL     1       2.333   8.196  19.851  0.00  0.00    +0.000 C 
BRANCH  19  26
ATOM     20  C   UNL     1       0.304   9.798  18.160  0.00  0.00    +0.000 C 
ATOM     21  C   UNL     1       0.464   9.947  19.675  0.00  0.00    +0.000 C 
ATOM     22  C   UNL     1      -0.873  10.399  20.289  0.00  0.00    +0.000 C 
ATOM     23  N   UNL     1      -0.756  10.610  21.732  0.00  0.00    +0.000 NA
ATOM     24  C   UNL     1      -0.356   9.381  22.413  0.00  0.00    +0.000 C 
ATOM     25  C   UNL     1       0.982   8.862  21.890  0.00  0.00    +0.000 C 
ATOM     26  C   UNL     1       0.954   8.645  20.364  0.00  0.00    +0.000 C 
ATOM     27  H   UNL     1      -1.657  10.916  22.098  0.00  0.00    +0.000 HD
ENDBRANCH  19  26
ENDBRANCH  15  19
ENDBRANCH   1  16
TORSDOF 4
ENDMDL
