MODEL 1
REMARK VINA RESULT:      -9.0      0.000      0.000
REMARK  Name = 
REMARK  7 active torsions:
REMARK  status: ('A' for Active; 'I' for Inactive)
REMARK    1  A    between atoms: C_1  and  C_2
REMARK    2  A    between atoms: C_2  and  O_3
REMARK    3  A    between atoms: C_8  and  C_9
REMARK    4  A    between atoms: C_9  and  S_10
REMARK    5  A    between atoms: S_10  and  C_11
REMARK    6  A    between atoms: C_13  and  C_14
REMARK    7  A    between atoms: N_20  and  C_21
REMARK                            x       y       z     vdW  Elec       q    Type
REMARK                         _______ _______ _______ _____ _____    ______ ____
ROOT
ATOM      1  C   UNL     1       5.172   6.212  17.601  0.00  0.00    +0.000 A 
ATOM      2  N   UNL     1       4.363   7.308  17.489  0.00  0.00    +0.000 NA
ATOM      3  C   UNL     1       3.307   6.995  18.233  0.00  0.00    +0.000 A 
ATOM      4  N   UNL     1       3.429   5.655  18.607  0.00  0.00    +0.000 N 
ATOM      5  N   UNL     1       4.674   5.215  18.324  0.00  0.00    +0.000 NA
ENDROOT
BRANCH   3   6
ATOM      6  C   UNL     1       2.253   7.937  18.652  0.00  0.00    +0.000 A 
ATOM      7  C   UNL     1       1.890   8.030  19.999  0.00  0.00    +0.000 A 
ATOM      8  C   UNL     1       0.967   8.993  20.424  0.00  0.00    +0.000 A 
ATOM      9  C   UNL     1       0.406   9.881  19.508  0.00  0.00    +0.000 A 
ATOM     10  C   UNL     1       0.703   9.759  18.157  0.00  0.00    +0.000 A 
ATOM     11  C   UNL     1       1.586   8.762  17.728  0.00  0.00    +0.000 A 
ENDBRANCH   3   6
BRANCH   4  12
ATOM     12  C   UNL     1       2.497   4.810  19.270  0.00  0.00    +0.000 A 
ATOM     13  C   UNL     1       2.535   4.652  20.661  0.00  0.00    +0.000 A 
ATOM     14  C   UNL     1       1.783   3.643  21.268  0.00  0.00    +0.000 A 
ATOM     15  C   UNL     1       0.966   2.824  20.490  0.00  0.00    +0.000 A 
ATOM     16  C   UNL     1       0.862   3.043  19.120  0.00  0.00    +0.000 A 
ATOM     17  C   UNL     1       1.607   4.050  18.501  0.00  0.00    +0.000 A 
ENDBRANCH   4  12
BRANCH   1  18
ATOM     18  S   UNL     1       6.776   6.095  16.937  0.00  0.00    +0.000 S 
BRANCH  18  19
ATOM     19  C   UNL     1       6.740   4.517  16.036  0.00  0.00    +0.000 C 
BRANCH  19  26
ATOM     20  C   UNL     1       5.868   2.092  11.724  0.00  0.00    +0.000 C 
ATOM     21  C   UNL     1       6.060   3.457  12.388  0.00  0.00    +0.000 C 
ATOM     22  C   UNL     1       7.266   4.165  11.784  0.00  0.00    +0.000 C 
ATOM     23  C   UNL     1       7.731   5.362  12.571  0.00  0.00    +0.000 C 
ATOM     24  O   UNL     1       8.252   6.331  12.033  0.00  0.00    +0.000 OA
ATOM     25  O   UNL     1       7.700   5.230  13.920  0.00  0.00    +0.000 OA
ATOM     26  C   UNL     1       6.525   4.653  14.521  0.00  0.00    +0.000 C 
ATOM     27  C   UNL     1       6.237   3.291  13.896  0.00  0.00    +0.000 C 
BRANCH  21  28
ATOM     28  O   UNL     1       4.853   4.181  12.120  0.00  0.00    +0.000 OA
ATOM     29  H   UNL     1       4.578   4.694  12.902  0.00  0.00    +0.000 HD
ENDBRANCH  21  28
ENDBRANCH  19  26
ENDBRANCH  18  19
ENDBRANCH   1  18
TORSDOF 6
ENDMDL
MODEL 2
REMARK VINA RESULT:      -8.9      4.596      8.182
REMARK  Name = 
REMARK  7 active torsions:
REMARK  status: ('A' for Active; 'I' for Inactive)
REMARK    1  A    between atoms: C_1  and  C_2
REMARK    2  A    between atoms: C_2  and  O_3
REMARK    3  A    between atoms: C_8  and  C_9
REMARK    4  A    between atoms: C_9  and  S_10
REMARK    5  A    between atoms: S_10  and  C_11
REMARK    6  A    between atoms: C_13  and  C_14
REMARK    7  A    between atoms: N_20  and  C_21
REMARK                            x       y       z     vdW  Elec       q    Type
REMARK                         _______ _______ _______ _____ _____    ______ ____
ROOT
ATOM      1  C   UNL     1       2.450   8.276  18.069  0.00  0.00    +0.000 A 
ATOM      2  N   UNL     1       3.744   7.979  17.742  0.00  0.00    +0.000 NA
ATOM      3  C   UNL     1       3.798   6.655  17.849  0.00  0.00    +0.000 A 
ATOM      4  N   UNL     1       2.598   6.222  18.418  0.00  0.00    +0.000 N 
ATOM      5  N   UNL     1       1.704   7.235  18.419  0.00  0.00    +0.000 NA
ENDROOT
BRANCH   3   6
ATOM      6  C   UNL     1       4.901   5.807  17.362  0.00  0.00    +0.000 A 
ATOM      7  C   UNL     1       4.896   5.335  16.046  0.00  0.00    +0.000 A 
ATOM      8  C   UNL     1       5.986   4.618  15.541  0.00  0.00    +0.000 A 
ATOM      9  C   UNL     1       7.100   4.375  16.343  0.00  0.00    +0.000 A 
ATOM     10  C   UNL     1       7.095   4.777  17.672  0.00  0.00    +0.000 A 
ATOM     11  C   UNL     1       5.981   5.449  18.189  0.00  0.00    +0.000 A 
ENDBRANCH   3   6
BRANCH   4  12
ATOM     12  C   UNL     1       2.225   4.928  18.875  0.00  0.00    +0.000 A 
ATOM     13  C   UNL     1       1.963   3.895  17.967  0.00  0.00    +0.000 A 
ATOM     14  C   UNL     1       1.367   2.712  18.412  0.00  0.00    +0.000 A 
ATOM     15  C   UNL     1       1.074   2.549  19.765  0.00  0.00    +0.000 A 
ATOM     16  C   UNL     1       1.418   3.542  20.677  0.00  0.00    +0.000 A 
ATOM     17  C   UNL     1       2.017   4.729  20.245  0.00  0.00    +0.000 A 
ENDBRANCH   4  12
BRANCH   1  18
ATOM     18  S   UNL     1       1.748   9.866  17.979  0.00  0.00    +0.000 S 
BRANCH  18  19
ATOM     19  C   UNL     1       0.627   9.907  19.409  0.00  0.00    +0.000 C 
BRANCH  19  26
ATOM     20  C   UNL     1      -2.781  10.186  15.729  0.00  0.00    +0.000 C 
ATOM     21  C   UNL     1      -2.544  10.264  17.239  0.00  0.00    +0.000 C 
ATOM     22  C   UNL     1      -2.944  11.639  17.758  0.00  0.00    +0.000 C 
ATOM     23  C   UNL     1      -2.462  11.930  19.155  0.00  0.00    +0.000 C 
ATOM     24  O   UNL     1      -3.089  12.651  19.922  0.00  0.00    +0.000 OA
ATOM     25  O   UNL     1      -1.214  11.494  19.451  0.00  0.00    +0.000 OA
ATOM     26  C   UNL     1      -0.847  10.159  19.056  0.00  0.00    +0.000 C 
ATOM     27  C   UNL     1      -1.079   9.977  17.559  0.00  0.00    +0.000 C 
BRANCH  21  28
ATOM     28  O   UNL     1      -3.372   9.241  17.805  0.00  0.00    +0.000 OA
ATOM     29  H   UNL     1      -4.294   9.339  17.504  0.00  0.00    +0.000 HD
ENDBRANCH  21  28
ENDBRANCH  19  26
ENDBRANCH  18  19
ENDBRANCH   1  18
TORSDOF 6
ENDMDL
MODEL 3
REMARK VINA RESULT:      -8.8      0.404      3.765
REMARK  Name = 
REMARK  7 active torsions:
REMARK  status: ('A' for Active; 'I' for Inactive)
REMARK    1  A    between atoms: C_1  and  C_2
REMARK    2  A    between atoms: C_2  and  O_3
REMARK    3  A    between atoms: C_8  and  C_9
REMARK    4  A    between atoms: C_9  and  S_10
REMARK    5  A    between atoms: S_10  and  C_11
REMARK    6  A    between atoms: C_13  and  C_14
REMARK    7  A    between atoms: N_20  and  C_21
REMARK                            x       y       z     vdW  Elec       q    Type
REMARK                         _______ _______ _______ _____ _____    ______ ____
ROOT
ATOM      1  C   UNL     1       5.304   6.191  17.723  0.00  0.00    +0.000 A 
ATOM      2  N   UNL     1       4.823   5.111  18.410  0.00  0.00    +0.000 NA
ATOM      3  C   UNL     1       3.592   5.478  18.748  0.00  0.00    +0.000 A 
ATOM      4  N   UNL     1       3.443   6.828  18.424  0.00  0.00    +0.000 N 
ATOM      5  N   UNL     1       4.476   7.226  17.650  0.00  0.00    +0.000 NA
ENDROOT
BRANCH   3   6
ATOM      6  C   UNL     1       2.554   4.579  19.285  0.00  0.00    +0.000 A 
ATOM      7  C   UNL     1       1.694   3.900  18.415  0.00  0.00    +0.000 A 
ATOM      8  C   UNL     1       0.775   2.965  18.905  0.00  0.00    +0.000 A 
ATOM      9  C   UNL     1       0.715   2.688  20.270  0.00  0.00    +0.000 A 
ATOM     10  C   UNL     1       1.513   3.400  21.155  0.00  0.00    +0.000 A 
ATOM     11  C   UNL     1       2.394   4.372  20.667  0.00  0.00    +0.000 A 
ENDBRANCH   3   6
BRANCH   4  12
ATOM     12  C   UNL     1       2.377   7.721  18.721  0.00  0.00    +0.000 A 
ATOM     13  C   UNL     1       1.838   8.551  17.731  0.00  0.00    +0.000 A 
ATOM     14  C   UNL     1       0.969   9.585  18.087  0.00  0.00    +0.000 A 
ATOM     15  C   UNL     1       0.608   9.760  19.422  0.00  0.00    +0.000 A 
ATOM     16  C   UNL     1       1.074   8.877  20.391  0.00  0.00    +0.000 A 
ATOM     17  C   UNL     1       1.942   7.837  20.048  0.00  0.00    +0.000 A 
ENDBRANCH   4  12
BRANCH   1  18
ATOM     18  S   UNL     1       6.845   6.243  16.916  0.00  0.00    +0.000 S 
BRANCH  18  19
ATOM     19  C   UNL     1       6.904   4.657  16.030  0.00  0.00    +0.000 C 
BRANCH  19  26
ATOM     20  C   UNL     1       5.890   2.135  11.807  0.00  0.00    +0.000 C 
ATOM     21  C   UNL     1       6.096   3.515  12.434  0.00  0.00    +0.000 C 
ATOM     22  C   UNL     1       7.273   4.218  11.770  0.00  0.00    +0.000 C 
ATOM     23  C   UNL     1       7.758   5.434  12.513  0.00  0.00    +0.000 C 
ATOM     24  O   UNL     1       8.252   6.395  11.936  0.00  0.00    +0.000 OA
ATOM     25  O   UNL     1       7.779   5.331  13.864  0.00  0.00    +0.000 OA
ATOM     26  C   UNL     1       6.632   4.759  14.521  0.00  0.00    +0.000 C 
ATOM     27  C   UNL     1       6.331   3.382  13.937  0.00  0.00    +0.000 C 
BRANCH  21  28
ATOM     28  O   UNL     1       4.875   4.225  12.196  0.00  0.00    +0.000 OA
ATOM     29  H   UNL     1       4.376   3.816  11.465  0.00  0.00    +0.000 HD
ENDBRANCH  21  28
ENDBRANCH  19  26
ENDBRANCH  18  19
ENDBRANCH   1  18
TORSDOF 6
ENDMDL
MODEL 4
REMARK VINA RESULT:      -8.8      4.574      8.335
REMARK  Name = 
REMARK  7 active torsions:
REMARK  status: ('A' for Active; 'I' for Inactive)
REMARK    1  A    between atoms: C_1  and  C_2
REMARK    2  A    between atoms: C_2  and  O_3
REMARK    3  A    between atoms: C_8  and  C_9
REMARK    4  A    between atoms: C_9  and  S_10
REMARK    5  A    between atoms: S_10  and  C_11
REMARK    6  A    between atoms: C_13  and  C_14
REMARK    7  A    between atoms: N_20  and  C_21
REMARK                            x       y       z     vdW  Elec       q    Type
REMARK                         _______ _______ _______ _____ _____    ______ ____
ROOT
ATOM      1  C   UNL     1       2.406   8.095  17.943  0.00  0.00    +0.000 A 
ATOM      2  N   UNL     1       1.580   7.023  18.139  0.00  0.00    +0.000 NA
ATOM      3  C   UNL     1       2.406   5.983  18.120  0.00  0.00    +0.000 A 
ATOM      4  N   UNL     1       3.664   6.442  17.724  0.00  0.00    +0.000 N 
ATOM      5  N   UNL     1       3.686   7.792  17.754  0.00  0.00    +0.000 NA
ENDROOT
BRANCH   3   6
ATOM      6  C   UNL     1       2.057   4.612  18.535  0.00  0.00    +0.000 A 
ATOM      7  C   UNL     1       2.272   3.539  17.665  0.00  0.00    +0.000 A 
ATOM      8  C   UNL     1       2.044   2.223  18.085  0.00  0.00    +0.000 A 
ATOM      9  C   UNL     1       1.611   1.965  19.385  0.00  0.00    +0.000 A 
ATOM     10  C   UNL     1       1.328   3.021  20.240  0.00  0.00    +0.000 A 
ATOM     11  C   UNL     1       1.507   4.338  19.800  0.00  0.00    +0.000 A 
ENDBRANCH   3   6
BRANCH   4  12
ATOM     12  C   UNL     1       4.840   5.708  17.405  0.00  0.00    +0.000 A 
ATOM     13  C   UNL     1       5.762   5.362  18.400  0.00  0.00    +0.000 A 
ATOM     14  C   UNL     1       7.016   4.862  18.042  0.00  0.00    +0.000 A 
ATOM     15  C   UNL     1       7.329   4.668  16.698  0.00  0.00    +0.000 A 
ATOM     16  C   UNL     1       6.376   4.927  15.717  0.00  0.00    +0.000 A 
ATOM     17  C   UNL     1       5.117   5.427  16.062  0.00  0.00    +0.000 A 
ENDBRANCH   4  12
BRANCH   1  18
ATOM     18  S   UNL     1       1.899   9.758  18.001  0.00  0.00    +0.000 S 
BRANCH  18  19
ATOM     19  C   UNL     1       0.780   9.803  19.432  0.00  0.00    +0.000 C 
BRANCH  19  26
ATOM     20  C   UNL     1      -2.630  10.240  15.771  0.00  0.00    +0.000 C 
ATOM     21  C   UNL     1      -2.383  10.303  17.280  0.00  0.00    +0.000 C 
ATOM     22  C   UNL     1      -2.721  11.693  17.805  0.00  0.00    +0.000 C 
ATOM     23  C   UNL     1      -2.220  11.957  19.200  0.00  0.00    +0.000 C 
ATOM     24  O   UNL     1      -2.812  12.702  19.973  0.00  0.00    +0.000 OA
ATOM     25  O   UNL     1      -0.990  11.467  19.489  0.00  0.00    +0.000 OA
ATOM     26  C   UNL     1      -0.683  10.119  19.088  0.00  0.00    +0.000 C 
ATOM     27  C   UNL     1      -0.930   9.952  17.591  0.00  0.00    +0.000 C 
BRANCH  21  28
ATOM     28  O   UNL     1      -3.251   9.315  17.846  0.00  0.00    +0.000 OA
ATOM     29  H   UNL     1      -4.184   9.533  17.667  0.00  0.00    +0.000 HD
ENDBRANCH  21  28
ENDBRANCH  19  26
ENDBRANCH  18  19
ENDBRANCH   1  18
TORSDOF 6
ENDMDL
MODEL 5
REMARK VINA RESULT:      -8.7      4.587      8.382
REMARK  Name = 
REMARK  7 active torsions:
REMARK  status: ('A' for Active; 'I' for Inactive)
REMARK    1  A    between atoms: C_1  and  C_2
REMARK    2  A    between atoms: C_2  and  O_3
REMARK    3  A    between atoms: C_8  and  C_9
REMARK    4  A    between atoms: C_9  and  S_10
REMARK    5  A    between atoms: S_10  and  C_11
REMARK    6  A    between atoms: C_13  and  C_14
REMARK    7  A    between atoms: N_20  and  C_21
REMARK                            x       y       z     vdW  Elec       q    Type
REMARK                         _______ _______ _______ _____ _____    ______ ____
ROOT
ATOM      1  C   UNL     1       2.465   8.229  17.945  0.00  0.00    +0.000 A 
ATOM      2  N   UNL     1       1.750   7.097  18.223  0.00  0.00    +0.000 NA
ATOM      3  C   UNL     1       2.656   6.129  18.151  0.00  0.00    +0.000 A 
ATOM      4  N   UNL     1       3.835   6.682  17.646  0.00  0.00    +0.000 N 
ATOM      5  N   UNL     1       3.746   8.029  17.656  0.00  0.00    +0.000 NA
ENDROOT
BRANCH   3   6
ATOM      6  C   UNL     1       2.458   4.743  18.613  0.00  0.00    +0.000 A 
ATOM      7  C   UNL     1       3.144   4.273  19.737  0.00  0.00    +0.000 A 
ATOM      8  C   UNL     1       2.886   2.995  20.247  0.00  0.00    +0.000 A 
ATOM      9  C   UNL     1       1.930   2.178  19.646  0.00  0.00    +0.000 A 
ATOM     10  C   UNL     1       1.289   2.601  18.490  0.00  0.00    +0.000 A 
ATOM     11  C   UNL     1       1.587   3.858  17.952  0.00  0.00    +0.000 A 
ENDBRANCH   3   6
BRANCH   4  12
ATOM     12  C   UNL     1       5.038   6.041  17.242  0.00  0.00    +0.000 A 
ATOM     13  C   UNL     1       5.122   5.382  16.009  0.00  0.00    +0.000 A 
ATOM     14  C   UNL     1       6.215   4.558  15.733  0.00  0.00    +0.000 A 
ATOM     15  C   UNL     1       7.239   4.426  16.670  0.00  0.00    +0.000 A 
ATOM     16  C   UNL     1       7.196   5.153  17.855  0.00  0.00    +0.000 A 
ATOM     17  C   UNL     1       6.109   5.983  18.143  0.00  0.00    +0.000 A 
ENDBRANCH   4  12
BRANCH   1  18
ATOM     18  S   UNL     1       1.826   9.846  18.021  0.00  0.00    +0.000 S 
BRANCH  18  19
ATOM     19  C   UNL     1       0.683   9.776  19.432  0.00  0.00    +0.000 C 
BRANCH  19  26
ATOM     20  C   UNL     1      -2.702  10.269  15.754  0.00  0.00    +0.000 C 
ATOM     21  C   UNL     1      -2.467  10.302  17.265  0.00  0.00    +0.000 C 
ATOM     22  C   UNL     1      -2.818  11.678  17.817  0.00  0.00    +0.000 C 
ATOM     23  C   UNL     1      -2.330  11.916  19.222  0.00  0.00    +0.000 C 
ATOM     24  O   UNL     1      -2.932  12.641  20.005  0.00  0.00    +0.000 OA
ATOM     25  O   UNL     1      -1.099  11.428  19.510  0.00  0.00    +0.000 OA
ATOM     26  C   UNL     1      -0.781  10.090  19.082  0.00  0.00    +0.000 C 
ATOM     27  C   UNL     1      -1.014   9.954  17.581  0.00  0.00    +0.000 C 
BRANCH  21  28
ATOM     28  O   UNL     1      -3.334   9.297  17.804  0.00  0.00    +0.000 OA
ATOM     29  H   UNL     1      -2.969   8.407  17.645  0.00  0.00    +0.000 HD
ENDBRANCH  21  28
ENDBRANCH  19  26
ENDBRANCH  18  19
ENDBRANCH   1  18
TORSDOF 6
ENDMDL
MODEL 6
REMARK VINA RESULT:      -8.5      4.387      8.609
REMARK  Name = 
REMARK  7 active torsions:
REMARK  status: ('A' for Active; 'I' for Inactive)
REMARK    1  A    between atoms: C_1  and  C_2
REMARK    2  A    between atoms: C_2  and  O_3
REMARK    3  A    between atoms: C_8  and  C_9
REMARK    4  A    between atoms: C_9  and  S_10
REMARK    5  A    between atoms: S_10  and  C_11
REMARK    6  A    between atoms: C_13  and  C_14
REMARK    7  A    between atoms: N_20  and  C_21
REMARK                            x       y       z     vdW  Elec       q    Type
REMARK                         _______ _______ _______ _____ _____    ______ ____
ROOT
ATOM      1  C   UNL     1       2.519   8.109  18.042  0.00  0.00    +0.000 A 
ATOM      2  N   UNL     1       1.736   7.108  18.548  0.00  0.00    +0.000 NA
ATOM      3  C   UNL     1       2.560   6.068  18.612  0.00  0.00    +0.000 A 
ATOM      4  N   UNL     1       3.747   6.421  17.967  0.00  0.00    +0.000 N 
ATOM      5  N   UNL     1       3.762   7.752  17.739  0.00  0.00    +0.000 NA
ENDROOT
BRANCH   3   6
ATOM      6  C   UNL     1       2.283   4.806  19.322  0.00  0.00    +0.000 A 
ATOM      7  C   UNL     1       2.430   4.735  20.711  0.00  0.00    +0.000 A 
ATOM      8  C   UNL     1       2.070   3.576  21.408  0.00  0.00    +0.000 A 
ATOM      9  C   UNL     1       1.546   2.480  20.726  0.00  0.00    +0.000 A 
ATOM     10  C   UNL     1       1.455   2.507  19.341  0.00  0.00    +0.000 A 
ATOM     11  C   UNL     1       1.865   3.648  18.642  0.00  0.00    +0.000 A 
ENDBRANCH   3   6
BRANCH   4  12
ATOM     12  C   UNL     1       4.873   5.619  17.634  0.00  0.00    +0.000 A 
ATOM     13  C   UNL     1       5.948   5.487  18.520  0.00  0.00    +0.000 A 
ATOM     14  C   UNL     1       7.141   4.903  18.086  0.00  0.00    +0.000 A 
ATOM     15  C   UNL     1       7.240   4.415  16.784  0.00  0.00    +0.000 A 
ATOM     16  C   UNL     1       6.139   4.466  15.935  0.00  0.00    +0.000 A 
ATOM     17  C   UNL     1       4.940   5.046  16.358  0.00  0.00    +0.000 A 
ENDBRANCH   4  12
BRANCH   1  18
ATOM     18  S   UNL     1       2.011   9.762  17.854  0.00  0.00    +0.000 S 
BRANCH  18  19
ATOM     19  C   UNL     1       0.686   9.933  19.086  0.00  0.00    +0.000 C 
BRANCH  19  26
ATOM     20  C   UNL     1      -3.232  12.624  20.711  0.00  0.00    +0.000 C 
ATOM     21  C   UNL     1      -2.330  12.302  19.518  0.00  0.00    +0.000 C 
ATOM     22  C   UNL     1      -3.160  11.719  18.380  0.00  0.00    +0.000 C 
ATOM     23  C   UNL     1      -2.341  11.080  17.291  0.00  0.00    +0.000 C 
ATOM     24  O   UNL     1      -2.708  11.070  16.122  0.00  0.00    +0.000 OA
ATOM     25  O   UNL     1      -1.265  10.366  17.702  0.00  0.00    +0.000 OA
ATOM     26  C   UNL     1      -0.410  10.942  18.708  0.00  0.00    +0.000 C 
ATOM     27  C   UNL     1      -1.233  11.324  19.934  0.00  0.00    +0.000 C 
BRANCH  21  28
ATOM     28  O   UNL     1      -1.745  13.552  19.138  0.00  0.00    +0.000 OA
ATOM     29  H   UNL     1      -1.083  13.836  19.794  0.00  0.00    +0.000 HD
ENDBRANCH  21  28
ENDBRANCH  19  26
ENDBRANCH  18  19
ENDBRANCH   1  18
TORSDOF 6
ENDMDL
MODEL 7
REMARK VINA RESULT:      -8.4      4.494      8.704
REMARK  Name = 
REMARK  7 active torsions:
REMARK  status: ('A' for Active; 'I' for Inactive)
REMARK    1  A    between atoms: C_1  and  C_2
REMARK    2  A    between atoms: C_2  and  O_3
REMARK    3  A    between atoms: C_8  and  C_9
REMARK    4  A    between atoms: C_9  and  S_10
REMARK    5  A    between atoms: S_10  and  C_11
REMARK    6  A    between atoms: C_13  and  C_14
REMARK    7  A    between atoms: N_20  and  C_21
REMARK                            x       y       z     vdW  Elec       q    Type
REMARK                         _______ _______ _______ _____ _____    ______ ____
ROOT
ATOM      1  C   UNL     1       2.528   8.191  18.018  0.00  0.00    +0.000 A 
ATOM      2  N   UNL     1       1.725   7.198  18.508  0.00  0.00    +0.000 NA
ATOM      3  C   UNL     1       2.533   6.146  18.574  0.00  0.00    +0.000 A 
ATOM      4  N   UNL     1       3.733   6.486  17.946  0.00  0.00    +0.000 N 
ATOM      5  N   UNL     1       3.769   7.819  17.727  0.00  0.00    +0.000 NA
ENDROOT
BRANCH   3   6
ATOM      6  C   UNL     1       2.230   4.883  19.272  0.00  0.00    +0.000 A 
ATOM      7  C   UNL     1       2.427   4.779  20.653  0.00  0.00    +0.000 A 
ATOM      8  C   UNL     1       2.045   3.623  21.343  0.00  0.00    +0.000 A 
ATOM      9  C   UNL     1       1.449   2.563  20.663  0.00  0.00    +0.000 A 
ATOM     10  C   UNL     1       1.306   2.621  19.283  0.00  0.00    +0.000 A 
ATOM     11  C   UNL     1       1.737   3.757  18.588  0.00  0.00    +0.000 A 
ENDBRANCH   3   6
BRANCH   4  12
ATOM     12  C   UNL     1       4.851   5.670  17.620  0.00  0.00    +0.000 A 
ATOM     13  C   UNL     1       6.030   5.734  18.372  0.00  0.00    +0.000 A 
ATOM     14  C   UNL     1       7.191   5.116  17.901  0.00  0.00    +0.000 A 
ATOM     15  C   UNL     1       7.160   4.403  16.704  0.00  0.00    +0.000 A 
ATOM     16  C   UNL     1       5.964   4.265  16.006  0.00  0.00    +0.000 A 
ATOM     17  C   UNL     1       4.796   4.877  16.467  0.00  0.00    +0.000 A 
ENDBRANCH   4  12
BRANCH   1  18
ATOM     18  S   UNL     1       2.046   9.853  17.836  0.00  0.00    +0.000 S 
BRANCH  18  19
ATOM     19  C   UNL     1       0.478   9.934  18.752  0.00  0.00    +0.000 C 
BRANCH  19  26
ATOM     20  C   UNL     1      -2.118  12.190  22.412  0.00  0.00    +0.000 C 
ATOM     21  C   UNL     1      -0.729  11.787  21.914  0.00  0.00    +0.000 C 
ATOM     22  C   UNL     1       0.133  13.028  21.716  0.00  0.00    +0.000 C 
ATOM     23  C   UNL     1       1.397  12.777  20.937  0.00  0.00    +0.000 C 
ATOM     24  O   UNL     1       2.421  13.419  21.135  0.00  0.00    +0.000 OA
ATOM     25  O   UNL     1       1.285  11.926  19.888  0.00  0.00    +0.000 OA
ATOM     26  C   UNL     1       0.556  10.699  20.082  0.00  0.00    +0.000 C 
ATOM     27  C   UNL     1      -0.843  11.002  20.610  0.00  0.00    +0.000 C 
BRANCH  21  28
ATOM     28  O   UNL     1      -0.189  10.946  22.940  0.00  0.00    +0.000 OA
ATOM     29  H   UNL     1       0.458  11.435  23.481  0.00  0.00    +0.000 HD
ENDBRANCH  21  28
ENDBRANCH  19  26
ENDBRANCH  18  19
ENDBRANCH   1  18
TORSDOF 6
ENDMDL
MODEL 8
REMARK VINA RESULT:      -8.2      4.591      8.724
REMARK  Name = 
REMARK  7 active torsions:
REMARK  status: ('A' for Active; 'I' for Inactive)
REMARK    1  A    between atoms: C_1  and  C_2
REMARK    2  A    between atoms: C_2  and  O_3
REMARK    3  A    between atoms: C_8  and  C_9
REMARK    4  A    between atoms: C_9  and  S_10
REMARK    5  A    between atoms: S_10  and  C_11
REMARK    6  A    between atoms: C_13  and  C_14
REMARK    7  A    between atoms: N_20  and  C_21
REMARK                            x       y       z     vdW  Elec       q    Type
REMARK                         _______ _______ _______ _____ _____    ______ ____
ROOT
ATOM      1  C   UNL     1       2.495   8.421  18.036  0.00  0.00    +0.000 A 
ATOM      2  N   UNL     1       3.777   8.109  17.675  0.00  0.00    +0.000 NA
ATOM      3  C   UNL     1       3.825   6.788  17.801  0.00  0.00    +0.000 A 
ATOM      4  N   UNL     1       2.641   6.372  18.414  0.00  0.00    +0.000 N 
ATOM      5  N   UNL     1       1.754   7.390  18.426  0.00  0.00    +0.000 NA
ENDROOT
BRANCH   3   6
ATOM      6  C   UNL     1       4.908   5.924  17.295  0.00  0.00    +0.000 A 
ATOM      7  C   UNL     1       5.014   5.662  15.925  0.00  0.00    +0.000 A 
ATOM      8  C   UNL     1       6.096   4.932  15.421  0.00  0.00    +0.000 A 
ATOM      9  C   UNL     1       7.091   4.466  16.279  0.00  0.00    +0.000 A 
ATOM     10  C   UNL     1       6.967   4.658  17.648  0.00  0.00    +0.000 A 
ATOM     11  C   UNL     1       5.857   5.344  18.155  0.00  0.00    +0.000 A 
ENDBRANCH   3   6
BRANCH   4  12
ATOM     12  C   UNL     1       2.274   5.088  18.903  0.00  0.00    +0.000 A 
ATOM     13  C   UNL     1       1.719   4.126  18.049  0.00  0.00    +0.000 A 
ATOM     14  C   UNL     1       1.144   2.971  18.583  0.00  0.00    +0.000 A 
ATOM     15  C   UNL     1       1.161   2.760  19.961  0.00  0.00    +0.000 A 
ATOM     16  C   UNL     1       1.793   3.674  20.797  0.00  0.00    +0.000 A 
ATOM     17  C   UNL     1       2.375   4.833  20.276  0.00  0.00    +0.000 A 
ENDBRANCH   4  12
BRANCH   1  18
ATOM     18  S   UNL     1       1.800  10.013  17.942  0.00  0.00    +0.000 S 
BRANCH  18  19
ATOM     19  C   UNL     1       0.334   9.892  19.008  0.00  0.00    +0.000 C 
BRANCH  19  26
ATOM     20  C   UNL     1      -2.279  12.488  22.423  0.00  0.00    +0.000 C 
ATOM     21  C   UNL     1      -0.892  12.000  21.998  0.00  0.00    +0.000 C 
ATOM     22  C   UNL     1       0.023  13.191  21.746  0.00  0.00    +0.000 C 
ATOM     23  C   UNL     1       1.299  12.840  21.027  0.00  0.00    +0.000 C 
ATOM     24  O   UNL     1       2.341  13.456  21.214  0.00  0.00    +0.000 OA
ATOM     25  O   UNL     1       1.184  11.925  20.034  0.00  0.00    +0.000 OA
ATOM     26  C   UNL     1       0.403  10.742  20.286  0.00  0.00    +0.000 C 
ATOM     27  C   UNL     1      -0.999  11.132  20.747  0.00  0.00    +0.000 C 
BRANCH  21  28
ATOM     28  O   UNL     1      -0.417  11.211  23.095  0.00  0.00    +0.000 OA
ATOM     29  H   UNL     1      -0.181  10.314  22.797  0.00  0.00    +0.000 HD
ENDBRANCH  21  28
ENDBRANCH  19  26
ENDBRANCH  18  19
ENDBRANCH   1  18
TORSDOF 6
ENDMDL
MODEL 9
REMARK VINA RESULT:      -8.2      4.636      8.813
REMARK  Name = 
REMARK  7 active torsions:
REMARK  status: ('A' for Active; 'I' for Inactive)
REMARK    1  A    between atoms: C_1  and  C_2
REMARK    2  A    between atoms: C_2  and  O_3
REMARK    3  A    between atoms: C_8  and  C_9
REMARK    4  A    between atoms: C_9  and  S_10
REMARK    5  A    between atoms: S_10  and  C_11
REMARK    6  A    between atoms: C_13  and  C_14
REMARK    7  A    between atoms: N_20  and  C_21
REMARK                            x       y       z     vdW  Elec       q    Type
REMARK                         _______ _______ _______ _____ _____    ______ ____
ROOT
ATOM      1  C   UNL     1       2.555   8.207  17.895  0.00  0.00    +0.000 A 
ATOM      2  N   UNL     1       1.696   7.193  18.221  0.00  0.00    +0.000 NA
ATOM      3  C   UNL     1       2.481   6.122  18.268  0.00  0.00    +0.000 A 
ATOM      4  N   UNL     1       3.738   6.490  17.784  0.00  0.00    +0.000 N 
ATOM      5  N   UNL     1       3.813   7.835  17.687  0.00  0.00    +0.000 NA
ENDROOT
BRANCH   3   6
ATOM      6  C   UNL     1       2.097   4.811  18.822  0.00  0.00    +0.000 A 
ATOM      7  C   UNL     1       1.818   3.741  17.966  0.00  0.00    +0.000 A 
ATOM      8  C   UNL     1       1.556   2.466  18.479  0.00  0.00    +0.000 A 
ATOM      9  C   UNL     1       1.583   2.243  19.855  0.00  0.00    +0.000 A 
ATOM     10  C   UNL     1       1.792   3.306  20.723  0.00  0.00    +0.000 A 
ATOM     11  C   UNL     1       2.002   4.591  20.208  0.00  0.00    +0.000 A 
ENDBRANCH   3   6
BRANCH   4  12
ATOM     12  C   UNL     1       4.870   5.681  17.491  0.00  0.00    +0.000 A 
ATOM     13  C   UNL     1       5.953   5.614  18.377  0.00  0.00    +0.000 A 
ATOM     14  C   UNL     1       7.149   5.017  17.970  0.00  0.00    +0.000 A 
ATOM     15  C   UNL     1       7.246   4.454  16.698  0.00  0.00    +0.000 A 
ATOM     16  C   UNL     1       6.140   4.443  15.855  0.00  0.00    +0.000 A 
ATOM     17  C   UNL     1       4.937   5.035  16.251  0.00  0.00    +0.000 A 
ENDBRANCH   4  12
BRANCH   1  18
ATOM     18  S   UNL     1       2.114   9.889  17.816  0.00  0.00    +0.000 S 
BRANCH  18  19
ATOM     19  C   UNL     1       0.345   9.875  18.230  0.00  0.00    +0.000 C 
BRANCH  19  26
ATOM     20  C   UNL     1      -0.618  10.189  23.150  0.00  0.00    +0.000 C 
ATOM     21  C   UNL     1      -0.489  10.965  21.838  0.00  0.00    +0.000 C 
ATOM     22  C   UNL     1      -1.810  11.644  21.503  0.00  0.00    +0.000 C 
ATOM     23  C   UNL     1      -1.890  12.165  20.092  0.00  0.00    +0.000 C 
ATOM     24  O   UNL     1      -2.547  13.157  19.801  0.00  0.00    +0.000 OA
ATOM     25  O   UNL     1      -1.340  11.374  19.139  0.00  0.00    +0.000 OA
ATOM     26  C   UNL     1      -0.045  10.800  19.395  0.00  0.00    +0.000 C 
ATOM     27  C   UNL     1      -0.069  10.025  20.709  0.00  0.00    +0.000 C 
BRANCH  21  28
ATOM     28  O   UNL     1       0.542  11.932  22.070  0.00  0.00    +0.000 OA
ATOM     29  H   UNL     1       0.620  12.540  21.312  0.00  0.00    +0.000 HD
ENDBRANCH  21  28
ENDBRANCH  19  26
ENDBRANCH  18  19
ENDBRANCH   1  18
TORSDOF 6
ENDMDL
