MODEL 1
REMARK VINA RESULT:      -6.6      0.000      0.000
REMARK  Name = 
REMARK  8 active torsions:
REMARK  status: ('A' for Active; 'I' for Inactive)
REMARK    1  A    between atoms: C_1  and  C_2
REMARK    2  A    between atoms: C_2  and  C_3
REMARK    3  A    between atoms: C_2  and  C_4
REMARK    4  A    between atoms: C_2  and  P_13
REMARK    5  A    between atoms: CA_8  and  C_9
REMARK    6  A    between atoms: C_9  and  OXT_11
REMARK    7  A    between atoms: P_13  and  O_15
REMARK    8  A    between atoms: P_13  and  O_16
REMARK                            x       y       z     vdW  Elec       q    Type
REMARK                         _______ _______ _______ _____ _____    ______ ____
ROOT
ATOM      1  C   UNL     1       3.173   4.081  17.457  0.00  0.00    +0.000 C 
ATOM      2  C   UNL     1       1.696   4.368  17.807  0.00  0.00    +0.000 C 
ATOM      3  C   UNL     1       1.250   3.819  19.159  0.00  0.00    +0.000 C 
ATOM      4  N   UNL     1       1.500   2.386  19.343  0.00  0.00    +0.000 NA
ATOM      5  CA  UNL     1       2.886   1.984  18.994  0.00  0.00    +0.000 C 
ATOM      6  C   UNL     1       3.405   2.571  17.684  0.00  0.00    +0.000 C 
ATOM      7  H   UNL     1       0.873   1.888  18.701  0.00  0.00    +0.000 HD
ENDROOT
BRANCH   1   9
ATOM      8  C   UNL     1       3.846   6.528  17.389  0.00  0.00    +0.000 C 
ATOM      9  C   UNL     1       4.236   5.133  17.987  0.00  0.00    +0.000 C 
ATOM     10  C   UNL     1       4.231   5.382  19.509  0.00  0.00    +0.000 C 
BRANCH   9  11
ATOM     11  P   UNL     1       5.974   4.843  17.426  0.00  0.00    +0.000 P 
ATOM     12  O   UNL     1       6.717   6.038  16.930  0.00  0.00    +0.000 OA
BRANCH  11  13
ATOM     13  O   UNL     1       6.744   4.068  18.596  0.00  0.00    +0.000 OA
ATOM     14  H   UNL     1       7.702   3.868  18.471  0.00  0.00    +0.000 HD
ENDBRANCH  11  13
BRANCH  11  15
ATOM     15  O   UNL     1       5.956   3.689  16.315  0.00  0.00    +0.000 OA
ATOM     16  H   UNL     1       6.839   3.273  16.264  0.00  0.00    +0.000 HD
ENDBRANCH  11  15
ENDBRANCH   9  11
ENDBRANCH   1   9
BRANCH   5  17
ATOM     17  C   UNL     1       3.848   2.241  20.154  0.00  0.00    +0.000 C 
ATOM     18  O   UNL     1       3.499   2.523  21.298  0.00  0.00    +0.000 OA
BRANCH  17  19
ATOM     19  OXT UNL     1       5.141   2.081  19.790  0.00  0.00    +0.000 OA
ATOM     20  HXT UNL     1       5.529   1.423  20.419  0.00  0.00    +0.000 HD
ENDBRANCH  17  19
ENDBRANCH   5  17
TORSDOF 6
ENDMDL
MODEL 2
REMARK VINA RESULT:      -6.6      0.216      1.016
REMARK  Name = 
REMARK  8 active torsions:
REMARK  status: ('A' for Active; 'I' for Inactive)
REMARK    1  A    between atoms: C_1  and  C_2
REMARK    2  A    between atoms: C_2  and  C_3
REMARK    3  A    between atoms: C_2  and  C_4
REMARK    4  A    between atoms: C_2  and  P_13
REMARK    5  A    between atoms: CA_8  and  C_9
REMARK    6  A    between atoms: C_9  and  OXT_11
REMARK    7  A    between atoms: P_13  and  O_15
REMARK    8  A    between atoms: P_13  and  O_16
REMARK                            x       y       z     vdW  Elec       q    Type
REMARK                         _______ _______ _______ _____ _____    ______ ____
ROOT
ATOM      1  C   UNL     1       3.182   4.098  17.463  0.00  0.00    +0.000 C 
ATOM      2  C   UNL     1       1.702   4.366  17.819  0.00  0.00    +0.000 C 
ATOM      3  C   UNL     1       1.266   3.802  19.168  0.00  0.00    +0.000 C 
ATOM      4  N   UNL     1       1.532   2.370  19.340  0.00  0.00    +0.000 NA
ATOM      5  CA  UNL     1       2.922   1.986  18.985  0.00  0.00    +0.000 C 
ATOM      6  C   UNL     1       3.431   2.589  17.678  0.00  0.00    +0.000 C 
ATOM      7  H   UNL     1       0.910   1.870  18.695  0.00  0.00    +0.000 HD
ENDROOT
BRANCH   1   9
ATOM      8  C   UNL     1       3.840   6.549  17.396  0.00  0.00    +0.000 C 
ATOM      9  C   UNL     1       4.234   5.158  17.999  0.00  0.00    +0.000 C 
ATOM     10  C   UNL     1       4.217   5.409  19.520  0.00  0.00    +0.000 C 
BRANCH   9  11
ATOM     11  P   UNL     1       5.979   4.878  17.451  0.00  0.00    +0.000 P 
ATOM     12  O   UNL     1       6.157   4.183  16.144  0.00  0.00    +0.000 OA
BRANCH  11  13
ATOM     13  O   UNL     1       6.748   6.280  17.525  0.00  0.00    +0.000 OA
ATOM     14  H   UNL     1       6.283   7.045  17.940  0.00  0.00    +0.000 HD
ENDBRANCH  11  13
BRANCH  11  15
ATOM     15  O   UNL     1       6.749   4.094  18.617  0.00  0.00    +0.000 OA
ATOM     16  H   UNL     1       6.156   3.418  19.001  0.00  0.00    +0.000 HD
ENDBRANCH  11  15
ENDBRANCH   9  11
ENDBRANCH   1   9
BRANCH   5  17
ATOM     17  C   UNL     1       3.883   2.244  20.144  0.00  0.00    +0.000 C 
ATOM     18  O   UNL     1       3.534   2.508  21.292  0.00  0.00    +0.000 OA
BRANCH  17  19
ATOM     19  OXT UNL     1       5.178   2.109  19.774  0.00  0.00    +0.000 OA
ATOM     20  HXT UNL     1       5.646   1.693  20.540  0.00  0.00    +0.000 HD
ENDBRANCH  17  19
ENDBRANCH   5  17
TORSDOF 6
ENDMDL
MODEL 3
REMARK VINA RESULT:      -6.6      0.711      1.272
REMARK  Name = 
REMARK  8 active torsions:
REMARK  status: ('A' for Active; 'I' for Inactive)
REMARK    1  A    between atoms: C_1  and  C_2
REMARK    2  A    between atoms: C_2  and  C_3
REMARK    3  A    between atoms: C_2  and  C_4
REMARK    4  A    between atoms: C_2  and  P_13
REMARK    5  A    between atoms: CA_8  and  C_9
REMARK    6  A    between atoms: C_9  and  OXT_11
REMARK    7  A    between atoms: P_13  and  O_15
REMARK    8  A    between atoms: P_13  and  O_16
REMARK                            x       y       z     vdW  Elec       q    Type
REMARK                         _______ _______ _______ _____ _____    ______ ____
ROOT
ATOM      1  C   UNL     1       3.394   4.159  17.460  0.00  0.00    +0.000 C 
ATOM      2  C   UNL     1       1.850   4.142  17.506  0.00  0.00    +0.000 C 
ATOM      3  C   UNL     1       1.263   3.384  18.694  0.00  0.00    +0.000 C 
ATOM      4  N   UNL     1       1.747   2.007  18.832  0.00  0.00    +0.000 NA
ATOM      5  CA  UNL     1       3.227   1.896  18.761  0.00  0.00    +0.000 C 
ATOM      6  C   UNL     1       3.867   2.700  17.632  0.00  0.00    +0.000 C 
ATOM      7  H   UNL     1       1.368   1.475  18.041  0.00  0.00    +0.000 HD
ENDROOT
BRANCH   1   9
ATOM      8  C   UNL     1       3.873   6.653  17.476  0.00  0.00    +0.000 C 
ATOM      9  C   UNL     1       4.106   5.323  18.271  0.00  0.00    +0.000 C 
ATOM     10  C   UNL     1       3.514   5.629  19.662  0.00  0.00    +0.000 C 
BRANCH   9  11
ATOM     11  P   UNL     1       5.943   5.168  18.416  0.00  0.00    +0.000 P 
ATOM     12  O   UNL     1       6.472   4.823  19.767  0.00  0.00    +0.000 OA
BRANCH  11  13
ATOM     13  O   UNL     1       6.443   4.166  17.273  0.00  0.00    +0.000 OA
ATOM     14  H   UNL     1       5.797   3.889  16.580  0.00  0.00    +0.000 HD
ENDBRANCH  11  13
BRANCH  11  15
ATOM     15  O   UNL     1       6.603   6.527  17.882  0.00  0.00    +0.000 OA
ATOM     16  H   UNL     1       7.506   6.615  18.248  0.00  0.00    +0.000 HD
ENDBRANCH  11  15
ENDBRANCH   9  11
ENDBRANCH   1   9
BRANCH   5  17
ATOM     17  C   UNL     1       3.872   2.197  20.112  0.00  0.00    +0.000 C 
ATOM     18  O   UNL     1       3.250   2.484  21.133  0.00  0.00    +0.000 OA
BRANCH  17  19
ATOM     19  OXT UNL     1       5.219   2.072  20.074  0.00  0.00    +0.000 OA
ATOM     20  HXT UNL     1       5.460   1.936  19.124  0.00  0.00    +0.000 HD
ENDBRANCH  17  19
ENDBRANCH   5  17
TORSDOF 6
ENDMDL
MODEL 4
REMARK VINA RESULT:      -6.3      2.500      4.568
REMARK  Name = 
REMARK  8 active torsions:
REMARK  status: ('A' for Active; 'I' for Inactive)
REMARK    1  A    between atoms: C_1  and  C_2
REMARK    2  A    between atoms: C_2  and  C_3
REMARK    3  A    between atoms: C_2  and  C_4
REMARK    4  A    between atoms: C_2  and  P_13
REMARK    5  A    between atoms: CA_8  and  C_9
REMARK    6  A    between atoms: C_9  and  OXT_11
REMARK    7  A    between atoms: P_13  and  O_15
REMARK    8  A    between atoms: P_13  and  O_16
REMARK                            x       y       z     vdW  Elec       q    Type
REMARK                         _______ _______ _______ _____ _____    ______ ____
ROOT
ATOM      1  C   UNL     1       4.233   5.542  18.401  0.00  0.00    +0.000 C 
ATOM      2  C   UNL     1       3.934   6.745  17.480  0.00  0.00    +0.000 C 
ATOM      3  C   UNL     1       5.005   7.015  16.427  0.00  0.00    +0.000 C 
ATOM      4  N   UNL     1       6.359   7.170  16.967  0.00  0.00    +0.000 NA
ATOM      5  CA  UNL     1       6.744   6.084  17.904  0.00  0.00    +0.000 C 
ATOM      6  C   UNL     1       5.672   5.726  18.931  0.00  0.00    +0.000 C 
ATOM      7  H   UNL     1       6.370   8.046  17.502  0.00  0.00    +0.000 HD
ENDROOT
BRANCH   1   9
ATOM      8  C   UNL     1       2.233   4.235  17.540  0.00  0.00    +0.000 C 
ATOM      9  C   UNL     1       3.760   4.122  17.873  0.00  0.00    +0.000 C 
ATOM     10  C   UNL     1       4.383   3.660  16.541  0.00  0.00    +0.000 C 
BRANCH   9  11
ATOM     11  P   UNL     1       3.879   2.747  19.106  0.00  0.00    +0.000 P 
ATOM     12  O   UNL     1       2.905   2.786  20.234  0.00  0.00    +0.000 OA
BRANCH  11  13
ATOM     13  O   UNL     1       3.851   1.364  18.301  0.00  0.00    +0.000 OA
ATOM     14  H   UNL     1       3.957   0.526  18.811  0.00  0.00    +0.000 HD
ENDBRANCH  11  13
BRANCH  11  15
ATOM     15  O   UNL     1       5.382   2.700  19.658  0.00  0.00    +0.000 OA
ATOM     16  H   UNL     1       6.003   2.643  18.905  0.00  0.00    +0.000 HD
ENDBRANCH  11  15
ENDBRANCH   9  11
ENDBRANCH   1   9
BRANCH   5  17
ATOM     17  C   UNL     1       7.247   4.853  17.152  0.00  0.00    +0.000 C 
ATOM     18  O   UNL     1       7.446   4.811  15.940  0.00  0.00    +0.000 OA
BRANCH  17  19
ATOM     19  OXT UNL     1       7.493   3.813  17.982  0.00  0.00    +0.000 OA
ATOM     20  HXT UNL     1       7.019   3.033  17.601  0.00  0.00    +0.000 HD
ENDBRANCH  17  19
ENDBRANCH   5  17
TORSDOF 6
ENDMDL
MODEL 5
REMARK VINA RESULT:      -6.2      1.619      2.339
REMARK  Name = 
REMARK  8 active torsions:
REMARK  status: ('A' for Active; 'I' for Inactive)
REMARK    1  A    between atoms: C_1  and  C_2
REMARK    2  A    between atoms: C_2  and  C_3
REMARK    3  A    between atoms: C_2  and  C_4
REMARK    4  A    between atoms: C_2  and  P_13
REMARK    5  A    between atoms: CA_8  and  C_9
REMARK    6  A    between atoms: C_9  and  OXT_11
REMARK    7  A    between atoms: P_13  and  O_15
REMARK    8  A    between atoms: P_13  and  O_16
REMARK                            x       y       z     vdW  Elec       q    Type
REMARK                         _______ _______ _______ _____ _____    ______ ____
ROOT
ATOM      1  C   UNL     1       4.270   5.875  17.247  0.00  0.00    +0.000 C 
ATOM      2  C   UNL     1       3.465   6.812  18.175  0.00  0.00    +0.000 C 
ATOM      3  C   UNL     1       2.927   6.141  19.435  0.00  0.00    +0.000 C 
ATOM      4  N   UNL     1       2.128   4.937  19.186  0.00  0.00    +0.000 NA
ATOM      5  CA  UNL     1       2.789   3.975  18.267  0.00  0.00    +0.000 C 
ATOM      6  C   UNL     1       3.411   4.611  17.026  0.00  0.00    +0.000 C 
ATOM      7  H   UNL     1       1.262   5.241  18.728  0.00  0.00    +0.000 HD
ENDROOT
BRANCH   1   9
ATOM      8  C   UNL     1       6.460   7.152  17.396  0.00  0.00    +0.000 C 
ATOM      9  C   UNL     1       5.818   5.733  17.567  0.00  0.00    +0.000 C 
ATOM     10  C   UNL     1       6.170   5.354  19.021  0.00  0.00    +0.000 C 
BRANCH   9  11
ATOM     11  P   UNL     1       6.762   4.639  16.412  0.00  0.00    +0.000 P 
ATOM     12  O   UNL     1       6.002   3.511  15.802  0.00  0.00    +0.000 OA
BRANCH  11  13
ATOM     13  O   UNL     1       7.476   5.574  15.325  0.00  0.00    +0.000 OA
ATOM     14  H   UNL     1       8.170   5.173  14.751  0.00  0.00    +0.000 HD
ENDBRANCH  11  13
BRANCH  11  15
ATOM     15  O   UNL     1       8.057   4.096  17.183  0.00  0.00    +0.000 OA
ATOM     16  H   UNL     1       8.020   3.121  17.233  0.00  0.00    +0.000 HD
ENDBRANCH  11  15
ENDBRANCH   9  11
ENDBRANCH   1   9
BRANCH   5  17
ATOM     17  C   UNL     1       3.785   3.089  19.014  0.00  0.00    +0.000 C 
ATOM     18  O   UNL     1       3.878   3.024  20.237  0.00  0.00    +0.000 OA
BRANCH  17  19
ATOM     19  OXT UNL     1       4.536   2.343  18.171  0.00  0.00    +0.000 OA
ATOM     20  HXT UNL     1       5.389   2.828  18.052  0.00  0.00    +0.000 HD
ENDBRANCH  17  19
ENDBRANCH   5  17
TORSDOF 6
ENDMDL
MODEL 6
REMARK VINA RESULT:      -6.2      2.497      4.503
REMARK  Name = 
REMARK  8 active torsions:
REMARK  status: ('A' for Active; 'I' for Inactive)
REMARK    1  A    between atoms: C_1  and  C_2
REMARK    2  A    between atoms: C_2  and  C_3
REMARK    3  A    between atoms: C_2  and  C_4
REMARK    4  A    between atoms: C_2  and  P_13
REMARK    5  A    between atoms: CA_8  and  C_9
REMARK    6  A    between atoms: C_9  and  OXT_11
REMARK    7  A    between atoms: P_13  and  O_15
REMARK    8  A    between atoms: P_13  and  O_16
REMARK                            x       y       z     vdW  Elec       q    Type
REMARK                         _______ _______ _______ _____ _____    ______ ____
ROOT
ATOM      1  C   UNL     1       4.221   5.523  18.408  0.00  0.00    +0.000 C 
ATOM      2  C   UNL     1       3.921   6.708  17.464  0.00  0.00    +0.000 C 
ATOM      3  C   UNL     1       5.006   6.976  16.424  0.00  0.00    +0.000 C 
ATOM      4  N   UNL     1       6.349   7.157  16.984  0.00  0.00    +0.000 NA
ATOM      5  CA  UNL     1       6.732   6.090  17.944  0.00  0.00    +0.000 C 
ATOM      6  C   UNL     1       5.648   5.733  18.958  0.00  0.00    +0.000 C 
ATOM      7  H   UNL     1       6.340   8.040  17.506  0.00  0.00    +0.000 HD
ENDROOT
BRANCH   1   9
ATOM      8  C   UNL     1       2.230   4.148  17.636  0.00  0.00    +0.000 C 
ATOM      9  C   UNL     1       3.775   4.088  17.895  0.00  0.00    +0.000 C 
ATOM     10  C   UNL     1       4.350   3.656  16.531  0.00  0.00    +0.000 C 
BRANCH   9  11
ATOM     11  P   UNL     1       4.002   2.714  19.111  0.00  0.00    +0.000 P 
ATOM     12  O   UNL     1       5.230   2.775  19.954  0.00  0.00    +0.000 OA
BRANCH  11  13
ATOM     13  O   UNL     1       2.658   2.591  19.971  0.00  0.00    +0.000 OA
ATOM     14  H   UNL     1       1.891   3.161  19.722  0.00  0.00    +0.000 HD
ENDBRANCH  11  13
BRANCH  11  15
ATOM     15  O   UNL     1       3.932   1.325  18.315  0.00  0.00    +0.000 OA
ATOM     16  H   UNL     1       3.745   0.600  18.943  0.00  0.00    +0.000 HD
ENDBRANCH  11  15
ENDBRANCH   9  11
ENDBRANCH   1   9
BRANCH   5  17
ATOM     17  C   UNL     1       7.263   4.855  17.219  0.00  0.00    +0.000 C 
ATOM     18  O   UNL     1       7.528   4.811  16.020  0.00  0.00    +0.000 OA
BRANCH  17  19
ATOM     19  OXT UNL     1       7.453   3.812  18.060  0.00  0.00    +0.000 OA
ATOM     20  HXT UNL     1       6.699   3.190  17.909  0.00  0.00    +0.000 HD
ENDBRANCH  17  19
ENDBRANCH   5  17
TORSDOF 6
ENDMDL
MODEL 7
REMARK VINA RESULT:      -6.0      1.656      2.273
REMARK  Name = 
REMARK  8 active torsions:
REMARK  status: ('A' for Active; 'I' for Inactive)
REMARK    1  A    between atoms: C_1  and  C_2
REMARK    2  A    between atoms: C_2  and  C_3
REMARK    3  A    between atoms: C_2  and  C_4
REMARK    4  A    between atoms: C_2  and  P_13
REMARK    5  A    between atoms: CA_8  and  C_9
REMARK    6  A    between atoms: C_9  and  OXT_11
REMARK    7  A    between atoms: P_13  and  O_15
REMARK    8  A    between atoms: P_13  and  O_16
REMARK                            x       y       z     vdW  Elec       q    Type
REMARK                         _______ _______ _______ _____ _____    ______ ____
ROOT
ATOM      1  C   UNL     1       4.429   5.865  17.152  0.00  0.00    +0.000 C 
ATOM      2  C   UNL     1       3.537   6.871  17.913  0.00  0.00    +0.000 C 
ATOM      3  C   UNL     1       2.870   6.302  19.162  0.00  0.00    +0.000 C 
ATOM      4  N   UNL     1       2.097   5.078  18.932  0.00  0.00    +0.000 NA
ATOM      5  CA  UNL     1       2.845   4.048  18.168  0.00  0.00    +0.000 C 
ATOM      6  C   UNL     1       3.593   4.583  16.949  0.00  0.00    +0.000 C 
ATOM      7  H   UNL     1       1.283   5.340  18.364  0.00  0.00    +0.000 HD
ENDROOT
BRANCH   1   9
ATOM      8  C   UNL     1       6.577   7.179  17.485  0.00  0.00    +0.000 C 
ATOM      9  C   UNL     1       5.936   5.758  17.640  0.00  0.00    +0.000 C 
ATOM     10  C   UNL     1       6.135   5.437  19.135  0.00  0.00    +0.000 C 
BRANCH   9  11
ATOM     11  P   UNL     1       7.009   4.637  16.632  0.00  0.00    +0.000 P 
ATOM     12  O   UNL     1       8.257   4.151  17.289  0.00  0.00    +0.000 OA
BRANCH  11  13
ATOM     13  O   UNL     1       6.091   3.450  16.075  0.00  0.00    +0.000 OA
ATOM     14  H   UNL     1       5.586   3.604  15.241  0.00  0.00    +0.000 HD
ENDBRANCH  11  13
BRANCH  11  15
ATOM     15  O   UNL     1       7.348   5.377  15.253  0.00  0.00    +0.000 OA
ATOM     16  H   UNL     1       8.101   5.986  15.387  0.00  0.00    +0.000 HD
ENDBRANCH  11  15
ENDBRANCH   9  11
ENDBRANCH   1   9
BRANCH   5  17
ATOM     17  C   UNL     1       3.757   3.231  19.082  0.00  0.00    +0.000 C 
ATOM     18  O   UNL     1       3.699   3.239  20.310  0.00  0.00    +0.000 OA
BRANCH  17  19
ATOM     19  OXT UNL     1       4.618   2.456  18.384  0.00  0.00    +0.000 OA
ATOM     20  HXT UNL     1       4.853   2.963  17.568  0.00  0.00    +0.000 HD
ENDBRANCH  17  19
ENDBRANCH   5  17
TORSDOF 6
ENDMDL
MODEL 8
REMARK VINA RESULT:      -6.0      1.520      1.898
REMARK  Name = 
REMARK  8 active torsions:
REMARK  status: ('A' for Active; 'I' for Inactive)
REMARK    1  A    between atoms: C_1  and  C_2
REMARK    2  A    between atoms: C_2  and  C_3
REMARK    3  A    between atoms: C_2  and  C_4
REMARK    4  A    between atoms: C_2  and  P_13
REMARK    5  A    between atoms: CA_8  and  C_9
REMARK    6  A    between atoms: C_9  and  OXT_11
REMARK    7  A    between atoms: P_13  and  O_15
REMARK    8  A    between atoms: P_13  and  O_16
REMARK                            x       y       z     vdW  Elec       q    Type
REMARK                         _______ _______ _______ _____ _____    ______ ____
ROOT
ATOM      1  C   UNL     1       3.648   5.255  17.456  0.00  0.00    +0.000 C 
ATOM      2  C   UNL     1       3.045   6.008  18.663  0.00  0.00    +0.000 C 
ATOM      3  C   UNL     1       2.881   5.157  19.919  0.00  0.00    +0.000 C 
ATOM      4  N   UNL     1       2.121   3.920  19.718  0.00  0.00    +0.000 NA
ATOM      5  CA  UNL     1       2.589   3.128  18.551  0.00  0.00    +0.000 C 
ATOM      6  C   UNL     1       2.840   3.950  17.289  0.00  0.00    +0.000 C 
ATOM      7  H   UNL     1       1.151   4.192  19.525  0.00  0.00    +0.000 HD
ENDROOT
BRANCH   1   9
ATOM      8  C   UNL     1       5.728   6.707  17.349  0.00  0.00    +0.000 C 
ATOM      9  C   UNL     1       5.233   5.221  17.373  0.00  0.00    +0.000 C 
ATOM     10  C   UNL     1       5.955   4.622  18.597  0.00  0.00    +0.000 C 
BRANCH   9  11
ATOM     11  P   UNL     1       5.921   4.462  15.833  0.00  0.00    +0.000 P 
ATOM     12  O   UNL     1       5.296   4.892  14.549  0.00  0.00    +0.000 OA
BRANCH  11  13
ATOM     13  O   UNL     1       7.509   4.663  15.855  0.00  0.00    +0.000 OA
ATOM     14  H   UNL     1       8.081   3.861  15.801  0.00  0.00    +0.000 HD
ENDBRANCH  11  13
BRANCH  11  15
ATOM     15  O   UNL     1       5.855   2.869  15.987  0.00  0.00    +0.000 OA
ATOM     16  H   UNL     1       5.875   2.633  16.936  0.00  0.00    +0.000 HD
ENDBRANCH  11  15
ENDBRANCH   9  11
ENDBRANCH   1   9
BRANCH   5  17
ATOM     17  C   UNL     1       3.792   2.261  18.915  0.00  0.00    +0.000 C 
ATOM     18  O   UNL     1       4.272   2.173  20.043  0.00  0.00    +0.000 OA
BRANCH  17  19
ATOM     19  OXT UNL     1       4.254   1.557  17.856  0.00  0.00    +0.000 OA
ATOM     20  HXT UNL     1       5.007   1.010  18.190  0.00  0.00    +0.000 HD
ENDBRANCH  17  19
ENDBRANCH   5  17
TORSDOF 6
ENDMDL
MODEL 9
REMARK VINA RESULT:      -5.9      1.504      1.859
REMARK  Name = 
REMARK  8 active torsions:
REMARK  status: ('A' for Active; 'I' for Inactive)
REMARK    1  A    between atoms: C_1  and  C_2
REMARK    2  A    between atoms: C_2  and  C_3
REMARK    3  A    between atoms: C_2  and  C_4
REMARK    4  A    between atoms: C_2  and  P_13
REMARK    5  A    between atoms: CA_8  and  C_9
REMARK    6  A    between atoms: C_9  and  OXT_11
REMARK    7  A    between atoms: P_13  and  O_15
REMARK    8  A    between atoms: P_13  and  O_16
REMARK                            x       y       z     vdW  Elec       q    Type
REMARK                         _______ _______ _______ _____ _____    ______ ____
ROOT
ATOM      1  C   UNL     1       3.726   5.442  17.448  0.00  0.00    +0.000 C 
ATOM      2  C   UNL     1       3.023   6.281  18.538  0.00  0.00    +0.000 C 
ATOM      3  C   UNL     1       2.741   5.524  19.833  0.00  0.00    +0.000 C 
ATOM      4  N   UNL     1       1.992   4.276  19.653  0.00  0.00    +0.000 NA
ATOM      5  CA  UNL     1       2.557   3.402  18.594  0.00  0.00    +0.000 C 
ATOM      6  C   UNL     1       2.927   4.130  17.304  0.00  0.00    +0.000 C 
ATOM      7  H   UNL     1       1.045   4.535  19.354  0.00  0.00    +0.000 HD
ENDROOT
BRANCH   1   9
ATOM      8  C   UNL     1       5.820   6.880  17.425  0.00  0.00    +0.000 C 
ATOM      9  C   UNL     1       5.312   5.400  17.511  0.00  0.00    +0.000 C 
ATOM     10  C   UNL     1       5.917   4.891  18.835  0.00  0.00    +0.000 C 
BRANCH   9  11
ATOM     11  P   UNL     1       6.130   4.531  16.098  0.00  0.00    +0.000 P 
ATOM     12  O   UNL     1       7.597   4.753  15.947  0.00  0.00    +0.000 OA
BRANCH  11  13
ATOM     13  O   UNL     1       5.736   2.982  16.180  0.00  0.00    +0.000 OA
ATOM     14  H   UNL     1       6.344   2.371  16.660  0.00  0.00    +0.000 HD
ENDBRANCH  11  13
BRANCH  11  15
ATOM     15  O   UNL     1       5.358   4.928  14.752  0.00  0.00    +0.000 OA
ATOM     16  H   UNL     1       5.982   4.903  14.000  0.00  0.00    +0.000 HD
ENDBRANCH  11  15
ENDBRANCH   9  11
ENDBRANCH   1   9
BRANCH   5  17
ATOM     17  C   UNL     1       3.716   2.561  19.126  0.00  0.00    +0.000 C 
ATOM     18  O   UNL     1       4.067   2.526  20.304  0.00  0.00    +0.000 OA
BRANCH  17  19
ATOM     19  OXT UNL     1       4.296   1.818  18.156  0.00  0.00    +0.000 OA
ATOM     20  HXT UNL     1       4.182   0.872  18.422  0.00  0.00    +0.000 HD
ENDBRANCH  17  19
ENDBRANCH   5  17
TORSDOF 6
ENDMDL
