MODEL 1
REMARK VINA RESULT:      -6.4      0.000      0.000
REMARK  Name = 
REMARK  14 active torsions:
REMARK  status: ('A' for Active; 'I' for Inactive)
REMARK    1  A    between atoms: C_1  and  O_2
REMARK    2  A    between atoms: O_2  and  C_3
REMARK    3  A    between atoms: C_3  and  C_5
REMARK    4  A    between atoms: C_5  and  C_6
REMARK    5  A    between atoms: C_5  and  N_10
REMARK    6  A    between atoms: C_6  and  C_7
REMARK    7  A    between atoms: C_7  and  S_8
REMARK    8  A    between atoms: S_8  and  C_9
REMARK    9  A    between atoms: N_10  and  C_19
REMARK   10  A    between atoms: C_11  and  C_13
REMARK   11  A    between atoms: C_23  and  C_25
REMARK   12  A    between atoms: C_25  and  N_26
REMARK   13  A    between atoms: C_25  and  C_27
REMARK   14  A    between atoms: C_27  and  S_28
REMARK                            x       y       z     vdW  Elec       q    Type
REMARK                         _______ _______ _______ _____ _____    ______ ____
ROOT
ATOM      1  N   UNL     1       5.012   5.092  18.004  0.00  0.00    +0.000 N 
ATOM      2  C   UNL     1       4.776   4.127  19.005  0.00  0.00    +0.000 C 
ATOM      3  O   UNL     1       5.657   3.881  19.804  0.00  0.00    +0.000 OA
ENDROOT
BRANCH   1   4
ATOM      4  C   UNL     1       3.871   5.626  17.158  0.00  0.00    +0.000 C 
ATOM      5  C   UNL     1       4.022   7.019  16.432  0.00  0.00    +0.000 C 
ATOM      6  C   UNL     1       4.006   8.220  17.387  0.00  0.00    +0.000 C 
ATOM      7  N   UNL     1       2.788   8.198  18.182  0.00  0.00    +0.000 N 
ATOM      8  C   UNL     1       1.968   9.302  18.203  0.00  0.00    +0.000 C 
ATOM      9  O   UNL     1       2.291  10.298  17.560  0.00  0.00    +0.000 OA
ATOM     10  C   UNL     1       2.512   6.950  18.904  0.00  0.00    +0.000 C 
ATOM     11  C   UNL     1       2.515   5.769  17.928  0.00  0.00    +0.000 C 
BRANCH   8  12
ATOM     12  C   UNL     1       0.698   9.400  19.033  0.00  0.00    +0.000 C 
BRANCH  12  13
ATOM     13  N   UNL     1       0.985  10.022  20.334  0.00  0.00    +0.000 NA
ATOM     14  H   UNL     1       0.790   9.336  21.100  0.00  0.00    +0.000 HD
ATOM     15  H   UNL     1       0.362  10.852  20.473  0.00  0.00    +0.000 HD
ENDBRANCH  12  13
BRANCH  12  16
ATOM     16  C   UNL     1      -0.380  10.205  18.286  0.00  0.00    +0.000 C 
BRANCH  16  17
ATOM     17  S   UNL     1      -0.852  11.702  19.209  0.00  0.00    +0.000 S 
ATOM     18  H   UNL     1      -0.331  11.210  20.421  0.00  0.00    +0.000 HD
ENDBRANCH  16  17
ENDBRANCH  12  16
ENDBRANCH   8  12
ENDBRANCH   1   4
BRANCH   2  19
ATOM     19  C   UNL     1       3.491   3.372  19.315  0.00  0.00    +0.000 A 
ATOM     20  C   UNL     1       2.866   2.405  18.491  0.00  0.00    +0.000 A 
ATOM     21  C   UNL     1       1.664   1.801  18.857  0.00  0.00    +0.000 A 
ATOM     22  C   UNL     1       1.056   2.118  20.069  0.00  0.00    +0.000 A 
ATOM     23  C   UNL     1       1.663   3.029  20.927  0.00  0.00    +0.000 A 
ATOM     24  C   UNL     1       2.862   3.642  20.561  0.00  0.00    +0.000 A 
ENDBRANCH   2  19
BRANCH   1  25
ATOM     25  C   UNL     1       6.403   5.638  17.789  0.00  0.00    +0.000 C 
BRANCH  25  26
ATOM     26  C   UNL     1       7.158   4.829  16.766  0.00  0.00    +0.000 C 
ATOM     27  O   UNL     1       8.094   4.124  17.121  0.00  0.00    +0.000 OA
BRANCH  26  29
ATOM     28  C   UNL     1       6.202   3.864  14.764  0.00  0.00    +0.000 C 
ATOM     29  O   UNL     1       6.795   4.897  15.458  0.00  0.00    +0.000 OA
ENDBRANCH  26  29
ENDBRANCH  25  26
BRANCH  25  30
ATOM     30  C   UNL     1       7.401   5.862  18.983  0.00  0.00    +0.000 C 
BRANCH  30  31
ATOM     31  C   UNL     1       8.334   7.104  18.916  0.00  0.00    +0.000 C 
BRANCH  31  32
ATOM     32  S   UNL     1       7.779   8.351  17.684  0.00  0.00    +0.000 S 
ATOM     33  C   UNL     1       8.689   9.781  18.350  0.00  0.00    +0.000 C 
ENDBRANCH  31  32
ENDBRANCH  30  31
ENDBRANCH  25  30
ENDBRANCH   1  25
TORSDOF 12
ENDMDL
MODEL 2
REMARK VINA RESULT:      -5.6      6.543     11.008
REMARK  Name = 
REMARK  14 active torsions:
REMARK  status: ('A' for Active; 'I' for Inactive)
REMARK    1  A    between atoms: C_1  and  O_2
REMARK    2  A    between atoms: O_2  and  C_3
REMARK    3  A    between atoms: C_3  and  C_5
REMARK    4  A    between atoms: C_5  and  C_6
REMARK    5  A    between atoms: C_5  and  N_10
REMARK    6  A    between atoms: C_6  and  C_7
REMARK    7  A    between atoms: C_7  and  S_8
REMARK    8  A    between atoms: S_8  and  C_9
REMARK    9  A    between atoms: N_10  and  C_19
REMARK   10  A    between atoms: C_11  and  C_13
REMARK   11  A    between atoms: C_23  and  C_25
REMARK   12  A    between atoms: C_25  and  N_26
REMARK   13  A    between atoms: C_25  and  C_27
REMARK   14  A    between atoms: C_27  and  S_28
REMARK                            x       y       z     vdW  Elec       q    Type
REMARK                         _______ _______ _______ _____ _____    ______ ____
ROOT
ATOM      1  N   UNL     1      -0.749  13.161  20.313  0.00  0.00    +0.000 N 
ATOM      2  C   UNL     1      -0.074  13.790  19.248  0.00  0.00    +0.000 C 
ATOM      3  O   UNL     1       0.180  13.146  18.250  0.00  0.00    +0.000 OA
ENDROOT
BRANCH   1   4
ATOM      4  C   UNL     1      -1.324  13.975  21.458  0.00  0.00    +0.000 C 
ATOM      5  C   UNL     1      -1.357  13.366  22.912  0.00  0.00    +0.000 C 
ATOM      6  C   UNL     1      -2.372  12.228  23.084  0.00  0.00    +0.000 C 
ATOM      7  N   UNL     1      -3.697  12.692  22.703  0.00  0.00    +0.000 N 
ATOM      8  C   UNL     1      -4.744  12.564  23.588  0.00  0.00    +0.000 C 
ATOM      9  O   UNL     1      -4.541  12.041  24.681  0.00  0.00    +0.000 OA
ATOM     10  C   UNL     1      -3.811  13.300  21.372  0.00  0.00    +0.000 C 
ATOM     11  C   UNL     1      -2.802  14.443  21.231  0.00  0.00    +0.000 C 
BRANCH   8  12
ATOM     12  C   UNL     1      -6.173  12.975  23.275  0.00  0.00    +0.000 C 
BRANCH  12  13
ATOM     13  N   UNL     1      -7.121  12.036  23.893  0.00  0.00    +0.000 NA
ATOM     14  H   UNL     1      -6.900  11.935  24.911  0.00  0.00    +0.000 HD
ATOM     15  H   UNL     1      -7.028  11.094  23.445  0.00  0.00    +0.000 HD
ENDBRANCH  12  13
BRANCH  12  16
ATOM     16  C   UNL     1      -6.448  14.407  23.765  0.00  0.00    +0.000 C 
BRANCH  16  17
ATOM     17  S   UNL     1      -7.014  15.479  22.406  0.00  0.00    +0.000 S 
ATOM     18  H   UNL     1      -6.902  16.649  23.182  0.00  0.00    +0.000 HD
ENDBRANCH  16  17
ENDBRANCH  12  16
ENDBRANCH   8  12
ENDBRANCH   1   4
BRANCH   2  19
ATOM     19  C   UNL     1       0.326  15.253  19.106  0.00  0.00    +0.000 A 
ATOM     20  C   UNL     1      -0.473  16.294  18.577  0.00  0.00    +0.000 A 
ATOM     21  C   UNL     1       0.008  17.597  18.457  0.00  0.00    +0.000 A 
ATOM     22  C   UNL     1       1.295  17.914  18.886  0.00  0.00    +0.000 A 
ATOM     23  C   UNL     1       2.095  16.929  19.455  0.00  0.00    +0.000 A 
ATOM     24  C   UNL     1       1.619  15.621  19.569  0.00  0.00    +0.000 A 
ENDBRANCH   2  19
BRANCH   1  25
ATOM     25  C   UNL     1      -0.947  11.664  20.308  0.00  0.00    +0.000 C 
BRANCH  25  26
ATOM     26  C   UNL     1       0.341  10.940  20.605  0.00  0.00    +0.000 C 
ATOM     27  O   UNL     1       1.104  11.384  21.454  0.00  0.00    +0.000 OA
BRANCH  26  29
ATOM     28  C   UNL     1       1.253   8.702  20.482  0.00  0.00    +0.000 C 
ATOM     29  O   UNL     1       0.645   9.805  19.921  0.00  0.00    +0.000 OA
ENDBRANCH  26  29
ENDBRANCH  25  26
BRANCH  25  30
ATOM     30  C   UNL     1      -1.589  10.915  19.083  0.00  0.00    +0.000 C 
BRANCH  30  31
ATOM     31  C   UNL     1      -2.836  11.565  18.419  0.00  0.00    +0.000 C 
BRANCH  31  32
ATOM     32  S   UNL     1      -3.701  10.433  17.257  0.00  0.00    +0.000 S 
ATOM     33  C   UNL     1      -2.751  10.842  15.758  0.00  0.00    +0.000 C 
ENDBRANCH  31  32
ENDBRANCH  30  31
ENDBRANCH  25  30
ENDBRANCH   1  25
TORSDOF 12
ENDMDL
MODEL 3
REMARK VINA RESULT:      -5.6      1.493      2.740
REMARK  Name = 
REMARK  14 active torsions:
REMARK  status: ('A' for Active; 'I' for Inactive)
REMARK    1  A    between atoms: C_1  and  O_2
REMARK    2  A    between atoms: O_2  and  C_3
REMARK    3  A    between atoms: C_3  and  C_5
REMARK    4  A    between atoms: C_5  and  C_6
REMARK    5  A    between atoms: C_5  and  N_10
REMARK    6  A    between atoms: C_6  and  C_7
REMARK    7  A    between atoms: C_7  and  S_8
REMARK    8  A    between atoms: S_8  and  C_9
REMARK    9  A    between atoms: N_10  and  C_19
REMARK   10  A    between atoms: C_11  and  C_13
REMARK   11  A    between atoms: C_23  and  C_25
REMARK   12  A    between atoms: C_25  and  N_26
REMARK   13  A    between atoms: C_25  and  C_27
REMARK   14  A    between atoms: C_27  and  S_28
REMARK                            x       y       z     vdW  Elec       q    Type
REMARK                         _______ _______ _______ _____ _____    ______ ____
ROOT
ATOM      1  N   UNL     1       5.000   4.368  17.876  0.00  0.00    +0.000 N 
ATOM      2  C   UNL     1       4.549   3.574  18.949  0.00  0.00    +0.000 C 
ATOM      3  O   UNL     1       5.353   3.189  19.774  0.00  0.00    +0.000 OA
ENDROOT
BRANCH   1   4
ATOM      4  C   UNL     1       4.014   5.091  16.977  0.00  0.00    +0.000 C 
ATOM      5  C   UNL     1       4.367   6.524  16.420  0.00  0.00    +0.000 C 
ATOM      6  C   UNL     1       4.350   7.626  17.489  0.00  0.00    +0.000 C 
ATOM      7  N   UNL     1       3.052   7.648  18.147  0.00  0.00    +0.000 N 
ATOM      8  C   UNL     1       2.336   8.822  18.199  0.00  0.00    +0.000 C 
ATOM      9  O   UNL     1       2.815   9.837  17.701  0.00  0.00    +0.000 OA
ATOM     10  C   UNL     1       2.588   6.371  18.703  0.00  0.00    +0.000 C 
ATOM     11  C   UNL     1       2.597   5.294  17.615  0.00  0.00    +0.000 C 
BRANCH   8  12
ATOM     12  C   UNL     1       0.994   8.966  18.900  0.00  0.00    +0.000 C 
BRANCH  12  13
ATOM     13  N   UNL     1       1.192   9.234  20.332  0.00  0.00    +0.000 NA
ATOM     14  H   UNL     1       1.578  10.198  20.457  0.00  0.00    +0.000 HD
ATOM     15  H   UNL     1       1.884   8.553  20.726  0.00  0.00    +0.000 HD
ENDBRANCH  12  13
BRANCH  12  16
ATOM     16  C   UNL     1       0.163  10.091  18.259  0.00  0.00    +0.000 C 
BRANCH  16  17
ATOM     17  S   UNL     1      -0.544  11.198  19.520  0.00  0.00    +0.000 S 
ATOM     18  H   UNL     1      -0.289  12.353  18.757  0.00  0.00    +0.000 HD
ENDBRANCH  16  17
ENDBRANCH  12  16
ENDBRANCH   8  12
ENDBRANCH   1   4
BRANCH   2  19
ATOM     19  C   UNL     1       3.123   3.177  19.306  0.00  0.00    +0.000 A 
ATOM     20  C   UNL     1       2.220   2.461  18.484  0.00  0.00    +0.000 A 
ATOM     21  C   UNL     1       0.918   2.183  18.897  0.00  0.00    +0.000 A 
ATOM     22  C   UNL     1       0.478   2.587  20.155  0.00  0.00    +0.000 A 
ATOM     23  C   UNL     1       1.349   3.252  21.011  0.00  0.00    +0.000 A 
ATOM     24  C   UNL     1       2.651   3.538  20.597  0.00  0.00    +0.000 A 
ENDBRANCH   2  19
BRANCH   1  25
ATOM     25  C   UNL     1       6.480   4.545  17.631  0.00  0.00    +0.000 C 
BRANCH  25  26
ATOM     26  C   UNL     1       7.022   5.732  18.384  0.00  0.00    +0.000 C 
ATOM     27  O   UNL     1       6.829   5.826  19.589  0.00  0.00    +0.000 OA
BRANCH  26  29
ATOM     28  C   UNL     1       8.045   7.920  18.244  0.00  0.00    +0.000 C 
ATOM     29  O   UNL     1       7.714   6.692  17.713  0.00  0.00    +0.000 OA
ENDBRANCH  26  29
ENDBRANCH  25  26
BRANCH  25  30
ATOM     30  C   UNL     1       7.075   4.646  16.180  0.00  0.00    +0.000 C 
BRANCH  30  31
ATOM     31  C   UNL     1       6.385   3.815  15.061  0.00  0.00    +0.000 C 
BRANCH  31  32
ATOM     32  S   UNL     1       6.841   4.371  13.370  0.00  0.00    +0.000 S 
ATOM     33  C   UNL     1       5.746   3.256  12.437  0.00  0.00    +0.000 C 
ENDBRANCH  31  32
ENDBRANCH  30  31
ENDBRANCH  25  30
ENDBRANCH   1  25
TORSDOF 12
ENDMDL
MODEL 4
REMARK VINA RESULT:      -5.6      7.142     10.161
REMARK  Name = 
REMARK  14 active torsions:
REMARK  status: ('A' for Active; 'I' for Inactive)
REMARK    1  A    between atoms: C_1  and  O_2
REMARK    2  A    between atoms: O_2  and  C_3
REMARK    3  A    between atoms: C_3  and  C_5
REMARK    4  A    between atoms: C_5  and  C_6
REMARK    5  A    between atoms: C_5  and  N_10
REMARK    6  A    between atoms: C_6  and  C_7
REMARK    7  A    between atoms: C_7  and  S_8
REMARK    8  A    between atoms: S_8  and  C_9
REMARK    9  A    between atoms: N_10  and  C_19
REMARK   10  A    between atoms: C_11  and  C_13
REMARK   11  A    between atoms: C_23  and  C_25
REMARK   12  A    between atoms: C_25  and  N_26
REMARK   13  A    between atoms: C_25  and  C_27
REMARK   14  A    between atoms: C_27  and  S_28
REMARK                            x       y       z     vdW  Elec       q    Type
REMARK                         _______ _______ _______ _____ _____    ______ ____
ROOT
ATOM      1  N   UNL     1       0.293  12.350  20.191  0.00  0.00    +0.000 N 
ATOM      2  C   UNL     1       1.497  12.481  19.470  0.00  0.00    +0.000 C 
ATOM      3  O   UNL     1       1.847  11.578  18.737  0.00  0.00    +0.000 OA
ENDROOT
BRANCH   1   4
ATOM      4  C   UNL     1      -0.320  13.541  20.903  0.00  0.00    +0.000 C 
ATOM      5  C   UNL     1      -0.498  13.509  22.470  0.00  0.00    +0.000 C 
ATOM      6  C   UNL     1      -1.586  12.538  22.950  0.00  0.00    +0.000 C 
ATOM      7  N   UNL     1      -2.850  12.864  22.307  0.00  0.00    +0.000 N 
ATOM      8  C   UNL     1      -3.966  13.094  23.078  0.00  0.00    +0.000 C 
ATOM      9  O   UNL     1      -3.878  13.004  24.300  0.00  0.00    +0.000 OA
ATOM     10  C   UNL     1      -2.827  12.943  20.841  0.00  0.00    +0.000 C 
ATOM     11  C   UNL     1      -1.747  13.930  20.388  0.00  0.00    +0.000 C 
BRANCH   8  12
ATOM     12  C   UNL     1      -5.343  13.397  22.507  0.00  0.00    +0.000 C 
BRANCH  12  13
ATOM     13  N   UNL     1      -6.114  12.156  22.350  0.00  0.00    +0.000 NA
ATOM     14  H   UNL     1      -5.665  11.392  22.906  0.00  0.00    +0.000 HD
ATOM     15  H   UNL     1      -6.117  11.867  21.343  0.00  0.00    +0.000 HD
ENDBRANCH  12  13
BRANCH  12  16
ATOM     16  C   UNL     1      -6.102  14.384  23.412  0.00  0.00    +0.000 C 
BRANCH  16  17
ATOM     17  S   UNL     1      -7.614  13.632  24.094  0.00  0.00    +0.000 S 
ATOM     18  H   UNL     1      -6.929  13.064  25.185  0.00  0.00    +0.000 HD
ENDBRANCH  16  17
ENDBRANCH  12  16
ENDBRANCH   8  12
ENDBRANCH   1   4
BRANCH   2  19
ATOM     19  C   UNL     1       2.433  13.681  19.391  0.00  0.00    +0.000 A 
ATOM     20  C   UNL     1       3.273  14.160  20.425  0.00  0.00    +0.000 A 
ATOM     21  C   UNL     1       4.063  15.296  20.257  0.00  0.00    +0.000 A 
ATOM     22  C   UNL     1       4.066  15.979  19.043  0.00  0.00    +0.000 A 
ATOM     23  C   UNL     1       3.290  15.513  17.987  0.00  0.00    +0.000 A 
ATOM     24  C   UNL     1       2.490  14.380  18.155  0.00  0.00    +0.000 A 
ENDBRANCH   2  19
BRANCH   1  25
ATOM     25  C   UNL     1      -0.427  11.023  20.228  0.00  0.00    +0.000 C 
BRANCH  25  26
ATOM     26  C   UNL     1       0.367   9.989  20.982  0.00  0.00    +0.000 C 
ATOM     27  O   UNL     1       0.729   8.968  20.412  0.00  0.00    +0.000 OA
BRANCH  26  29
ATOM     28  C   UNL     1       0.132   9.466  23.333  0.00  0.00    +0.000 C 
ATOM     29  O   UNL     1       0.665  10.197  22.292  0.00  0.00    +0.000 OA
ENDBRANCH  26  29
ENDBRANCH  25  26
BRANCH  25  30
ATOM     30  C   UNL     1      -0.927  10.312  18.917  0.00  0.00    +0.000 C 
BRANCH  30  31
ATOM     31  C   UNL     1      -1.746  11.164  17.906  0.00  0.00    +0.000 C 
BRANCH  31  32
ATOM     32  S   UNL     1      -3.152  10.240  17.166  0.00  0.00    +0.000 S 
ATOM     33  C   UNL     1      -2.942  10.801  15.447  0.00  0.00    +0.000 C 
ENDBRANCH  31  32
ENDBRANCH  30  31
ENDBRANCH  25  30
ENDBRANCH   1  25
TORSDOF 12
ENDMDL
MODEL 5
REMARK VINA RESULT:      -5.5      6.069     10.230
REMARK  Name = 
REMARK  14 active torsions:
REMARK  status: ('A' for Active; 'I' for Inactive)
REMARK    1  A    between atoms: C_1  and  O_2
REMARK    2  A    between atoms: O_2  and  C_3
REMARK    3  A    between atoms: C_3  and  C_5
REMARK    4  A    between atoms: C_5  and  C_6
REMARK    5  A    between atoms: C_5  and  N_10
REMARK    6  A    between atoms: C_6  and  C_7
REMARK    7  A    between atoms: C_7  and  S_8
REMARK    8  A    between atoms: S_8  and  C_9
REMARK    9  A    between atoms: N_10  and  C_19
REMARK   10  A    between atoms: C_11  and  C_13
REMARK   11  A    between atoms: C_23  and  C_25
REMARK   12  A    between atoms: C_25  and  N_26
REMARK   13  A    between atoms: C_25  and  C_27
REMARK   14  A    between atoms: C_27  and  S_28
REMARK                            x       y       z     vdW  Elec       q    Type
REMARK                         _______ _______ _______ _____ _____    ______ ____
ROOT
ATOM      1  N   UNL     1       0.068  12.526  20.364  0.00  0.00    +0.000 N 
ATOM      2  C   UNL     1       1.116  12.933  19.514  0.00  0.00    +0.000 C 
ATOM      3  O   UNL     1       1.468  12.192  18.618  0.00  0.00    +0.000 OA
ENDROOT
BRANCH   1   4
ATOM      4  C   UNL     1      -0.584  13.510  21.318  0.00  0.00    +0.000 C 
ATOM      5  C   UNL     1      -0.896  13.073  22.801  0.00  0.00    +0.000 C 
ATOM      6  C   UNL     1      -2.037  12.053  22.919  0.00  0.00    +0.000 C 
ATOM      7  N   UNL     1      -3.236  12.584  22.289  0.00  0.00    +0.000 N 
ATOM      8  C   UNL     1      -4.410  12.646  23.003  0.00  0.00    +0.000 C 
ATOM      9  O   UNL     1      -4.428  12.233  24.160  0.00  0.00    +0.000 OA
ATOM     10  C   UNL     1      -3.086  13.046  20.903  0.00  0.00    +0.000 C 
ATOM     11  C   UNL     1      -1.956  14.075  20.814  0.00  0.00    +0.000 C 
BRANCH   8  12
ATOM     12  C   UNL     1      -5.727  13.140  22.428  0.00  0.00    +0.000 C 
BRANCH  12  13
ATOM     13  N   UNL     1      -6.722  12.057  22.425  0.00  0.00    +0.000 NA
ATOM     14  H   UNL     1      -6.583  11.452  23.268  0.00  0.00    +0.000 HD
ATOM     15  H   UNL     1      -6.593  11.462  21.573  0.00  0.00    +0.000 HD
ENDBRANCH  12  13
BRANCH  12  16
ATOM     16  C   UNL     1      -6.254  14.343  23.230  0.00  0.00    +0.000 C 
BRANCH  16  17
ATOM     17  S   UNL     1      -5.074  15.730  23.204  0.00  0.00    +0.000 S 
ATOM     18  H   UNL     1      -3.957  14.879  23.311  0.00  0.00    +0.000 HD
ENDBRANCH  16  17
ENDBRANCH  12  16
ENDBRANCH   8  12
ENDBRANCH   1   4
BRANCH   2  19
ATOM     19  C   UNL     1       1.854  14.265  19.482  0.00  0.00    +0.000 A 
ATOM     20  C   UNL     1       1.423  15.447  18.834  0.00  0.00    +0.000 A 
ATOM     21  C   UNL     1       2.199  16.605  18.835  0.00  0.00    +0.000 A 
ATOM     22  C   UNL     1       3.419  16.635  19.506  0.00  0.00    +0.000 A 
ATOM     23  C   UNL     1       3.855  15.508  20.195  0.00  0.00    +0.000 A 
ATOM     24  C   UNL     1       3.085  14.344  20.189  0.00  0.00    +0.000 A 
ENDBRANCH   2  19
BRANCH   1  25
ATOM     25  C   UNL     1      -0.448  11.108  20.307  0.00  0.00    +0.000 C 
BRANCH  25  26
ATOM     26  C   UNL     1       0.539  10.140  20.906  0.00  0.00    +0.000 C 
ATOM     27  O   UNL     1       1.128  10.436  21.938  0.00  0.00    +0.000 OA
BRANCH  26  29
ATOM     28  C   UNL     1       1.613   7.976  20.778  0.00  0.00    +0.000 C 
ATOM     29  O   UNL     1       0.770   8.951  20.289  0.00  0.00    +0.000 OA
ENDBRANCH  26  29
ENDBRANCH  25  26
BRANCH  25  30
ATOM     30  C   UNL     1      -0.932  10.454  18.962  0.00  0.00    +0.000 C 
BRANCH  30  31
ATOM     31  C   UNL     1      -1.893  11.284  18.065  0.00  0.00    +0.000 C 
BRANCH  31  32
ATOM     32  S   UNL     1      -3.197  10.260  17.272  0.00  0.00    +0.000 S 
ATOM     33  C   UNL     1      -2.968  10.842  15.563  0.00  0.00    +0.000 C 
ENDBRANCH  31  32
ENDBRANCH  30  31
ENDBRANCH  25  30
ENDBRANCH   1  25
TORSDOF 12
ENDMDL
MODEL 6
REMARK VINA RESULT:      -5.5      7.570     11.086
REMARK  Name = 
REMARK  14 active torsions:
REMARK  status: ('A' for Active; 'I' for Inactive)
REMARK    1  A    between atoms: C_1  and  O_2
REMARK    2  A    between atoms: O_2  and  C_3
REMARK    3  A    between atoms: C_3  and  C_5
REMARK    4  A    between atoms: C_5  and  C_6
REMARK    5  A    between atoms: C_5  and  N_10
REMARK    6  A    between atoms: C_6  and  C_7
REMARK    7  A    between atoms: C_7  and  S_8
REMARK    8  A    between atoms: S_8  and  C_9
REMARK    9  A    between atoms: N_10  and  C_19
REMARK   10  A    between atoms: C_11  and  C_13
REMARK   11  A    between atoms: C_23  and  C_25
REMARK   12  A    between atoms: C_25  and  N_26
REMARK   13  A    between atoms: C_25  and  C_27
REMARK   14  A    between atoms: C_27  and  S_28
REMARK                            x       y       z     vdW  Elec       q    Type
REMARK                         _______ _______ _______ _____ _____    ______ ____
ROOT
ATOM      1  N   UNL     1      -0.688  13.075  20.480  0.00  0.00    +0.000 N 
ATOM      2  C   UNL     1       0.016  13.709  19.437  0.00  0.00    +0.000 C 
ATOM      3  O   UNL     1       0.273  13.077  18.431  0.00  0.00    +0.000 OA
ENDROOT
BRANCH   1   4
ATOM      4  C   UNL     1      -1.265  13.880  21.629  0.00  0.00    +0.000 C 
ATOM      5  C   UNL     1      -1.364  13.235  23.065  0.00  0.00    +0.000 C 
ATOM      6  C   UNL     1      -2.426  12.132  23.177  0.00  0.00    +0.000 C 
ATOM      7  N   UNL     1      -3.721  12.658  22.772  0.00  0.00    +0.000 N 
ATOM      8  C   UNL     1      -4.797  12.547  23.622  0.00  0.00    +0.000 C 
ATOM      9  O   UNL     1      -4.647  11.988  24.706  0.00  0.00    +0.000 OA
ATOM     10  C   UNL     1      -3.772  13.304  21.455  0.00  0.00    +0.000 C 
ATOM     11  C   UNL     1      -2.717  14.411  21.374  0.00  0.00    +0.000 C 
BRANCH   8  12
ATOM     12  C   UNL     1      -6.200  13.021  23.280  0.00  0.00    +0.000 C 
BRANCH  12  13
ATOM     13  N   UNL     1      -7.202  12.125  23.877  0.00  0.00    +0.000 NA
ATOM     14  H   UNL     1      -7.807  12.666  24.537  0.00  0.00    +0.000 HD
ATOM     15  H   UNL     1      -6.720  11.371  24.421  0.00  0.00    +0.000 HD
ENDBRANCH  12  13
BRANCH  12  16
ATOM     16  C   UNL     1      -6.422  14.463  23.767  0.00  0.00    +0.000 C 
BRANCH  16  17
ATOM     17  S   UNL     1      -7.916  15.195  23.027  0.00  0.00    +0.000 S 
ATOM     18  H   UNL     1      -7.236  15.587  21.858  0.00  0.00    +0.000 HD
ENDBRANCH  16  17
ENDBRANCH  12  16
ENDBRANCH   8  12
ENDBRANCH   1   4
BRANCH   2  19
ATOM     19  C   UNL     1       0.447  15.166  19.327  0.00  0.00    +0.000 A 
ATOM     20  C   UNL     1       1.627  15.734  19.862  0.00  0.00    +0.000 A 
ATOM     21  C   UNL     1       1.906  17.094  19.736  0.00  0.00    +0.000 A 
ATOM     22  C   UNL     1       1.031  17.931  19.049  0.00  0.00    +0.000 A 
ATOM     23  C   UNL     1      -0.117  17.402  18.468  0.00  0.00    +0.000 A 
ATOM     24  C   UNL     1      -0.403  16.042  18.599  0.00  0.00    +0.000 A 
ENDBRANCH   2  19
BRANCH   1  25
ATOM     25  C   UNL     1      -0.915  11.582  20.445  0.00  0.00    +0.000 C 
BRANCH  25  26
ATOM     26  C   UNL     1       0.322  10.830  20.862  0.00  0.00    +0.000 C 
ATOM     27  O   UNL     1       1.076  10.382  20.007  0.00  0.00    +0.000 OA
BRANCH  26  29
ATOM     28  C   UNL     1       0.241   9.517  22.893  0.00  0.00    +0.000 C 
ATOM     29  O   UNL     1       0.582  10.649  22.184  0.00  0.00    +0.000 OA
ENDBRANCH  26  29
ENDBRANCH  25  26
BRANCH  25  30
ATOM     30  C   UNL     1      -1.450  10.853  19.158  0.00  0.00    +0.000 C 
BRANCH  30  31
ATOM     31  C   UNL     1      -2.766  11.387  18.526  0.00  0.00    +0.000 C 
BRANCH  31  32
ATOM     32  S   UNL     1      -2.734  11.377  16.688  0.00  0.00    +0.000 S 
ATOM     33  C   UNL     1      -2.789   9.574  16.447  0.00  0.00    +0.000 C 
ENDBRANCH  31  32
ENDBRANCH  30  31
ENDBRANCH  25  30
ENDBRANCH   1  25
TORSDOF 12
ENDMDL
MODEL 7
REMARK VINA RESULT:      -5.5      8.530     11.180
REMARK  Name = 
REMARK  14 active torsions:
REMARK  status: ('A' for Active; 'I' for Inactive)
REMARK    1  A    between atoms: C_1  and  O_2
REMARK    2  A    between atoms: O_2  and  C_3
REMARK    3  A    between atoms: C_3  and  C_5
REMARK    4  A    between atoms: C_5  and  C_6
REMARK    5  A    between atoms: C_5  and  N_10
REMARK    6  A    between atoms: C_6  and  C_7
REMARK    7  A    between atoms: C_7  and  S_8
REMARK    8  A    between atoms: S_8  and  C_9
REMARK    9  A    between atoms: N_10  and  C_19
REMARK   10  A    between atoms: C_11  and  C_13
REMARK   11  A    between atoms: C_23  and  C_25
REMARK   12  A    between atoms: C_25  and  N_26
REMARK   13  A    between atoms: C_25  and  C_27
REMARK   14  A    between atoms: C_27  and  S_28
REMARK                            x       y       z     vdW  Elec       q    Type
REMARK                         _______ _______ _______ _____ _____    ______ ____
ROOT
ATOM      1  N   UNL     1      -2.104  12.721  20.472  0.00  0.00    +0.000 N 
ATOM      2  C   UNL     1      -3.122  12.200  19.648  0.00  0.00    +0.000 C 
ATOM      3  O   UNL     1      -4.280  12.460  19.908  0.00  0.00    +0.000 OA
ENDROOT
BRANCH   1   4
ATOM      4  C   UNL     1      -0.649  12.653  20.045  0.00  0.00    +0.000 C 
ATOM      5  C   UNL     1       0.490  12.905  21.107  0.00  0.00    +0.000 C 
ATOM      6  C   UNL     1       0.593  14.364  21.571  0.00  0.00    +0.000 C 
ATOM      7  N   UNL     1       0.779  15.233  20.419  0.00  0.00    +0.000 N 
ATOM      8  C   UNL     1       1.846  16.100  20.386  0.00  0.00    +0.000 C 
ATOM      9  O   UNL     1       2.616  16.138  21.343  0.00  0.00    +0.000 OA
ATOM     10  C   UNL     1      -0.207  15.093  19.340  0.00  0.00    +0.000 C 
ATOM     11  C   UNL     1      -0.278  13.634  18.882  0.00  0.00    +0.000 C 
BRANCH   8  12
ATOM     12  C   UNL     1       2.108  17.080  19.253  0.00  0.00    +0.000 C 
BRANCH  12  13
ATOM     13  N   UNL     1       2.111  18.459  19.761  0.00  0.00    +0.000 NA
ATOM     14  H   UNL     1       1.130  18.822  19.795  0.00  0.00    +0.000 HD
ATOM     15  H   UNL     1       2.662  19.072  19.115  0.00  0.00    +0.000 HD
ENDBRANCH  12  13
BRANCH  12  16
ATOM     16  C   UNL     1       3.445  16.766  18.560  0.00  0.00    +0.000 C 
BRANCH  16  17
ATOM     17  S   UNL     1       3.439  15.101  17.822  0.00  0.00    +0.000 S 
ATOM     18  H   UNL     1       4.330  15.470  16.797  0.00  0.00    +0.000 HD
ENDBRANCH  16  17
ENDBRANCH  12  16
ENDBRANCH   8  12
ENDBRANCH   1   4
BRANCH   2  19
ATOM     19  C   UNL     1      -2.987  11.397  18.361  0.00  0.00    +0.000 A 
ATOM     20  C   UNL     1      -2.005  10.416  18.083  0.00  0.00    +0.000 A 
ATOM     21  C   UNL     1      -1.950   9.766  16.851  0.00  0.00    +0.000 A 
ATOM     22  C   UNL     1      -2.888  10.051  15.862  0.00  0.00    +0.000 A 
ATOM     23  C   UNL     1      -3.897  10.974  16.113  0.00  0.00    +0.000 A 
ATOM     24  C   UNL     1      -3.951  11.633  17.343  0.00  0.00    +0.000 A 
ENDBRANCH   2  19
BRANCH   1  25
ATOM     25  C   UNL     1      -2.454  13.393  21.778  0.00  0.00    +0.000 C 
BRANCH  25  26
ATOM     26  C   UNL     1      -2.882  12.387  22.815  0.00  0.00    +0.000 C 
ATOM     27  O   UNL     1      -2.086  11.543  23.206  0.00  0.00    +0.000 OA
BRANCH  26  29
ATOM     28  C   UNL     1      -4.470  12.379  24.641  0.00  0.00    +0.000 C 
ATOM     29  O   UNL     1      -4.152  12.423  23.300  0.00  0.00    +0.000 OA
ENDBRANCH  26  29
ENDBRANCH  25  26
BRANCH  25  30
ATOM     30  C   UNL     1      -3.501  14.564  21.855  0.00  0.00    +0.000 C 
BRANCH  30  31
ATOM     31  C   UNL     1      -2.967  15.984  22.191  0.00  0.00    +0.000 C 
BRANCH  31  32
ATOM     32  S   UNL     1      -4.234  17.061  22.975  0.00  0.00    +0.000 S 
ATOM     33  C   UNL     1      -4.348  16.191  24.570  0.00  0.00    +0.000 C 
ENDBRANCH  31  32
ENDBRANCH  30  31
ENDBRANCH  25  30
ENDBRANCH   1  25
TORSDOF 12
ENDMDL
MODEL 8
REMARK VINA RESULT:      -5.4      1.608      2.102
REMARK  Name = 
REMARK  14 active torsions:
REMARK  status: ('A' for Active; 'I' for Inactive)
REMARK    1  A    between atoms: C_1  and  O_2
REMARK    2  A    between atoms: O_2  and  C_3
REMARK    3  A    between atoms: C_3  and  C_5
REMARK    4  A    between atoms: C_5  and  C_6
REMARK    5  A    between atoms: C_5  and  N_10
REMARK    6  A    between atoms: C_6  and  C_7
REMARK    7  A    between atoms: C_7  and  S_8
REMARK    8  A    between atoms: S_8  and  C_9
REMARK    9  A    between atoms: N_10  and  C_19
REMARK   10  A    between atoms: C_11  and  C_13
REMARK   11  A    between atoms: C_23  and  C_25
REMARK   12  A    between atoms: C_25  and  N_26
REMARK   13  A    between atoms: C_25  and  C_27
REMARK   14  A    between atoms: C_27  and  S_28
REMARK                            x       y       z     vdW  Elec       q    Type
REMARK                         _______ _______ _______ _____ _____    ______ ____
ROOT
ATOM      1  N   UNL     1       3.949   5.977  18.097  0.00  0.00    +0.000 N 
ATOM      2  C   UNL     1       4.239   4.953  19.021  0.00  0.00    +0.000 C 
ATOM      3  O   UNL     1       5.395   4.757  19.340  0.00  0.00    +0.000 OA
ENDROOT
BRANCH   1   4
ATOM      4  C   UNL     1       2.521   6.438  17.871  0.00  0.00    +0.000 C 
ATOM      5  C   UNL     1       2.248   7.856  17.236  0.00  0.00    +0.000 C 
ATOM      6  C   UNL     1       2.581   9.027  18.170  0.00  0.00    +0.000 C 
ATOM      7  N   UNL     1       1.844   8.884  19.416  0.00  0.00    +0.000 N 
ATOM      8  C   UNL     1       1.050   9.917  19.860  0.00  0.00    +0.000 C 
ATOM      9  O   UNL     1       0.992  10.952  19.202  0.00  0.00    +0.000 OA
ATOM     10  C   UNL     1       1.994   7.600  20.111  0.00  0.00    +0.000 C 
ATOM     11  C   UNL     1       1.640   6.449  19.166  0.00  0.00    +0.000 C 
BRANCH   8  12
ATOM     12  C   UNL     1       0.275   9.888  21.168  0.00  0.00    +0.000 C 
BRANCH  12  13
ATOM     13  N   UNL     1       1.199   9.952  22.310  0.00  0.00    +0.000 NA
ATOM     14  H   UNL     1       0.837   9.352  23.087  0.00  0.00    +0.000 HD
ATOM     15  H   UNL     1       1.259  10.937  22.661  0.00  0.00    +0.000 HD
ENDBRANCH  12  13
BRANCH  12  16
ATOM     16  C   UNL     1      -0.729  11.052  21.231  0.00  0.00    +0.000 C 
BRANCH  16  17
ATOM     17  S   UNL     1      -1.312  11.337  22.933  0.00  0.00    +0.000 S 
ATOM     18  H   UNL     1      -0.683  10.176  23.423  0.00  0.00    +0.000 HD
ENDBRANCH  16  17
ENDBRANCH  12  16
ENDBRANCH   8  12
ENDBRANCH   1   4
BRANCH   2  19
ATOM     19  C   UNL     1       3.271   4.067  19.794  0.00  0.00    +0.000 A 
ATOM     20  C   UNL     1       2.937   4.185  21.164  0.00  0.00    +0.000 A 
ATOM     21  C   UNL     1       2.064   3.292  21.783  0.00  0.00    +0.000 A 
ATOM     22  C   UNL     1       1.471   2.265  21.052  0.00  0.00    +0.000 A 
ATOM     23  C   UNL     1       1.737   2.144  19.692  0.00  0.00    +0.000 A 
ATOM     24  C   UNL     1       2.618   3.032  19.071  0.00  0.00    +0.000 A 
ENDBRANCH   2  19
BRANCH   1  25
ATOM     25  C   UNL     1       5.068   6.661  17.347  0.00  0.00    +0.000 C 
BRANCH  25  26
ATOM     26  C   UNL     1       5.208   6.113  15.951  0.00  0.00    +0.000 C 
ATOM     27  O   UNL     1       5.174   6.876  14.994  0.00  0.00    +0.000 OA
BRANCH  26  29
ATOM     28  C   UNL     1       6.375   4.206  15.027  0.00  0.00    +0.000 C 
ATOM     29  O   UNL     1       5.362   4.774  15.769  0.00  0.00    +0.000 OA
ENDBRANCH  26  29
ENDBRANCH  25  26
BRANCH  25  30
ATOM     30  C   UNL     1       6.527   6.743  17.926  0.00  0.00    +0.000 C 
BRANCH  30  31
ATOM     31  C   UNL     1       7.449   7.876  17.392  0.00  0.00    +0.000 C 
BRANCH  31  32
ATOM     32  S   UNL     1       8.568   8.557  18.682  0.00  0.00    +0.000 S 
ATOM     33  C   UNL     1       8.665  10.263  18.053  0.00  0.00    +0.000 C 
ENDBRANCH  31  32
ENDBRANCH  30  31
ENDBRANCH  25  30
ENDBRANCH   1  25
TORSDOF 12
ENDMDL
MODEL 9
REMARK VINA RESULT:      -5.4      8.320     10.840
REMARK  Name = 
REMARK  14 active torsions:
REMARK  status: ('A' for Active; 'I' for Inactive)
REMARK    1  A    between atoms: C_1  and  O_2
REMARK    2  A    between atoms: O_2  and  C_3
REMARK    3  A    between atoms: C_3  and  C_5
REMARK    4  A    between atoms: C_5  and  C_6
REMARK    5  A    between atoms: C_5  and  N_10
REMARK    6  A    between atoms: C_6  and  C_7
REMARK    7  A    between atoms: C_7  and  S_8
REMARK    8  A    between atoms: S_8  and  C_9
REMARK    9  A    between atoms: N_10  and  C_19
REMARK   10  A    between atoms: C_11  and  C_13
REMARK   11  A    between atoms: C_23  and  C_25
REMARK   12  A    between atoms: C_25  and  N_26
REMARK   13  A    between atoms: C_25  and  C_27
REMARK   14  A    between atoms: C_27  and  S_28
REMARK                            x       y       z     vdW  Elec       q    Type
REMARK                         _______ _______ _______ _____ _____    ______ ____
ROOT
ATOM      1  N   UNL     1      -1.820  12.500  20.413  0.00  0.00    +0.000 N 
ATOM      2  C   UNL     1      -2.934  12.135  19.632  0.00  0.00    +0.000 C 
ATOM      3  O   UNL     1      -4.035  12.536  19.952  0.00  0.00    +0.000 OA
ENDROOT
BRANCH   1   4
ATOM      4  C   UNL     1      -0.407  12.256  19.914  0.00  0.00    +0.000 C 
ATOM      5  C   UNL     1       0.811  12.415  20.903  0.00  0.00    +0.000 C 
ATOM      6  C   UNL     1       1.099  13.870  21.301  0.00  0.00    +0.000 C 
ATOM      7  N   UNL     1       1.314  14.671  20.106  0.00  0.00    +0.000 N 
ATOM      8  C   UNL     1       2.467  15.412  19.981  0.00  0.00    +0.000 C 
ATOM      9  O   UNL     1       3.288  15.397  20.894  0.00  0.00    +0.000 OA
ATOM     10  C   UNL     1       0.260  14.605  19.086  0.00  0.00    +0.000 C 
ATOM     11  C   UNL     1       0.003  13.148  18.693  0.00  0.00    +0.000 C 
BRANCH   8  12
ATOM     12  C   UNL     1       2.769  16.316  18.797  0.00  0.00    +0.000 C 
BRANCH  12  13
ATOM     13  N   UNL     1       3.662  17.410  19.205  0.00  0.00    +0.000 NA
ATOM     14  H   UNL     1       3.352  18.302  18.754  0.00  0.00    +0.000 HD
ATOM     15  H   UNL     1       4.639  17.207  18.886  0.00  0.00    +0.000 HD
ENDBRANCH  12  13
BRANCH  12  16
ATOM     16  C   UNL     1       3.404  15.513  17.648  0.00  0.00    +0.000 C 
BRANCH  16  17
ATOM     17  S   UNL     1       5.135  15.081  18.014  0.00  0.00    +0.000 S 
ATOM     18  H   UNL     1       5.486  15.017  16.652  0.00  0.00    +0.000 HD
ENDBRANCH  16  17
ENDBRANCH  12  16
ENDBRANCH   8  12
ENDBRANCH   1   4
BRANCH   2  19
ATOM     19  C   UNL     1      -2.965  11.352  18.326  0.00  0.00    +0.000 A 
ATOM     20  C   UNL     1      -2.076  10.318  17.946  0.00  0.00    +0.000 A 
ATOM     21  C   UNL     1      -2.171   9.692  16.705  0.00  0.00    +0.000 A 
ATOM     22  C   UNL     1      -3.173  10.054  15.808  0.00  0.00    +0.000 A 
ATOM     23  C   UNL     1      -4.096  11.033  16.162  0.00  0.00    +0.000 A 
ATOM     24  C   UNL     1      -3.998  11.668  17.402  0.00  0.00    +0.000 A 
ENDBRANCH   2  19
BRANCH   1  25
ATOM     25  C   UNL     1      -2.018  13.182  21.747  0.00  0.00    +0.000 C 
BRANCH  25  26
ATOM     26  C   UNL     1      -2.537  12.218  22.782  0.00  0.00    +0.000 C 
ATOM     27  O   UNL     1      -1.794  11.357  23.235  0.00  0.00    +0.000 OA
BRANCH  26  29
ATOM     28  C   UNL     1      -4.213  12.399  24.518  0.00  0.00    +0.000 C 
ATOM     29  O   UNL     1      -3.829  12.312  23.196  0.00  0.00    +0.000 OA
ENDBRANCH  26  29
ENDBRANCH  25  26
BRANCH  25  30
ATOM     30  C   UNL     1      -2.889  14.483  21.893  0.00  0.00    +0.000 C 
BRANCH  30  31
ATOM     31  C   UNL     1      -2.603  15.652  20.908  0.00  0.00    +0.000 C 
BRANCH  31  32
ATOM     32  S   UNL     1      -4.111  16.611  20.477  0.00  0.00    +0.000 S 
ATOM     33  C   UNL     1      -5.196  15.974  21.794  0.00  0.00    +0.000 C 
ENDBRANCH  31  32
ENDBRANCH  30  31
ENDBRANCH  25  30
ENDBRANCH   1  25
TORSDOF 12
ENDMDL
