MODEL 1
REMARK VINA RESULT:      -8.0      0.000      0.000
REMARK  Name = 
REMARK  1 active torsions:
REMARK  status: ('A' for Active; 'I' for Inactive)
REMARK    1  A    between atoms: C_11  and  C_13
REMARK                            x       y       z     vdW  Elec       q    Type
REMARK                         _______ _______ _______ _____ _____    ______ ____
ROOT
ATOM      1  O   UNL     1       5.470   3.336  16.016  0.00  0.00    +0.000 OA
ATOM      2  C   UNL     1       4.758   4.142  16.587  0.00  0.00    +0.000 C 
ATOM      3  C   UNL     1       3.552   3.751  17.324  0.00  0.00    +0.000 A 
ATOM      4  C   UNL     1       3.040   2.482  17.523  0.00  0.00    +0.000 A 
ATOM      5  C   UNL     1       1.895   2.363  18.318  0.00  0.00    +0.000 A 
ATOM      6  C   UNL     1       1.296   3.499  18.895  0.00  0.00    +0.000 A 
ATOM      7  C   UNL     1       1.820   4.775  18.670  0.00  0.00    +0.000 A 
ATOM      8  C   UNL     1       2.944   4.871  17.870  0.00  0.00    +0.000 A 
ATOM      9  C   UNL     1       3.673   6.077  17.493  0.00  0.00    +0.000 C 
ATOM     10  O   UNL     1       3.304   7.195  17.810  0.00  0.00    +0.000 OA
ATOM     11  C   UNL     1       4.911   5.666  16.682  0.00  0.00    +0.000 C 
ATOM     12  F   UNL     1       4.838   6.210  15.423  0.00  0.00    +0.000 F 
ENDROOT
BRANCH  11  13
ATOM     13  C   UNL     1       6.174   6.090  17.427  0.00  0.00    +0.000 A 
ATOM     14  C   UNL     1       6.703   5.328  18.485  0.00  0.00    +0.000 A 
ATOM     15  C   UNL     1       7.786   5.799  19.229  0.00  0.00    +0.000 A 
ATOM     16  C   UNL     1       8.366   7.025  18.920  0.00  0.00    +0.000 A 
ATOM     17  C   UNL     1       7.872   7.780  17.859  0.00  0.00    +0.000 A 
ATOM     18  C   UNL     1       6.784   7.318  17.118  0.00  0.00    +0.000 A 
ENDBRANCH  11  13
TORSDOF 1
ENDMDL
MODEL 2
REMARK VINA RESULT:      -8.0      0.182      1.151
REMARK  Name = 
REMARK  1 active torsions:
REMARK  status: ('A' for Active; 'I' for Inactive)
REMARK    1  A    between atoms: C_11  and  C_13
REMARK                            x       y       z     vdW  Elec       q    Type
REMARK                         _______ _______ _______ _____ _____    ______ ____
ROOT
ATOM      1  O   UNL     1       5.608   3.481  16.062  0.00  0.00    +0.000 OA
ATOM      2  C   UNL     1       4.820   4.212  16.637  0.00  0.00    +0.000 C 
ATOM      3  C   UNL     1       3.628   3.707  17.324  0.00  0.00    +0.000 A 
ATOM      4  C   UNL     1       3.208   2.397  17.467  0.00  0.00    +0.000 A 
ATOM      5  C   UNL     1       2.054   2.165  18.223  0.00  0.00    +0.000 A 
ATOM      6  C   UNL     1       1.355   3.233  18.818  0.00  0.00    +0.000 A 
ATOM      7  C   UNL     1       1.786   4.551  18.650  0.00  0.00    +0.000 A 
ATOM      8  C   UNL     1       2.921   4.758  17.888  0.00  0.00    +0.000 A 
ATOM      9  C   UNL     1       3.567   6.029  17.571  0.00  0.00    +0.000 C 
ATOM     10  O   UNL     1       3.105   7.103  17.912  0.00  0.00    +0.000 OA
ATOM     11  C   UNL     1       4.855   5.739  16.785  0.00  0.00    +0.000 C 
ATOM     12  F   UNL     1       4.775   6.319  15.542  0.00  0.00    +0.000 F 
ENDROOT
BRANCH  11  13
ATOM     13  C   UNL     1       6.061   6.231  17.580  0.00  0.00    +0.000 A 
ATOM     14  C   UNL     1       6.740   7.416  17.240  0.00  0.00    +0.000 A 
ATOM     15  C   UNL     1       7.912   7.780  17.906  0.00  0.00    +0.000 A 
ATOM     16  C   UNL     1       8.414   6.979  18.927  0.00  0.00    +0.000 A 
ATOM     17  C   UNL     1       7.739   5.817  19.293  0.00  0.00    +0.000 A 
ATOM     18  C   UNL     1       6.572   5.444  18.625  0.00  0.00    +0.000 A 
ENDBRANCH  11  13
TORSDOF 1
ENDMDL
MODEL 3
REMARK VINA RESULT:      -8.0      1.035      1.589
REMARK  Name = 
REMARK  1 active torsions:
REMARK  status: ('A' for Active; 'I' for Inactive)
REMARK    1  A    between atoms: C_11  and  C_13
REMARK                            x       y       z     vdW  Elec       q    Type
REMARK                         _______ _______ _______ _____ _____    ______ ____
ROOT
ATOM      1  O   UNL     1       4.319   3.864  16.157  0.00  0.00    +0.000 OA
ATOM      2  C   UNL     1       3.797   4.457  17.084  0.00  0.00    +0.000 C 
ATOM      3  C   UNL     1       2.791   3.840  17.954  0.00  0.00    +0.000 A 
ATOM      4  C   UNL     1       2.294   2.551  17.912  0.00  0.00    +0.000 A 
ATOM      5  C   UNL     1       1.372   2.179  18.897  0.00  0.00    +0.000 A 
ATOM      6  C   UNL     1       0.974   3.091  19.894  0.00  0.00    +0.000 A 
ATOM      7  C   UNL     1       1.477   4.395  19.910  0.00  0.00    +0.000 A 
ATOM      8  C   UNL     1       2.377   4.744  18.920  0.00  0.00    +0.000 A 
ATOM      9  C   UNL     1       3.039   6.031  18.725  0.00  0.00    +0.000 C 
ATOM     10  O   UNL     1       2.800   7.004  19.419  0.00  0.00    +0.000 OA
ATOM     11  C   UNL     1       4.027   5.900  17.557  0.00  0.00    +0.000 C 
ATOM     12  F   UNL     1       3.672   6.769  16.555  0.00  0.00    +0.000 F 
ENDROOT
BRANCH  11  13
ATOM     13  C   UNL     1       5.448   6.140  18.059  0.00  0.00    +0.000 A 
ATOM     14  C   UNL     1       6.320   7.039  17.417  0.00  0.00    +0.000 A 
ATOM     15  C   UNL     1       7.651   7.150  17.821  0.00  0.00    +0.000 A 
ATOM     16  C   UNL     1       8.127   6.380  18.878  0.00  0.00    +0.000 A 
ATOM     17  C   UNL     1       7.271   5.505  19.541  0.00  0.00    +0.000 A 
ATOM     18  C   UNL     1       5.941   5.384  19.135  0.00  0.00    +0.000 A 
ENDBRANCH  11  13
TORSDOF 1
ENDMDL
MODEL 4
REMARK VINA RESULT:      -7.9      1.172      1.334
REMARK  Name = 
REMARK  1 active torsions:
REMARK  status: ('A' for Active; 'I' for Inactive)
REMARK    1  A    between atoms: C_11  and  C_13
REMARK                            x       y       z     vdW  Elec       q    Type
REMARK                         _______ _______ _______ _____ _____    ______ ____
ROOT
ATOM      1  O   UNL     1       4.005   3.655  16.421  0.00  0.00    +0.000 OA
ATOM      2  C   UNL     1       3.607   4.345  17.343  0.00  0.00    +0.000 C 
ATOM      3  C   UNL     1       2.653   3.857  18.343  0.00  0.00    +0.000 A 
ATOM      4  C   UNL     1       2.080   2.602  18.444  0.00  0.00    +0.000 A 
ATOM      5  C   UNL     1       1.234   2.362  19.532  0.00  0.00    +0.000 A 
ATOM      6  C   UNL     1       0.985   3.365  20.488  0.00  0.00    +0.000 A 
ATOM      7  C   UNL     1       1.562   4.632  20.360  0.00  0.00    +0.000 A 
ATOM      8  C   UNL     1       2.384   4.852  19.270  0.00  0.00    +0.000 A 
ATOM      9  C   UNL     1       3.098   6.076  18.921  0.00  0.00    +0.000 C 
ATOM     10  O   UNL     1       2.982   7.109  19.557  0.00  0.00    +0.000 OA
ATOM     11  C   UNL     1       3.964   5.799  17.682  0.00  0.00    +0.000 C 
ATOM     12  F   UNL     1       3.568   6.616  16.652  0.00  0.00    +0.000 F 
ENDROOT
BRANCH  11  13
ATOM     13  C   UNL     1       5.437   5.982  18.037  0.00  0.00    +0.000 A 
ATOM     14  C   UNL     1       6.024   5.319  19.131  0.00  0.00    +0.000 A 
ATOM     15  C   UNL     1       7.339   5.597  19.508  0.00  0.00    +0.000 A 
ATOM     16  C   UNL     1       8.091   6.524  18.793  0.00  0.00    +0.000 A 
ATOM     17  C   UNL     1       7.533   7.169  17.692  0.00  0.00    +0.000 A 
ATOM     18  C   UNL     1       6.216   6.902  17.316  0.00  0.00    +0.000 A 
ENDBRANCH  11  13
TORSDOF 1
ENDMDL
MODEL 5
REMARK VINA RESULT:      -7.6      2.501      4.752
REMARK  Name = 
REMARK  1 active torsions:
REMARK  status: ('A' for Active; 'I' for Inactive)
REMARK    1  A    between atoms: C_11  and  C_13
REMARK                            x       y       z     vdW  Elec       q    Type
REMARK                         _______ _______ _______ _____ _____    ______ ____
ROOT
ATOM      1  O   UNL     1       2.619   3.412  16.748  0.00  0.00    +0.000 OA
ATOM      2  C   UNL     1       3.637   3.832  17.270  0.00  0.00    +0.000 C 
ATOM      3  C   UNL     1       4.868   4.083  16.516  0.00  0.00    +0.000 A 
ATOM      4  C   UNL     1       5.093   3.928  15.160  0.00  0.00    +0.000 A 
ATOM      5  C   UNL     1       6.350   4.291  14.665  0.00  0.00    +0.000 A 
ATOM      6  C   UNL     1       7.343   4.800  15.523  0.00  0.00    +0.000 A 
ATOM      7  C   UNL     1       7.103   4.936  16.893  0.00  0.00    +0.000 A 
ATOM      8  C   UNL     1       5.858   4.558  17.363  0.00  0.00    +0.000 A 
ATOM      9  C   UNL     1       5.367   4.606  18.736  0.00  0.00    +0.000 C 
ATOM     10  O   UNL     1       6.069   4.942  19.674  0.00  0.00    +0.000 OA
ATOM     11  C   UNL     1       3.890   4.184  18.743  0.00  0.00    +0.000 C 
ATOM     12  F   UNL     1       3.737   3.057  19.512  0.00  0.00    +0.000 F 
ENDROOT
BRANCH  11  13
ATOM     13  C   UNL     1       3.028   5.344  19.233  0.00  0.00    +0.000 A 
ATOM     14  C   UNL     1       3.031   6.595  18.587  0.00  0.00    +0.000 A 
ATOM     15  C   UNL     1       2.330   7.675  19.125  0.00  0.00    +0.000 A 
ATOM     16  C   UNL     1       1.605   7.520  20.303  0.00  0.00    +0.000 A 
ATOM     17  C   UNL     1       1.570   6.283  20.940  0.00  0.00    +0.000 A 
ATOM     18  C   UNL     1       2.277   5.202  20.411  0.00  0.00    +0.000 A 
ENDBRANCH  11  13
TORSDOF 1
ENDMDL
MODEL 6
REMARK VINA RESULT:      -7.5      1.937      5.281
REMARK  Name = 
REMARK  1 active torsions:
REMARK  status: ('A' for Active; 'I' for Inactive)
REMARK    1  A    between atoms: C_11  and  C_13
REMARK                            x       y       z     vdW  Elec       q    Type
REMARK                         _______ _______ _______ _____ _____    ______ ____
ROOT
ATOM      1  O   UNL     1       3.249   6.929  18.654  0.00  0.00    +0.000 OA
ATOM      2  C   UNL     1       3.434   5.883  18.058  0.00  0.00    +0.000 C 
ATOM      3  C   UNL     1       4.638   5.626  17.263  0.00  0.00    +0.000 A 
ATOM      4  C   UNL     1       5.732   6.449  17.070  0.00  0.00    +0.000 A 
ATOM      5  C   UNL     1       6.793   5.949  16.306  0.00  0.00    +0.000 A 
ATOM      6  C   UNL     1       6.741   4.651  15.762  0.00  0.00    +0.000 A 
ATOM      7  C   UNL     1       5.620   3.840  15.956  0.00  0.00    +0.000 A 
ATOM      8  C   UNL     1       4.578   4.359  16.703  0.00  0.00    +0.000 A 
ATOM      9  C   UNL     1       3.314   3.714  17.046  0.00  0.00    +0.000 C 
ATOM     10  O   UNL     1       3.005   2.612  16.628  0.00  0.00    +0.000 OA
ATOM     11  C   UNL     1       2.527   4.647  17.979  0.00  0.00    +0.000 C 
ATOM     12  F   UNL     1       1.338   4.992  17.386  0.00  0.00    +0.000 F 
ENDROOT
BRANCH  11  13
ATOM     13  C   UNL     1       2.329   3.969  19.331  0.00  0.00    +0.000 A 
ATOM     14  C   UNL     1       3.403   3.399  20.041  0.00  0.00    +0.000 A 
ATOM     15  C   UNL     1       3.178   2.679  21.214  0.00  0.00    +0.000 A 
ATOM     16  C   UNL     1       1.884   2.528  21.705  0.00  0.00    +0.000 A 
ATOM     17  C   UNL     1       0.813   3.107  21.030  0.00  0.00    +0.000 A 
ATOM     18  C   UNL     1       1.032   3.821  19.851  0.00  0.00    +0.000 A 
ENDBRANCH  11  13
TORSDOF 1
ENDMDL
MODEL 7
REMARK VINA RESULT:      -7.5      2.546      4.655
REMARK  Name = 
REMARK  1 active torsions:
REMARK  status: ('A' for Active; 'I' for Inactive)
REMARK    1  A    between atoms: C_11  and  C_13
REMARK                            x       y       z     vdW  Elec       q    Type
REMARK                         _______ _______ _______ _____ _____    ______ ____
ROOT
ATOM      1  O   UNL     1       2.675   3.313  16.710  0.00  0.00    +0.000 OA
ATOM      2  C   UNL     1       3.731   3.706  17.174  0.00  0.00    +0.000 C 
ATOM      3  C   UNL     1       4.887   4.042  16.339  0.00  0.00    +0.000 A 
ATOM      4  C   UNL     1       4.991   4.008  14.961  0.00  0.00    +0.000 A 
ATOM      5  C   UNL     1       6.195   4.435  14.390  0.00  0.00    +0.000 A 
ATOM      6  C   UNL     1       7.256   4.886  15.198  0.00  0.00    +0.000 A 
ATOM      7  C   UNL     1       7.138   4.899  16.590  0.00  0.00    +0.000 A 
ATOM      8  C   UNL     1       5.944   4.461  17.134  0.00  0.00    +0.000 A 
ATOM      9  C   UNL     1       5.577   4.382  18.544  0.00  0.00    +0.000 C 
ATOM     10  O   UNL     1       6.358   4.649  19.441  0.00  0.00    +0.000 OA
ATOM     11  C   UNL     1       4.111   3.934  18.644  0.00  0.00    +0.000 C 
ATOM     12  F   UNL     1       4.040   2.743  19.323  0.00  0.00    +0.000 F 
ENDROOT
BRANCH  11  13
ATOM     13  C   UNL     1       3.285   5.033  19.307  0.00  0.00    +0.000 A 
ATOM     14  C   UNL     1       2.465   4.774  20.421  0.00  0.00    +0.000 A 
ATOM     15  C   UNL     1       1.627   5.765  20.933  0.00  0.00    +0.000 A 
ATOM     16  C   UNL     1       1.605   7.030  20.353  0.00  0.00    +0.000 A 
ATOM     17  C   UNL     1       2.430   7.311  19.267  0.00  0.00    +0.000 A 
ATOM     18  C   UNL     1       3.263   6.320  18.746  0.00  0.00    +0.000 A 
ENDBRANCH  11  13
TORSDOF 1
ENDMDL
MODEL 8
REMARK VINA RESULT:      -7.4      2.368      3.637
REMARK  Name = 
REMARK  1 active torsions:
REMARK  status: ('A' for Active; 'I' for Inactive)
REMARK    1  A    between atoms: C_11  and  C_13
REMARK                            x       y       z     vdW  Elec       q    Type
REMARK                         _______ _______ _______ _____ _____    ______ ____
ROOT
ATOM      1  O   UNL     1       3.723   6.808  18.715  0.00  0.00    +0.000 OA
ATOM      2  C   UNL     1       3.893   5.646  19.035  0.00  0.00    +0.000 C 
ATOM      3  C   UNL     1       2.830   4.820  19.614  0.00  0.00    +0.000 A 
ATOM      4  C   UNL     1       1.515   5.165  19.867  0.00  0.00    +0.000 A 
ATOM      5  C   UNL     1       0.670   4.173  20.377  0.00  0.00    +0.000 A 
ATOM      6  C   UNL     1       1.150   2.871  20.617  0.00  0.00    +0.000 A 
ATOM      7  C   UNL     1       2.486   2.545  20.369  0.00  0.00    +0.000 A 
ATOM      8  C   UNL     1       3.306   3.545  19.878  0.00  0.00    +0.000 A 
ATOM      9  C   UNL     1       4.723   3.455  19.539  0.00  0.00    +0.000 C 
ATOM     10  O   UNL     1       5.381   2.447  19.729  0.00  0.00    +0.000 OA
ATOM     11  C   UNL     1       5.167   4.794  18.933  0.00  0.00    +0.000 C 
ATOM     12  F   UNL     1       6.149   5.350  19.715  0.00  0.00    +0.000 F 
ENDROOT
BRANCH  11  13
ATOM     13  C   UNL     1       5.622   4.578  17.492  0.00  0.00    +0.000 A 
ATOM     14  C   UNL     1       6.962   4.760  17.103  0.00  0.00    +0.000 A 
ATOM     15  C   UNL     1       7.329   4.676  15.759  0.00  0.00    +0.000 A 
ATOM     16  C   UNL     1       6.372   4.395  14.789  0.00  0.00    +0.000 A 
ATOM     17  C   UNL     1       5.047   4.186  15.160  0.00  0.00    +0.000 A 
ATOM     18  C   UNL     1       4.673   4.278  16.502  0.00  0.00    +0.000 A 
ENDBRANCH  11  13
TORSDOF 1
ENDMDL
MODEL 9
REMARK VINA RESULT:      -7.4      2.250      5.057
REMARK  Name = 
REMARK  1 active torsions:
REMARK  status: ('A' for Active; 'I' for Inactive)
REMARK    1  A    between atoms: C_11  and  C_13
REMARK                            x       y       z     vdW  Elec       q    Type
REMARK                         _______ _______ _______ _____ _____    ______ ____
ROOT
ATOM      1  O   UNL     1       5.795   3.697  19.390  0.00  0.00    +0.000 OA
ATOM      2  C   UNL     1       5.259   4.511  18.660  0.00  0.00    +0.000 C 
ATOM      3  C   UNL     1       5.741   4.802  17.307  0.00  0.00    +0.000 A 
ATOM      4  C   UNL     1       6.805   4.232  16.633  0.00  0.00    +0.000 A 
ATOM      5  C   UNL     1       7.033   4.642  15.315  0.00  0.00    +0.000 A 
ATOM      6  C   UNL     1       6.200   5.598  14.703  0.00  0.00    +0.000 A 
ATOM      7  C   UNL     1       5.139   6.175  15.406  0.00  0.00    +0.000 A 
ATOM      8  C   UNL     1       4.940   5.764  16.712  0.00  0.00    +0.000 A 
ATOM      9  C   UNL     1       3.908   6.210  17.643  0.00  0.00    +0.000 C 
ATOM     10  O   UNL     1       3.111   7.090  17.368  0.00  0.00    +0.000 OA
ATOM     11  C   UNL     1       4.030   5.390  18.936  0.00  0.00    +0.000 C 
ATOM     12  F   UNL     1       4.299   6.230  19.989  0.00  0.00    +0.000 F 
ENDROOT
BRANCH  11  13
ATOM     13  C   UNL     1       2.756   4.579  19.149  0.00  0.00    +0.000 A 
ATOM     14  C   UNL     1       2.080   4.569  20.384  0.00  0.00    +0.000 A 
ATOM     15  C   UNL     1       0.988   3.725  20.591  0.00  0.00    +0.000 A 
ATOM     16  C   UNL     1       0.545   2.892  19.568  0.00  0.00    +0.000 A 
ATOM     17  C   UNL     1       1.186   2.908  18.332  0.00  0.00    +0.000 A 
ATOM     18  C   UNL     1       2.284   3.744  18.123  0.00  0.00    +0.000 A 
ENDBRANCH  11  13
TORSDOF 1
ENDMDL
