MODEL 1
REMARK VINA RESULT:      -8.6      0.000      0.000
REMARK  Name = 
REMARK  6 active torsions:
REMARK  status: ('A' for Active; 'I' for Inactive)
REMARK    1  A    between atoms: C_1  and  C_2
REMARK    2  A    between atoms: C_2  and  O_3
REMARK    3  A    between atoms: C_2  and  C_10
REMARK    4  A    between atoms: O_3  and  C_4
REMARK    5  A    between atoms: N_12  and  C_13
REMARK    6  A    between atoms: C_17  and  C_18
REMARK                            x       y       z     vdW  Elec       q    Type
REMARK                         _______ _______ _______ _____ _____    ______ ____
ROOT
ATOM      1  C   UNL     1       6.868   6.243  16.479  0.00  0.00    +0.000 A 
ATOM      2  C   UNL     1       7.139   5.559  15.294  0.00  0.00    +0.000 A 
ATOM      3  C   UNL     1       6.500   4.348  15.003  0.00  0.00    +0.000 A 
ATOM      4  C   UNL     1       5.571   3.805  15.893  0.00  0.00    +0.000 A 
ATOM      5  C   UNL     1       5.292   4.467  17.092  0.00  0.00    +0.000 A 
ATOM      6  C   UNL     1       5.969   5.672  17.377  0.00  0.00    +0.000 A 
ENDROOT
BRANCH   5   7
ATOM      7  C   UNL     1       4.340   3.980  18.091  0.00  0.00    +0.000 A 
ATOM      8  N   UNL     1       3.038   4.204  18.027  0.00  0.00    +0.000 NA
ATOM      9  C   UNL     1       2.497   3.680  19.160  0.00  0.00    +0.000 A 
ATOM     10  C   UNL     1       1.165   3.706  19.588  0.00  0.00    +0.000 A 
ATOM     11  C   UNL     1       0.855   3.143  20.828  0.00  0.00    +0.000 A 
ATOM     12  C   UNL     1       1.851   2.550  21.610  0.00  0.00    +0.000 A 
ATOM     13  C   UNL     1       3.186   2.490  21.179  0.00  0.00    +0.000 A 
ATOM     14  C   UNL     1       3.470   3.078  19.945  0.00  0.00    +0.000 A 
ATOM     15  N   UNL     1       4.629   3.238  19.220  0.00  0.00    +0.000 N 
ATOM     16  H   UNL     1       5.539   2.905  19.489  0.00  0.00    +0.000 HD
ENDBRANCH   5   7
BRANCH   1  19
ATOM     17  C   UNL     1       8.094   7.764  18.014  0.00  0.00    +0.000 C 
ATOM     18  O   UNL     1       8.302   6.958  18.920  0.00  0.00    +0.000 OA
ATOM     19  N   UNL     1       7.448   7.483  16.827  0.00  0.00    +0.000 N 
ATOM     20  H   UNL     1       7.475   8.208  16.118  0.00  0.00    +0.000 HD
BRANCH  17  22
ATOM     21  C   UNL     1       7.553  10.167  17.643  0.00  0.00    +0.000 C 
ATOM     22  C   UNL     1       8.620   9.204  18.159  0.00  0.00    +0.000 C 
BRANCH  22  23
ATOM     23  O   UNL     1       8.980   9.549  19.498  0.00  0.00    +0.000 OA
BRANCH  23  24
ATOM     24  C   UNL     1       9.679  10.717  19.681  0.00  0.00    +0.000 A 
ATOM     25  C   UNL     1       9.364  11.432  20.840  0.00  0.00    +0.000 A 
ATOM     26  C   UNL     1      10.024  12.629  21.142  0.00  0.00    +0.000 A 
ATOM     27  C   UNL     1      11.015  13.113  20.290  0.00  0.00    +0.000 A 
ATOM     28  C   UNL     1      11.346  12.400  19.146  0.00  0.00    +0.000 A 
ATOM     29  C   UNL     1      10.686  11.205  18.842  0.00  0.00    +0.000 A 
ENDBRANCH  23  24
ENDBRANCH  22  23
ENDBRANCH  17  22
ENDBRANCH   1  19
TORSDOF 5
ENDMDL
MODEL 2
REMARK VINA RESULT:      -8.5      0.268      1.147
REMARK  Name = 
REMARK  6 active torsions:
REMARK  status: ('A' for Active; 'I' for Inactive)
REMARK    1  A    between atoms: C_1  and  C_2
REMARK    2  A    between atoms: C_2  and  O_3
REMARK    3  A    between atoms: C_2  and  C_10
REMARK    4  A    between atoms: O_3  and  C_4
REMARK    5  A    between atoms: N_12  and  C_13
REMARK    6  A    between atoms: C_17  and  C_18
REMARK                            x       y       z     vdW  Elec       q    Type
REMARK                         _______ _______ _______ _____ _____    ______ ____
ROOT
ATOM      1  C   UNL     1       6.869   6.372  16.630  0.00  0.00    +0.000 A 
ATOM      2  C   UNL     1       7.169   5.611  15.499  0.00  0.00    +0.000 A 
ATOM      3  C   UNL     1       6.508   4.402  15.254  0.00  0.00    +0.000 A 
ATOM      4  C   UNL     1       5.528   3.938  16.132  0.00  0.00    +0.000 A 
ATOM      5  C   UNL     1       5.218   4.678  17.278  0.00  0.00    +0.000 A 
ATOM      6  C   UNL     1       5.917   5.880  17.520  0.00  0.00    +0.000 A 
ENDROOT
BRANCH   5   7
ATOM      7  C   UNL     1       4.211   4.278  18.261  0.00  0.00    +0.000 A 
ATOM      8  N   UNL     1       4.504   3.660  19.394  0.00  0.00    +0.000 NA
ATOM      9  C   UNL     1       3.319   3.376  19.999  0.00  0.00    +0.000 A 
ATOM     10  C   UNL     1       3.088   2.685  21.194  0.00  0.00    +0.000 A 
ATOM     11  C   UNL     1       1.767   2.466  21.590  0.00  0.00    +0.000 A 
ATOM     12  C   UNL     1       0.703   2.948  20.820  0.00  0.00    +0.000 A 
ATOM     13  C   UNL     1       0.921   3.669  19.636  0.00  0.00    +0.000 A 
ATOM     14  C   UNL     1       2.251   3.856  19.254  0.00  0.00    +0.000 A 
ATOM     15  N   UNL     1       2.846   4.470  18.176  0.00  0.00    +0.000 N 
ATOM     16  H   UNL     1       2.363   4.943  17.430  0.00  0.00    +0.000 HD
ENDBRANCH   5   7
BRANCH   1  19
ATOM     17  C   UNL     1       8.188   7.907  18.070  0.00  0.00    +0.000 C 
ATOM     18  O   UNL     1       8.452   7.110  18.969  0.00  0.00    +0.000 OA
ATOM     19  N   UNL     1       7.469   7.615  16.928  0.00  0.00    +0.000 N 
ATOM     20  H   UNL     1       7.452   8.333  16.212  0.00  0.00    +0.000 HD
BRANCH  17  22
ATOM     21  C   UNL     1       7.640  10.303  17.669  0.00  0.00    +0.000 C 
ATOM     22  C   UNL     1       8.722   9.349  18.168  0.00  0.00    +0.000 C 
BRANCH  22  23
ATOM     23  O   UNL     1       9.129   9.719  19.487  0.00  0.00    +0.000 OA
BRANCH  23  24
ATOM     24  C   UNL     1       9.842  10.885  19.621  0.00  0.00    +0.000 A 
ATOM     25  C   UNL     1       9.523  11.660  20.740  0.00  0.00    +0.000 A 
ATOM     26  C   UNL     1      10.196  12.861  20.992  0.00  0.00    +0.000 A 
ATOM     27  C   UNL     1      11.204  13.289  20.130  0.00  0.00    +0.000 A 
ATOM     28  C   UNL     1      11.539  12.516  19.026  0.00  0.00    +0.000 A 
ATOM     29  C   UNL     1      10.866  11.317  18.774  0.00  0.00    +0.000 A 
ENDBRANCH  23  24
ENDBRANCH  22  23
ENDBRANCH  17  22
ENDBRANCH   1  19
TORSDOF 5
ENDMDL
MODEL 3
REMARK VINA RESULT:      -8.3      4.450      7.503
REMARK  Name = 
REMARK  6 active torsions:
REMARK  status: ('A' for Active; 'I' for Inactive)
REMARK    1  A    between atoms: C_1  and  C_2
REMARK    2  A    between atoms: C_2  and  O_3
REMARK    3  A    between atoms: C_2  and  C_10
REMARK    4  A    between atoms: O_3  and  C_4
REMARK    5  A    between atoms: N_12  and  C_13
REMARK    6  A    between atoms: C_17  and  C_18
REMARK                            x       y       z     vdW  Elec       q    Type
REMARK                         _______ _______ _______ _____ _____    ______ ____
ROOT
ATOM      1  C   UNL     1       3.518   6.000  18.809  0.00  0.00    +0.000 A 
ATOM      2  C   UNL     1       3.180   4.717  19.242  0.00  0.00    +0.000 A 
ATOM      3  C   UNL     1       2.167   4.525  20.188  0.00  0.00    +0.000 A 
ATOM      4  C   UNL     1       1.469   5.615  20.711  0.00  0.00    +0.000 A 
ATOM      5  C   UNL     1       1.798   6.910  20.302  0.00  0.00    +0.000 A 
ATOM      6  C   UNL     1       2.842   7.082  19.367  0.00  0.00    +0.000 A 
ENDROOT
BRANCH   5   7
ATOM      7  C   UNL     1       1.131   8.117  20.791  0.00  0.00    +0.000 A 
ATOM      8  N   UNL     1       0.698   8.257  22.033  0.00  0.00    +0.000 NA
ATOM      9  C   UNL     1       0.064   9.459  22.090  0.00  0.00    +0.000 A 
ATOM     10  C   UNL     1      -0.611  10.045  23.168  0.00  0.00    +0.000 A 
ATOM     11  C   UNL     1      -1.239  11.277  22.969  0.00  0.00    +0.000 A 
ATOM     12  C   UNL     1      -1.174  11.916  21.726  0.00  0.00    +0.000 A 
ATOM     13  C   UNL     1      -0.475  11.355  20.646  0.00  0.00    +0.000 A 
ATOM     14  C   UNL     1       0.126  10.114  20.868  0.00  0.00    +0.000 A 
ATOM     15  N   UNL     1       0.854   9.261  20.070  0.00  0.00    +0.000 N 
ATOM     16  H   UNL     1       1.105   9.428  19.110  0.00  0.00    +0.000 HD
ENDBRANCH   5   7
BRANCH   1  19
ATOM     17  C   UNL     1       5.815   5.834  17.875  0.00  0.00    +0.000 C 
ATOM     18  O   UNL     1       6.296   5.102  18.738  0.00  0.00    +0.000 OA
ATOM     19  N   UNL     1       4.506   6.271  17.837  0.00  0.00    +0.000 N 
ATOM     20  H   UNL     1       4.217   6.752  16.991  0.00  0.00    +0.000 HD
BRANCH  17  22
ATOM     21  C   UNL     1       7.640   7.385  17.193  0.00  0.00    +0.000 C 
ATOM     22  C   UNL     1       6.701   6.288  16.700  0.00  0.00    +0.000 C 
BRANCH  22  23
ATOM     23  O   UNL     1       7.457   5.228  16.111  0.00  0.00    +0.000 OA
BRANCH  23  24
ATOM     24  C   UNL     1       7.072   4.796  14.866  0.00  0.00    +0.000 A 
ATOM     25  C   UNL     1       7.852   5.256  13.801  0.00  0.00    +0.000 A 
ATOM     26  C   UNL     1       7.567   4.868  12.487  0.00  0.00    +0.000 A 
ATOM     27  C   UNL     1       6.503   4.005  12.230  0.00  0.00    +0.000 A 
ATOM     28  C   UNL     1       5.734   3.530  13.284  0.00  0.00    +0.000 A 
ATOM     29  C   UNL     1       6.018   3.918  14.597  0.00  0.00    +0.000 A 
ENDBRANCH  23  24
ENDBRANCH  22  23
ENDBRANCH  17  22
ENDBRANCH   1  19
TORSDOF 5
ENDMDL
MODEL 4
REMARK VINA RESULT:      -8.3      4.200      7.260
REMARK  Name = 
REMARK  6 active torsions:
REMARK  status: ('A' for Active; 'I' for Inactive)
REMARK    1  A    between atoms: C_1  and  C_2
REMARK    2  A    between atoms: C_2  and  O_3
REMARK    3  A    between atoms: C_2  and  C_10
REMARK    4  A    between atoms: O_3  and  C_4
REMARK    5  A    between atoms: N_12  and  C_13
REMARK    6  A    between atoms: C_17  and  C_18
REMARK                            x       y       z     vdW  Elec       q    Type
REMARK                         _______ _______ _______ _____ _____    ______ ____
ROOT
ATOM      1  C   UNL     1       4.040   5.403  19.058  0.00  0.00    +0.000 A 
ATOM      2  C   UNL     1       3.520   4.127  19.271  0.00  0.00    +0.000 A 
ATOM      3  C   UNL     1       2.295   3.952  19.926  0.00  0.00    +0.000 A 
ATOM      4  C   UNL     1       1.566   5.055  20.372  0.00  0.00    +0.000 A 
ATOM      5  C   UNL     1       2.072   6.344  20.181  0.00  0.00    +0.000 A 
ATOM      6  C   UNL     1       3.322   6.495  19.542  0.00  0.00    +0.000 A 
ENDROOT
BRANCH   5   7
ATOM      7  C   UNL     1       1.389   7.564  20.613  0.00  0.00    +0.000 A 
ATOM      8  N   UNL     1       1.488   8.719  19.977  0.00  0.00    +0.000 NA
ATOM      9  C   UNL     1       0.794   9.629  20.713  0.00  0.00    +0.000 A 
ATOM     10  C   UNL     1       0.640  11.002  20.492  0.00  0.00    +0.000 A 
ATOM     11  C   UNL     1      -0.081  11.749  21.425  0.00  0.00    +0.000 A 
ATOM     12  C   UNL     1      -0.654  11.131  22.542  0.00  0.00    +0.000 A 
ATOM     13  C   UNL     1      -0.534   9.750  22.760  0.00  0.00    +0.000 A 
ATOM     14  C   UNL     1       0.209   9.032  21.821  0.00  0.00    +0.000 A 
ATOM     15  N   UNL     1       0.561   7.706  21.709  0.00  0.00    +0.000 N 
ATOM     16  H   UNL     1       0.293   6.973  22.344  0.00  0.00    +0.000 HD
ENDBRANCH   5   7
BRANCH   1  19
ATOM     17  C   UNL     1       5.367   6.252  17.137  0.00  0.00    +0.000 C 
ATOM     18  O   UNL     1       4.432   6.687  16.466  0.00  0.00    +0.000 OA
ATOM     19  N   UNL     1       5.251   5.661  18.379  0.00  0.00    +0.000 N 
ATOM     20  H   UNL     1       6.118   5.480  18.873  0.00  0.00    +0.000 HD
BRANCH  17  22
ATOM     21  C   UNL     1       7.677   6.989  17.708  0.00  0.00    +0.000 C 
ATOM     22  C   UNL     1       6.804   6.400  16.603  0.00  0.00    +0.000 C 
BRANCH  22  23
ATOM     23  O   UNL     1       7.369   5.173  16.138  0.00  0.00    +0.000 OA
BRANCH  23  24
ATOM     24  C   UNL     1       7.070   4.789  14.854  0.00  0.00    +0.000 A 
ATOM     25  C   UNL     1       7.843   5.383  13.852  0.00  0.00    +0.000 A 
ATOM     26  C   UNL     1       7.641   5.056  12.506  0.00  0.00    +0.000 A 
ATOM     27  C   UNL     1       6.671   4.120  12.154  0.00  0.00    +0.000 A 
ATOM     28  C   UNL     1       5.911   3.512  13.144  0.00  0.00    +0.000 A 
ATOM     29  C   UNL     1       6.111   3.839  14.489  0.00  0.00    +0.000 A 
ENDBRANCH  23  24
ENDBRANCH  22  23
ENDBRANCH  17  22
ENDBRANCH   1  19
TORSDOF 5
ENDMDL
MODEL 5
REMARK VINA RESULT:      -8.3      4.415      7.400
REMARK  Name = 
REMARK  6 active torsions:
REMARK  status: ('A' for Active; 'I' for Inactive)
REMARK    1  A    between atoms: C_1  and  C_2
REMARK    2  A    between atoms: C_2  and  O_3
REMARK    3  A    between atoms: C_2  and  C_10
REMARK    4  A    between atoms: O_3  and  C_4
REMARK    5  A    between atoms: N_12  and  C_13
REMARK    6  A    between atoms: C_17  and  C_18
REMARK                            x       y       z     vdW  Elec       q    Type
REMARK                         _______ _______ _______ _____ _____    ______ ____
ROOT
ATOM      1  C   UNL     1       3.472   5.846  18.870  0.00  0.00    +0.000 A 
ATOM      2  C   UNL     1       3.146   4.574  19.342  0.00  0.00    +0.000 A 
ATOM      3  C   UNL     1       2.140   4.401  20.299  0.00  0.00    +0.000 A 
ATOM      4  C   UNL     1       1.436   5.500  20.795  0.00  0.00    +0.000 A 
ATOM      5  C   UNL     1       1.753   6.786  20.346  0.00  0.00    +0.000 A 
ATOM      6  C   UNL     1       2.790   6.939  19.400  0.00  0.00    +0.000 A 
ENDROOT
BRANCH   5   7
ATOM      7  C   UNL     1       1.079   8.001  20.805  0.00  0.00    +0.000 A 
ATOM      8  N   UNL     1       1.155   9.159  20.172  0.00  0.00    +0.000 NA
ATOM      9  C   UNL     1       0.480  10.063  20.933  0.00  0.00    +0.000 A 
ATOM     10  C   UNL     1       0.315  11.437  20.723  0.00  0.00    +0.000 A 
ATOM     11  C   UNL     1      -0.380  12.177  21.682  0.00  0.00    +0.000 A 
ATOM     12  C   UNL     1      -0.917  11.551  22.812  0.00  0.00    +0.000 A 
ATOM     13  C   UNL     1      -0.786  10.169  23.019  0.00  0.00    +0.000 A 
ATOM     14  C   UNL     1      -0.069   9.459  22.055  0.00  0.00    +0.000 A 
ATOM     15  N   UNL     1       0.284   8.135  21.926  0.00  0.00    +0.000 N 
ATOM     16  H   UNL     1       0.037   7.397  22.565  0.00  0.00    +0.000 HD
ENDBRANCH   5   7
BRANCH   1  19
ATOM     17  C   UNL     1       5.815   5.952  18.049  0.00  0.00    +0.000 C 
ATOM     18  O   UNL     1       6.368   5.535  19.064  0.00  0.00    +0.000 OA
ATOM     19  N   UNL     1       4.451   6.097  17.884  0.00  0.00    +0.000 N 
ATOM     20  H   UNL     1       4.133   6.318  16.947  0.00  0.00    +0.000 HD
BRANCH  17  22
ATOM     21  C   UNL     1       7.637   7.431  17.215  0.00  0.00    +0.000 C 
ATOM     22  C   UNL     1       6.674   6.314  16.822  0.00  0.00    +0.000 C 
BRANCH  22  23
ATOM     23  O   UNL     1       7.403   5.207  16.289  0.00  0.00    +0.000 OA
BRANCH  23  24
ATOM     24  C   UNL     1       7.119   4.830  14.999  0.00  0.00    +0.000 A 
ATOM     25  C   UNL     1       6.002   4.004  14.845  0.00  0.00    +0.000 A 
ATOM     26  C   UNL     1       5.604   3.570  13.574  0.00  0.00    +0.000 A 
ATOM     27  C   UNL     1       6.318   3.971  12.446  0.00  0.00    +0.000 A 
ATOM     28  C   UNL     1       7.419   4.805  12.589  0.00  0.00    +0.000 A 
ATOM     29  C   UNL     1       7.817   5.238  13.858  0.00  0.00    +0.000 A 
ENDBRANCH  23  24
ENDBRANCH  22  23
ENDBRANCH  17  22
ENDBRANCH   1  19
TORSDOF 5
ENDMDL
MODEL 6
REMARK VINA RESULT:      -8.3      5.772      8.699
REMARK  Name = 
REMARK  6 active torsions:
REMARK  status: ('A' for Active; 'I' for Inactive)
REMARK    1  A    between atoms: C_1  and  C_2
REMARK    2  A    between atoms: C_2  and  O_3
REMARK    3  A    between atoms: C_2  and  C_10
REMARK    4  A    between atoms: O_3  and  C_4
REMARK    5  A    between atoms: N_12  and  C_13
REMARK    6  A    between atoms: C_17  and  C_18
REMARK                            x       y       z     vdW  Elec       q    Type
REMARK                         _______ _______ _______ _____ _____    ______ ____
ROOT
ATOM      1  C   UNL     1       2.449   7.043  19.463  0.00  0.00    +0.000 A 
ATOM      2  C   UNL     1       2.890   7.356  18.177  0.00  0.00    +0.000 A 
ATOM      3  C   UNL     1       2.505   8.551  17.559  0.00  0.00    +0.000 A 
ATOM      4  C   UNL     1       1.676   9.458  18.222  0.00  0.00    +0.000 A 
ATOM      5  C   UNL     1       1.212   9.160  19.507  0.00  0.00    +0.000 A 
ATOM      6  C   UNL     1       1.591   7.937  20.100  0.00  0.00    +0.000 A 
ENDROOT
BRANCH   5   7
ATOM      7  C   UNL     1       0.339  10.040  20.285  0.00  0.00    +0.000 A 
ATOM      8  N   UNL     1       0.141   9.906  21.585  0.00  0.00    +0.000 NA
ATOM      9  C   UNL     1      -0.786  10.837  21.936  0.00  0.00    +0.000 A 
ATOM     10  C   UNL     1      -1.371  11.066  23.186  0.00  0.00    +0.000 A 
ATOM     11  C   UNL     1      -2.352  12.055  23.291  0.00  0.00    +0.000 A 
ATOM     12  C   UNL     1      -2.723  12.811  22.174  0.00  0.00    +0.000 A 
ATOM     13  C   UNL     1      -2.124  12.613  20.921  0.00  0.00    +0.000 A 
ATOM     14  C   UNL     1      -1.160  11.605  20.841  0.00  0.00    +0.000 A 
ATOM     15  N   UNL     1      -0.394  11.111  19.811  0.00  0.00    +0.000 N 
ATOM     16  H   UNL     1      -0.398  11.448  18.863  0.00  0.00    +0.000 HD
ENDBRANCH   5   7
BRANCH   1  19
ATOM     17  C   UNL     1       2.101   4.695  20.199  0.00  0.00    +0.000 C 
ATOM     18  O   UNL     1       1.058   4.478  19.583  0.00  0.00    +0.000 OA
ATOM     19  N   UNL     1       2.819   5.874  20.163  0.00  0.00    +0.000 N 
ATOM     20  H   UNL     1       3.731   5.858  20.608  0.00  0.00    +0.000 HD
BRANCH  17  22
ATOM     21  C   UNL     1       1.576   2.736  21.644  0.00  0.00    +0.000 C 
ATOM     22  C   UNL     1       2.711   3.571  21.057  0.00  0.00    +0.000 C 
BRANCH  22  23
ATOM     23  O   UNL     1       3.614   2.729  20.338  0.00  0.00    +0.000 OA
BRANCH  23  24
ATOM     24  C   UNL     1       4.249   3.273  19.249  0.00  0.00    +0.000 A 
ATOM     25  C   UNL     1       3.662   2.999  18.010  0.00  0.00    +0.000 A 
ATOM     26  C   UNL     1       4.210   3.515  16.831  0.00  0.00    +0.000 A 
ATOM     27  C   UNL     1       5.346   4.321  16.884  0.00  0.00    +0.000 A 
ATOM     28  C   UNL     1       5.926   4.611  18.112  0.00  0.00    +0.000 A 
ATOM     29  C   UNL     1       5.379   4.095  19.291  0.00  0.00    +0.000 A 
ENDBRANCH  23  24
ENDBRANCH  22  23
ENDBRANCH  17  22
ENDBRANCH   1  19
TORSDOF 5
ENDMDL
MODEL 7
REMARK VINA RESULT:      -8.2      6.021      8.812
REMARK  Name = 
REMARK  6 active torsions:
REMARK  status: ('A' for Active; 'I' for Inactive)
REMARK    1  A    between atoms: C_1  and  C_2
REMARK    2  A    between atoms: C_2  and  O_3
REMARK    3  A    between atoms: C_2  and  C_10
REMARK    4  A    between atoms: O_3  and  C_4
REMARK    5  A    between atoms: N_12  and  C_13
REMARK    6  A    between atoms: C_17  and  C_18
REMARK                            x       y       z     vdW  Elec       q    Type
REMARK                         _______ _______ _______ _____ _____    ______ ____
ROOT
ATOM      1  C   UNL     1       2.263   7.208  19.561  0.00  0.00    +0.000 A 
ATOM      2  C   UNL     1       2.457   7.467  18.204  0.00  0.00    +0.000 A 
ATOM      3  C   UNL     1       2.039   8.677  17.639  0.00  0.00    +0.000 A 
ATOM      4  C   UNL     1       1.426   9.653  18.425  0.00  0.00    +0.000 A 
ATOM      5  C   UNL     1       1.210   9.413  19.786  0.00  0.00    +0.000 A 
ATOM      6  C   UNL     1       1.615   8.174  20.329  0.00  0.00    +0.000 A 
ENDROOT
BRANCH   5   7
ATOM      7  C   UNL     1       0.575  10.367  20.694  0.00  0.00    +0.000 A 
ATOM      8  N   UNL     1      -0.378  10.037  21.549  0.00  0.00    +0.000 NA
ATOM      9  C   UNL     1      -0.777  11.189  22.152  0.00  0.00    +0.000 A 
ATOM     10  C   UNL     1      -1.793  11.379  23.095  0.00  0.00    +0.000 A 
ATOM     11  C   UNL     1      -2.058  12.678  23.534  0.00  0.00    +0.000 A 
ATOM     12  C   UNL     1      -1.307  13.758  23.057  0.00  0.00    +0.000 A 
ATOM     13  C   UNL     1      -0.265  13.578  22.134  0.00  0.00    +0.000 A 
ATOM     14  C   UNL     1      -0.036  12.271  21.699  0.00  0.00    +0.000 A 
ATOM     15  N   UNL     1       0.853  11.716  20.806  0.00  0.00    +0.000 N 
ATOM     16  H   UNL     1       1.559  12.217  20.293  0.00  0.00    +0.000 HD
ENDBRANCH   5   7
BRANCH   1  19
ATOM     17  C   UNL     1       2.068   4.794  20.116  0.00  0.00    +0.000 C 
ATOM     18  O   UNL     1       1.092   4.538  19.414  0.00  0.00    +0.000 OA
ATOM     19  N   UNL     1       2.684   6.026  20.209  0.00  0.00    +0.000 N 
ATOM     20  H   UNL     1       3.561   6.053  20.717  0.00  0.00    +0.000 HD
BRANCH  17  22
ATOM     21  C   UNL     1       1.604   2.850  21.602  0.00  0.00    +0.000 C 
ATOM     22  C   UNL     1       2.713   3.665  20.942  0.00  0.00    +0.000 C 
BRANCH  22  23
ATOM     23  O   UNL     1       3.558   2.807  20.174  0.00  0.00    +0.000 OA
BRANCH  23  24
ATOM     24  C   UNL     1       4.156   3.344  19.061  0.00  0.00    +0.000 A 
ATOM     25  C   UNL     1       5.311   4.094  19.299  0.00  0.00    +0.000 A 
ATOM     26  C   UNL     1       6.016   4.676  18.240  0.00  0.00    +0.000 A 
ATOM     27  C   UNL     1       5.576   4.499  16.929  0.00  0.00    +0.000 A 
ATOM     28  C   UNL     1       4.440   3.740  16.682  0.00  0.00    +0.000 A 
ATOM     29  C   UNL     1       3.734   3.160  17.740  0.00  0.00    +0.000 A 
ENDBRANCH  23  24
ENDBRANCH  22  23
ENDBRANCH  17  22
ENDBRANCH   1  19
TORSDOF 5
ENDMDL
MODEL 8
REMARK VINA RESULT:      -8.2      5.944      8.788
REMARK  Name = 
REMARK  6 active torsions:
REMARK  status: ('A' for Active; 'I' for Inactive)
REMARK    1  A    between atoms: C_1  and  C_2
REMARK    2  A    between atoms: C_2  and  O_3
REMARK    3  A    between atoms: C_2  and  C_10
REMARK    4  A    between atoms: O_3  and  C_4
REMARK    5  A    between atoms: N_12  and  C_13
REMARK    6  A    between atoms: C_17  and  C_18
REMARK                            x       y       z     vdW  Elec       q    Type
REMARK                         _______ _______ _______ _____ _____    ______ ____
ROOT
ATOM      1  C   UNL     1       2.320   7.139  19.534  0.00  0.00    +0.000 A 
ATOM      2  C   UNL     1       2.646   7.386  18.201  0.00  0.00    +0.000 A 
ATOM      3  C   UNL     1       2.289   8.593  17.588  0.00  0.00    +0.000 A 
ATOM      4  C   UNL     1       1.607   9.578  18.305  0.00  0.00    +0.000 A 
ATOM      5  C   UNL     1       1.260   9.348  19.640  0.00  0.00    +0.000 A 
ATOM      6  C   UNL     1       1.606   8.113  20.228  0.00  0.00    +0.000 A 
ENDROOT
BRANCH   5   7
ATOM      7  C   UNL     1       0.543  10.312  20.475  0.00  0.00    +0.000 A 
ATOM      8  N   UNL     1       0.812  11.606  20.488  0.00  0.00    +0.000 NA
ATOM      9  C   UNL     1       0.011  12.161  21.438  0.00  0.00    +0.000 A 
ATOM     10  C   UNL     1      -0.046  13.490  21.871  0.00  0.00    +0.000 A 
ATOM     11  C   UNL     1      -0.921  13.814  22.910  0.00  0.00    +0.000 A 
ATOM     12  C   UNL     1      -1.734  12.834  23.488  0.00  0.00    +0.000 A 
ATOM     13  C   UNL     1      -1.709  11.503  23.043  0.00  0.00    +0.000 A 
ATOM     14  C   UNL     1      -0.812  11.204  22.016  0.00  0.00    +0.000 A 
ATOM     15  N   UNL     1      -0.490  10.042  21.352  0.00  0.00    +0.000 N 
ATOM     16  H   UNL     1      -0.909   9.141  21.509  0.00  0.00    +0.000 HD
ENDBRANCH   5   7
BRANCH   1  19
ATOM     17  C   UNL     1       2.026   4.745  20.130  0.00  0.00    +0.000 C 
ATOM     18  O   UNL     1       1.080   4.500  19.384  0.00  0.00    +0.000 OA
ATOM     19  N   UNL     1       2.673   5.961  20.229  0.00  0.00    +0.000 N 
ATOM     20  H   UNL     1       3.523   5.974  20.782  0.00  0.00    +0.000 HD
BRANCH  17  22
ATOM     21  C   UNL     1       1.433   2.772  21.530  0.00  0.00    +0.000 C 
ATOM     22  C   UNL     1       2.594   3.617  21.013  0.00  0.00    +0.000 C 
BRANCH  22  23
ATOM     23  O   UNL     1       3.541   2.786  20.340  0.00  0.00    +0.000 OA
BRANCH  23  24
ATOM     24  C   UNL     1       4.127   3.291  19.206  0.00  0.00    +0.000 A 
ATOM     25  C   UNL     1       5.256   4.090  19.416  0.00  0.00    +0.000 A 
ATOM     26  C   UNL     1       5.948   4.645  18.334  0.00  0.00    +0.000 A 
ATOM     27  C   UNL     1       5.523   4.395  17.031  0.00  0.00    +0.000 A 
ATOM     28  C   UNL     1       4.413   3.589  16.813  0.00  0.00    +0.000 A 
ATOM     29  C   UNL     1       3.720   3.035  17.893  0.00  0.00    +0.000 A 
ENDBRANCH  23  24
ENDBRANCH  22  23
ENDBRANCH  17  22
ENDBRANCH   1  19
TORSDOF 5
ENDMDL
MODEL 9
REMARK VINA RESULT:      -8.2      7.735     10.624
REMARK  Name = 
REMARK  6 active torsions:
REMARK  status: ('A' for Active; 'I' for Inactive)
REMARK    1  A    between atoms: C_1  and  C_2
REMARK    2  A    between atoms: C_2  and  O_3
REMARK    3  A    between atoms: C_2  and  C_10
REMARK    4  A    between atoms: O_3  and  C_4
REMARK    5  A    between atoms: N_12  and  C_13
REMARK    6  A    between atoms: C_17  and  C_18
REMARK                            x       y       z     vdW  Elec       q    Type
REMARK                         _______ _______ _______ _____ _____    ______ ____
ROOT
ATOM      1  C   UNL     1       0.589  10.510  19.808  0.00  0.00    +0.000 A 
ATOM      2  C   UNL     1       1.296  11.505  20.484  0.00  0.00    +0.000 A 
ATOM      3  C   UNL     1       0.678  12.712  20.832  0.00  0.00    +0.000 A 
ATOM      4  C   UNL     1      -0.662  12.939  20.516  0.00  0.00    +0.000 A 
ATOM      5  C   UNL     1      -1.388  11.962  19.828  0.00  0.00    +0.000 A 
ATOM      6  C   UNL     1      -0.737  10.763  19.464  0.00  0.00    +0.000 A 
ENDROOT
BRANCH   5   7
ATOM      7  C   UNL     1      -2.794  12.103  19.448  0.00  0.00    +0.000 A 
ATOM      8  N   UNL     1      -3.746  12.452  20.296  0.00  0.00    +0.000 NA
ATOM      9  C   UNL     1      -4.919  12.395  19.608  0.00  0.00    +0.000 A 
ATOM     10  C   UNL     1      -6.220  12.622  20.072  0.00  0.00    +0.000 A 
ATOM     11  C   UNL     1      -7.282  12.448  19.183  0.00  0.00    +0.000 A 
ATOM     12  C   UNL     1      -7.046  12.077  17.855  0.00  0.00    +0.000 A 
ATOM     13  C   UNL     1      -5.745  11.876  17.368  0.00  0.00    +0.000 A 
ATOM     14  C   UNL     1      -4.704  12.038  18.285  0.00  0.00    +0.000 A 
ATOM     15  N   UNL     1      -3.337  11.905  18.193  0.00  0.00    +0.000 N 
ATOM     16  H   UNL     1      -2.825  11.664  17.361  0.00  0.00    +0.000 HD
ENDBRANCH   5   7
BRANCH   1  19
ATOM     17  C   UNL     1       1.871   8.994  18.314  0.00  0.00    +0.000 C 
ATOM     18  O   UNL     1       2.201   9.827  17.472  0.00  0.00    +0.000 OA
ATOM     19  N   UNL     1       1.134   9.257  19.452  0.00  0.00    +0.000 N 
ATOM     20  H   UNL     1       1.059   8.500  20.123  0.00  0.00    +0.000 HD
BRANCH  17  22
ATOM     21  C   UNL     1       3.685   7.530  17.437  0.00  0.00    +0.000 C 
ATOM     22  C   UNL     1       2.332   7.534  18.145  0.00  0.00    +0.000 C 
BRANCH  22  23
ATOM     23  O   UNL     1       2.426   6.818  19.377  0.00  0.00    +0.000 OA
BRANCH  23  24
ATOM     24  C   UNL     1       2.012   5.508  19.377  0.00  0.00    +0.000 A 
ATOM     25  C   UNL     1       1.660   4.987  20.626  0.00  0.00    +0.000 A 
ATOM     26  C   UNL     1       1.206   3.669  20.747  0.00  0.00    +0.000 A 
ATOM     27  C   UNL     1       1.090   2.864  19.615  0.00  0.00    +0.000 A 
ATOM     28  C   UNL     1       1.422   3.379  18.369  0.00  0.00    +0.000 A 
ATOM     29  C   UNL     1       1.876   4.696  18.247  0.00  0.00    +0.000 A 
ENDBRANCH  23  24
ENDBRANCH  22  23
ENDBRANCH  17  22
ENDBRANCH   1  19
TORSDOF 5
ENDMDL
