MODEL 1
REMARK VINA RESULT:      -6.4      0.000      0.000
REMARK  Name = 
REMARK  5 active torsions:
REMARK  status: ('A' for Active; 'I' for Inactive)
REMARK    1  A    between atoms: C_1  and  C_2
REMARK    2  A    between atoms: C_2  and  O_3
REMARK    3  A    between atoms: O_3  and  C_4
REMARK    4  A    between atoms: N_6  and  C_7
REMARK    5  A    between atoms: C_14  and  O_15
REMARK                            x       y       z     vdW  Elec       q    Type
REMARK                         _______ _______ _______ _____ _____    ______ ____
ROOT
ATOM      1  C   UNL     1       5.287   6.277  16.277  0.00  0.00    +0.000 C 
ATOM      2  C   UNL     1       6.063   7.478  16.902  0.00  0.00    +0.000 C 
ATOM      3  N   UNL     1       7.462   7.250  17.337  0.00  0.00    +0.000 NA
ATOM      4  C   UNL     1       8.066   8.520  17.750  0.00  0.00    +0.000 C 
ATOM      5  C   UNL     1       7.599   6.263  18.420  0.00  0.00    +0.000 C 
ATOM      6  C   UNL     1       7.171   4.833  18.059  0.00  0.00    +0.000 C 
ATOM      7  C   UNL     1       5.679   4.641  18.196  0.00  0.00    +0.000 A 
ATOM      8  C   UNL     1       5.175   3.792  19.195  0.00  0.00    +0.000 A 
ATOM      9  C   UNL     1       3.802   3.651  19.373  0.00  0.00    +0.000 A 
ATOM     10 CL   UNL     1       3.205   2.633  20.629  0.00  0.00    +0.000 Cl
ATOM     11  C   UNL     1       2.919   4.352  18.553  0.00  0.00    +0.000 A 
ATOM     12  C   UNL     1       3.401   5.184  17.550  0.00  0.00    +0.000 A 
ATOM     13  C   UNL     1       4.785   5.341  17.363  0.00  0.00    +0.000 A 
ENDROOT
BRANCH  11  14
ATOM     14  O   UNL     1       1.563   4.263  18.698  0.00  0.00    +0.000 OA
ATOM     15  H   UNL     1       1.238   3.673  17.994  0.00  0.00    +0.000 HD
ENDBRANCH  11  14
BRANCH   1  16
ATOM     16  O   UNL     1       6.106   5.615  15.301  0.00  0.00    +0.000 OA
BRANCH  16  18
ATOM     17  C   UNL     1       6.417   3.989  13.588  0.00  0.00    +0.000 C 
ATOM     18  C   UNL     1       5.475   4.514  14.654  0.00  0.00    +0.000 C 
ENDBRANCH  16  18
ENDBRANCH   1  16
TORSDOF 3
ENDMDL
MODEL 2
REMARK VINA RESULT:      -6.4      1.127      1.214
REMARK  Name = 
REMARK  5 active torsions:
REMARK  status: ('A' for Active; 'I' for Inactive)
REMARK    1  A    between atoms: C_1  and  C_2
REMARK    2  A    between atoms: C_2  and  O_3
REMARK    3  A    between atoms: O_3  and  C_4
REMARK    4  A    between atoms: N_6  and  C_7
REMARK    5  A    between atoms: C_14  and  O_15
REMARK                            x       y       z     vdW  Elec       q    Type
REMARK                         _______ _______ _______ _____ _____    ______ ____
ROOT
ATOM      1  C   UNL     1       5.132   4.827  16.063  0.00  0.00    +0.000 C 
ATOM      2  C   UNL     1       5.653   6.255  16.414  0.00  0.00    +0.000 C 
ATOM      3  N   UNL     1       6.869   6.364  17.255  0.00  0.00    +0.000 NA
ATOM      4  C   UNL     1       7.286   7.767  17.346  0.00  0.00    +0.000 C 
ATOM      5  C   UNL     1       6.713   5.808  18.609  0.00  0.00    +0.000 C 
ATOM      6  C   UNL     1       6.454   4.295  18.667  0.00  0.00    +0.000 C 
ATOM      7  C   UNL     1       4.995   3.965  18.462  0.00  0.00    +0.000 A 
ATOM      8  C   UNL     1       4.247   3.428  19.522  0.00  0.00    +0.000 A 
ATOM      9  C   UNL     1       2.886   3.176  19.368  0.00  0.00    +0.000 A 
ATOM     10 CL   UNL     1       1.980   2.550  20.693  0.00  0.00    +0.000 Cl
ATOM     11  C   UNL     1       2.262   3.452  18.153  0.00  0.00    +0.000 A 
ATOM     12  C   UNL     1       2.990   3.971  17.089  0.00  0.00    +0.000 A 
ATOM     13  C   UNL     1       4.363   4.236  17.233  0.00  0.00    +0.000 A 
ENDROOT
BRANCH  11  14
ATOM     14  O   UNL     1       0.926   3.240  17.955  0.00  0.00    +0.000 OA
ATOM     15  H   UNL     1       0.796   2.277  17.884  0.00  0.00    +0.000 HD
ENDBRANCH  11  14
BRANCH   1  16
ATOM     16  O   UNL     1       6.221   3.998  15.632  0.00  0.00    +0.000 OA
BRANCH  16  18
ATOM     17  C   UNL     1       5.862   3.680  13.298  0.00  0.00    +0.000 C 
ATOM     18  C   UNL     1       6.741   4.332  14.349  0.00  0.00    +0.000 C 
ENDBRANCH  16  18
ENDBRANCH   1  16
TORSDOF 3
ENDMDL
MODEL 3
REMARK VINA RESULT:      -6.2      1.722      3.393
REMARK  Name = 
REMARK  5 active torsions:
REMARK  status: ('A' for Active; 'I' for Inactive)
REMARK    1  A    between atoms: C_1  and  C_2
REMARK    2  A    between atoms: C_2  and  O_3
REMARK    3  A    between atoms: O_3  and  C_4
REMARK    4  A    between atoms: N_6  and  C_7
REMARK    5  A    between atoms: C_14  and  O_15
REMARK                            x       y       z     vdW  Elec       q    Type
REMARK                         _______ _______ _______ _____ _____    ______ ____
ROOT
ATOM      1  C   UNL     1       6.558   5.080  18.242  0.00  0.00    +0.000 C 
ATOM      2  C   UNL     1       7.080   4.664  16.832  0.00  0.00    +0.000 C 
ATOM      3  N   UNL     1       6.662   5.480  15.667  0.00  0.00    +0.000 NA
ATOM      4  C   UNL     1       7.371   5.029  14.465  0.00  0.00    +0.000 C 
ATOM      5  C   UNL     1       5.212   5.470  15.418  0.00  0.00    +0.000 C 
ATOM      6  C   UNL     1       4.353   6.091  16.530  0.00  0.00    +0.000 C 
ATOM      7  C   UNL     1       4.077   5.108  17.643  0.00  0.00    +0.000 A 
ATOM      8  C   UNL     1       2.768   4.643  17.852  0.00  0.00    +0.000 A 
ATOM      9  C   UNL     1       2.507   3.691  18.834  0.00  0.00    +0.000 A 
ATOM     10 CL   UNL     1       0.899   3.109  19.050  0.00  0.00    +0.000 Cl
ATOM     11  C   UNL     1       3.548   3.198  19.618  0.00  0.00    +0.000 A 
ATOM     12  C   UNL     1       4.847   3.657  19.433  0.00  0.00    +0.000 A 
ATOM     13  C   UNL     1       5.126   4.614  18.442  0.00  0.00    +0.000 A 
ENDROOT
BRANCH  11  14
ATOM     14  O   UNL     1       3.348   2.250  20.582  0.00  0.00    +0.000 OA
ATOM     15  H   UNL     1       4.156   1.705  20.619  0.00  0.00    +0.000 HD
ENDBRANCH  11  14
BRANCH   1  16
ATOM     16  O   UNL     1       6.717   6.495  18.428  0.00  0.00    +0.000 OA
BRANCH  16  18
ATOM     17  C   UNL     1       8.113   8.338  17.854  0.00  0.00    +0.000 C 
ATOM     18  C   UNL     1       8.071   6.937  18.435  0.00  0.00    +0.000 C 
ENDBRANCH  16  18
ENDBRANCH   1  16
TORSDOF 3
ENDMDL
MODEL 4
REMARK VINA RESULT:      -6.1      1.648      3.563
REMARK  Name = 
REMARK  5 active torsions:
REMARK  status: ('A' for Active; 'I' for Inactive)
REMARK    1  A    between atoms: C_1  and  C_2
REMARK    2  A    between atoms: C_2  and  O_3
REMARK    3  A    between atoms: O_3  and  C_4
REMARK    4  A    between atoms: N_6  and  C_7
REMARK    5  A    between atoms: C_14  and  O_15
REMARK                            x       y       z     vdW  Elec       q    Type
REMARK                         _______ _______ _______ _____ _____    ______ ____
ROOT
ATOM      1  C   UNL     1       7.095   4.661  17.257  0.00  0.00    +0.000 C 
ATOM      2  C   UNL     1       7.064   4.151  15.782  0.00  0.00    +0.000 C 
ATOM      3  N   UNL     1       6.697   5.117  14.720  0.00  0.00    +0.000 NA
ATOM      4  C   UNL     1       6.874   4.497  13.403  0.00  0.00    +0.000 C 
ATOM      5  C   UNL     1       5.329   5.645  14.837  0.00  0.00    +0.000 C 
ATOM      6  C   UNL     1       5.057   6.482  16.096  0.00  0.00    +0.000 C 
ATOM      7  C   UNL     1       4.727   5.614  17.288  0.00  0.00    +0.000 A 
ATOM      8  C   UNL     1       3.435   5.647  17.836  0.00  0.00    +0.000 A 
ATOM      9  C   UNL     1       3.097   4.809  18.895  0.00  0.00    +0.000 A 
ATOM     10 CL   UNL     1       1.494   4.840  19.529  0.00  0.00    +0.000 Cl
ATOM     11  C   UNL     1       4.047   3.936  19.421  0.00  0.00    +0.000 A 
ATOM     12  C   UNL     1       5.335   3.901  18.899  0.00  0.00    +0.000 A 
ATOM     13  C   UNL     1       5.688   4.737  17.826  0.00  0.00    +0.000 A 
ENDROOT
BRANCH  11  14
ATOM     14  O   UNL     1       3.762   3.080  20.448  0.00  0.00    +0.000 OA
ATOM     15  H   UNL     1       2.795   2.962  20.461  0.00  0.00    +0.000 HD
ENDBRANCH  11  14
BRANCH   1  16
ATOM     16  O   UNL     1       7.797   5.911  17.331  0.00  0.00    +0.000 OA
BRANCH  16  18
ATOM     17  C   UNL     1       8.224   7.937  18.509  0.00  0.00    +0.000 C 
ATOM     18  C   UNL     1       7.866   6.469  18.639  0.00  0.00    +0.000 C 
ENDBRANCH  16  18
ENDBRANCH   1  16
TORSDOF 3
ENDMDL
MODEL 5
REMARK VINA RESULT:      -6.0      2.238      3.861
REMARK  Name = 
REMARK  5 active torsions:
REMARK  status: ('A' for Active; 'I' for Inactive)
REMARK    1  A    between atoms: C_1  and  C_2
REMARK    2  A    between atoms: C_2  and  O_3
REMARK    3  A    between atoms: O_3  and  C_4
REMARK    4  A    between atoms: N_6  and  C_7
REMARK    5  A    between atoms: C_14  and  O_15
REMARK                            x       y       z     vdW  Elec       q    Type
REMARK                         _______ _______ _______ _____ _____    ______ ____
ROOT
ATOM      1  C   UNL     1       6.283   4.502  17.726  0.00  0.00    +0.000 C 
ATOM      2  C   UNL     1       6.008   3.825  16.347  0.00  0.00    +0.000 C 
ATOM      3  N   UNL     1       6.191   4.641  15.124  0.00  0.00    +0.000 NA
ATOM      4  C   UNL     1       6.037   3.796  13.935  0.00  0.00    +0.000 C 
ATOM      5  C   UNL     1       5.279   5.793  15.031  0.00  0.00    +0.000 C 
ATOM      6  C   UNL     1       5.460   6.860  16.121  0.00  0.00    +0.000 C 
ATOM      7  C   UNL     1       4.727   6.497  17.390  0.00  0.00    +0.000 A 
ATOM      8  C   UNL     1       3.626   7.266  17.802  0.00  0.00    +0.000 A 
ATOM      9  C   UNL     1       2.902   6.909  18.936  0.00  0.00    +0.000 A 
ATOM     10 CL   UNL     1       1.532   7.846  19.402  0.00  0.00    +0.000 Cl
ATOM     11  C   UNL     1       3.274   5.786  19.673  0.00  0.00    +0.000 A 
ATOM     12  C   UNL     1       4.369   5.023  19.288  0.00  0.00    +0.000 A 
ATOM     13  C   UNL     1       5.105   5.368  18.141  0.00  0.00    +0.000 A 
ENDROOT
BRANCH  11  14
ATOM     14  O   UNL     1       2.586   5.382  20.783  0.00  0.00    +0.000 OA
ATOM     15  H   UNL     1       1.654   5.636  20.650  0.00  0.00    +0.000 HD
ENDBRANCH  11  14
BRANCH   1  16
ATOM     16  O   UNL     1       7.522   5.226  17.682  0.00  0.00    +0.000 OA
BRANCH  16  18
ATOM     17  C   UNL     1       8.188   7.351  18.526  0.00  0.00    +0.000 C 
ATOM     18  C   UNL     1       7.841   5.919  18.884  0.00  0.00    +0.000 C 
ENDBRANCH  16  18
ENDBRANCH   1  16
TORSDOF 3
ENDMDL
MODEL 6
REMARK VINA RESULT:      -5.9      3.068      5.123
REMARK  Name = 
REMARK  5 active torsions:
REMARK  status: ('A' for Active; 'I' for Inactive)
REMARK    1  A    between atoms: C_1  and  C_2
REMARK    2  A    between atoms: C_2  and  O_3
REMARK    3  A    between atoms: O_3  and  C_4
REMARK    4  A    between atoms: N_6  and  C_7
REMARK    5  A    between atoms: C_14  and  O_15
REMARK                            x       y       z     vdW  Elec       q    Type
REMARK                         _______ _______ _______ _____ _____    ______ ____
ROOT
ATOM      1  C   UNL     1       6.146   5.895  17.661  0.00  0.00    +0.000 C 
ATOM      2  C   UNL     1       4.733   6.508  17.915  0.00  0.00    +0.000 C 
ATOM      3  N   UNL     1       3.657   5.604  18.383  0.00  0.00    +0.000 NA
ATOM      4  C   UNL     1       2.459   6.385  18.709  0.00  0.00    +0.000 C 
ATOM      5  C   UNL     1       3.308   4.542  17.426  0.00  0.00    +0.000 C 
ATOM      6  C   UNL     1       4.427   3.532  17.133  0.00  0.00    +0.000 C 
ATOM      7  C   UNL     1       5.383   4.042  16.080  0.00  0.00    +0.000 A 
ATOM      8  C   UNL     1       5.440   3.410  14.828  0.00  0.00    +0.000 A 
ATOM      9  C   UNL     1       6.271   3.904  13.825  0.00  0.00    +0.000 A 
ATOM     10 CL   UNL     1       6.297   3.135  12.284  0.00  0.00    +0.000 Cl
ATOM     11  C   UNL     1       7.056   5.030  14.067  0.00  0.00    +0.000 A 
ATOM     12  C   UNL     1       7.023   5.659  15.306  0.00  0.00    +0.000 A 
ATOM     13  C   UNL     1       6.184   5.174  16.324  0.00  0.00    +0.000 A 
ENDROOT
BRANCH  11  14
ATOM     14  O   UNL     1       7.874   5.566  13.113  0.00  0.00    +0.000 OA
ATOM     15  H   UNL     1       8.104   4.847  12.496  0.00  0.00    +0.000 HD
ENDBRANCH  11  14
BRANCH   1  16
ATOM     16  O   UNL     1       6.522   5.054  18.762  0.00  0.00    +0.000 OA
BRANCH  16  18
ATOM     17  C   UNL     1       8.178   6.766  18.812  0.00  0.00    +0.000 C 
ATOM     18  C   UNL     1       7.681   5.490  19.466  0.00  0.00    +0.000 C 
ENDBRANCH  16  18
ENDBRANCH   1  16
TORSDOF 3
ENDMDL
MODEL 7
REMARK VINA RESULT:      -5.9      3.259      5.433
REMARK  Name = 
REMARK  5 active torsions:
REMARK  status: ('A' for Active; 'I' for Inactive)
REMARK    1  A    between atoms: C_1  and  C_2
REMARK    2  A    between atoms: C_2  and  O_3
REMARK    3  A    between atoms: O_3  and  C_4
REMARK    4  A    between atoms: N_6  and  C_7
REMARK    5  A    between atoms: C_14  and  O_15
REMARK                            x       y       z     vdW  Elec       q    Type
REMARK                         _______ _______ _______ _____ _____    ______ ____
ROOT
ATOM      1  C   UNL     1       2.542   4.890  19.777  0.00  0.00    +0.000 C 
ATOM      2  C   UNL     1       2.175   6.022  20.786  0.00  0.00    +0.000 C 
ATOM      3  N   UNL     1       1.416   7.188  20.276  0.00  0.00    +0.000 NA
ATOM      4  C   UNL     1       1.037   8.060  21.393  0.00  0.00    +0.000 C 
ATOM      5  C   UNL     1       2.135   7.973  19.260  0.00  0.00    +0.000 C 
ATOM      6  C   UNL     1       2.435   7.228  17.951  0.00  0.00    +0.000 C 
ATOM      7  C   UNL     1       3.685   6.387  18.056  0.00  0.00    +0.000 A 
ATOM      8  C   UNL     1       4.820   6.731  17.304  0.00  0.00    +0.000 A 
ATOM      9  C   UNL     1       6.000   6.004  17.435  0.00  0.00    +0.000 A 
ATOM     10 CL   UNL     1       7.392   6.466  16.529  0.00  0.00    +0.000 Cl
ATOM     11  C   UNL     1       6.056   4.923  18.313  0.00  0.00    +0.000 A 
ATOM     12  C   UNL     1       4.938   4.561  19.055  0.00  0.00    +0.000 A 
ATOM     13  C   UNL     1       3.742   5.290  18.936  0.00  0.00    +0.000 A 
ENDROOT
BRANCH  11  14
ATOM     14  O   UNL     1       7.194   4.188  18.493  0.00  0.00    +0.000 OA
ATOM     15  H   UNL     1       7.941   4.741  18.198  0.00  0.00    +0.000 HD
ENDBRANCH  11  14
BRANCH   1  16
ATOM     16  O   UNL     1       1.395   4.544  18.986  0.00  0.00    +0.000 OA
BRANCH  16  18
ATOM     17  C   UNL     1       1.561   2.497  20.193  0.00  0.00    +0.000 C 
ATOM     18  C   UNL     1       1.152   3.144  18.884  0.00  0.00    +0.000 C 
ENDBRANCH  16  18
ENDBRANCH   1  16
TORSDOF 3
ENDMDL
MODEL 8
REMARK VINA RESULT:      -5.7      3.101      5.672
REMARK  Name = 
REMARK  5 active torsions:
REMARK  status: ('A' for Active; 'I' for Inactive)
REMARK    1  A    between atoms: C_1  and  C_2
REMARK    2  A    between atoms: C_2  and  O_3
REMARK    3  A    between atoms: O_3  and  C_4
REMARK    4  A    between atoms: N_6  and  C_7
REMARK    5  A    between atoms: C_14  and  O_15
REMARK                            x       y       z     vdW  Elec       q    Type
REMARK                         _______ _______ _______ _____ _____    ______ ____
ROOT
ATOM      1  C   UNL     1       2.447   5.448  18.767  0.00  0.00    +0.000 C 
ATOM      2  C   UNL     1       1.475   4.251  18.526  0.00  0.00    +0.000 C 
ATOM      3  N   UNL     1       1.763   2.972  19.217  0.00  0.00    +0.000 NA
ATOM      4  C   UNL     1       0.665   2.027  18.989  0.00  0.00    +0.000 C 
ATOM      5  C   UNL     1       3.038   2.351  18.821  0.00  0.00    +0.000 C 
ATOM      6  C   UNL     1       4.295   3.160  19.173  0.00  0.00    +0.000 C 
ATOM      7  C   UNL     1       4.593   4.217  18.137  0.00  0.00    +0.000 A 
ATOM      8  C   UNL     1       5.740   4.103  17.336  0.00  0.00    +0.000 A 
ATOM      9  C   UNL     1       5.997   5.035  16.334  0.00  0.00    +0.000 A 
ATOM     10 CL   UNL     1       7.393   4.855  15.339  0.00  0.00    +0.000 Cl
ATOM     11  C   UNL     1       5.114   6.093  16.128  0.00  0.00    +0.000 A 
ATOM     12  C   UNL     1       3.981   6.230  16.921  0.00  0.00    +0.000 A 
ATOM     13  C   UNL     1       3.706   5.292  17.931  0.00  0.00    +0.000 A 
ENDROOT
BRANCH  11  14
ATOM     14  O   UNL     1       5.310   7.025  15.147  0.00  0.00    +0.000 OA
ATOM     15  H   UNL     1       5.249   7.902  15.569  0.00  0.00    +0.000 HD
ENDBRANCH  11  14
BRANCH   1  16
ATOM     16  O   UNL     1       2.720   5.586  20.170  0.00  0.00    +0.000 OA
BRANCH  16  18
ATOM     17  C   UNL     1       1.737   7.745  20.389  0.00  0.00    +0.000 C 
ATOM     18  C   UNL     1       1.731   6.313  20.892  0.00  0.00    +0.000 C 
ENDBRANCH  16  18
ENDBRANCH   1  16
TORSDOF 3
ENDMDL
MODEL 9
REMARK VINA RESULT:      -5.7      3.084      5.516
REMARK  Name = 
REMARK  5 active torsions:
REMARK  status: ('A' for Active; 'I' for Inactive)
REMARK    1  A    between atoms: C_1  and  C_2
REMARK    2  A    between atoms: C_2  and  O_3
REMARK    3  A    between atoms: O_3  and  C_4
REMARK    4  A    between atoms: N_6  and  C_7
REMARK    5  A    between atoms: C_14  and  O_15
REMARK                            x       y       z     vdW  Elec       q    Type
REMARK                         _______ _______ _______ _____ _____    ______ ____
ROOT
ATOM      1  C   UNL     1       4.247   4.144  19.755  0.00  0.00    +0.000 C 
ATOM      2  C   UNL     1       3.537   5.476  20.151  0.00  0.00    +0.000 C 
ATOM      3  N   UNL     1       2.180   5.726  19.611  0.00  0.00    +0.000 NA
ATOM      4  C   UNL     1       1.623   6.942  20.213  0.00  0.00    +0.000 C 
ATOM      5  C   UNL     1       2.129   5.834  18.144  0.00  0.00    +0.000 C 
ATOM      6  C   UNL     1       2.512   4.557  17.381  0.00  0.00    +0.000 C 
ATOM      7  C   UNL     1       4.009   4.422  17.229  0.00  0.00    +0.000 A 
ATOM      8  C   UNL     1       4.590   4.521  15.955  0.00  0.00    +0.000 A 
ATOM      9  C   UNL     1       5.973   4.459  15.804  0.00  0.00    +0.000 A 
ATOM     10 CL   UNL     1       6.667   4.619  14.234  0.00  0.00    +0.000 Cl
ATOM     11  C   UNL     1       6.787   4.292  16.922  0.00  0.00    +0.000 A 
ATOM     12  C   UNL     1       6.227   4.178  18.189  0.00  0.00    +0.000 A 
ATOM     13  C   UNL     1       4.833   4.245  18.357  0.00  0.00    +0.000 A 
ENDROOT
BRANCH  11  14
ATOM     14  O   UNL     1       8.150   4.244  16.832  0.00  0.00    +0.000 OA
ATOM     15  H   UNL     1       8.395   4.651  15.981  0.00  0.00    +0.000 HD
ENDBRANCH  11  14
BRANCH   1  16
ATOM     16  O   UNL     1       3.342   3.040  19.904  0.00  0.00    +0.000 OA
BRANCH  16  18
ATOM     17  C   UNL     1       1.476   2.670  21.338  0.00  0.00    +0.000 C 
ATOM     18  C   UNL     1       2.988   2.749  21.253  0.00  0.00    +0.000 C 
ENDBRANCH  16  18
ENDBRANCH   1  16
TORSDOF 3
ENDMDL
