MODEL 1
REMARK VINA RESULT:      -7.3      0.000      0.000
REMARK  Name = 
REMARK  9 active torsions:
REMARK  status: ('A' for Active; 'I' for Inactive)
REMARK    1  A    between atoms: C_1  and  O_2
REMARK    2  A    between atoms: O_2  and  C_3
REMARK    3  A    between atoms: C_8  and  N_9
REMARK    4  A    between atoms: C_10  and  S_11
REMARK    5  A    between atoms: C_14  and  C_15
REMARK    6  A    between atoms: C_15  and  C_16
REMARK    7  A    between atoms: C_16  and  N_17
REMARK    8  A    between atoms: C_19  and  C_20
REMARK    9  A    between atoms: C_23  and  C_24
REMARK                            x       y       z     vdW  Elec       q    Type
REMARK                         _______ _______ _______ _____ _____    ______ ____
ROOT
ATOM      1  N   UNL     1       3.707   3.990  18.233  0.00  0.00    +0.000 N 
ATOM      2  C   UNL     1       3.307   2.836  18.908  0.00  0.00    +0.000 A 
ATOM      3  N   UNL     1       2.245   3.072  19.643  0.00  0.00    +0.000 NA
ATOM      4  N   UNL     1       1.864   4.355  19.439  0.00  0.00    +0.000 NA
ATOM      5  C   UNL     1       2.689   4.913  18.574  0.00  0.00    +0.000 A 
ENDROOT
BRANCH   1  11
ATOM      6  C   UNL     1       6.118   4.622  17.839  0.00  0.00    +0.000 A 
ATOM      7  C   UNL     1       7.135   4.894  16.901  0.00  0.00    +0.000 A 
ATOM      8  C   UNL     1       6.910   4.788  15.532  0.00  0.00    +0.000 A 
ATOM      9  C   UNL     1       5.672   4.370  15.074  0.00  0.00    +0.000 A 
ATOM     10  C   UNL     1       4.662   4.066  15.986  0.00  0.00    +0.000 A 
ATOM     11  C   UNL     1       4.844   4.218  17.378  0.00  0.00    +0.000 A 
BRANCH   6  13
ATOM     12  C   UNL     1       7.421   5.608  19.596  0.00  0.00    +0.000 C 
ATOM     13  O   UNL     1       6.320   4.793  19.184  0.00  0.00    +0.000 OA
ENDBRANCH   6  13
ENDBRANCH   1  11
BRANCH   2  14
ATOM     14  S   UNL     1       3.850   1.206  18.651  0.00  0.00    +0.000 S 
ATOM     15  H   UNL     1       2.845   0.554  19.241  0.00  0.00    +0.000 HD
ENDBRANCH   2  14
BRANCH   5  16
ATOM     16  C   UNL     1       2.541   6.347  18.136  0.00  0.00    +0.000 C 
BRANCH  16  17
ATOM     17  C   UNL     1       2.875   7.320  19.280  0.00  0.00    +0.000 C 
BRANCH  17  18
ATOM     18  N   UNL     1       1.769   8.124  19.787  0.00  0.00    +0.000 N 
ATOM     19  N   UNL     1       1.249   7.885  21.013  0.00  0.00    +0.000 NA
ATOM     20  C   UNL     1       0.388   8.898  21.213  0.00  0.00    +0.000 A 
ATOM     21  C   UNL     1      -0.359   9.026  22.490  0.00  0.00    +0.000 C 
ATOM     22  C   UNL     1       0.354   9.759  20.098  0.00  0.00    +0.000 A 
ATOM     23 BR   UNL     1      -0.688  11.310  19.957  0.00  0.00    +0.000 Br
ATOM     24  C   UNL     1       1.260   9.260  19.193  0.00  0.00    +0.000 A 
ATOM     25  C   UNL     1       1.713   9.764  17.874  0.00  0.00    +0.000 C 
ENDBRANCH  17  18
ENDBRANCH  16  17
ENDBRANCH   5  16
TORSDOF 6
ENDMDL
MODEL 2
REMARK VINA RESULT:      -7.2      0.974      1.926
REMARK  Name = 
REMARK  9 active torsions:
REMARK  status: ('A' for Active; 'I' for Inactive)
REMARK    1  A    between atoms: C_1  and  O_2
REMARK    2  A    between atoms: O_2  and  C_3
REMARK    3  A    between atoms: C_8  and  N_9
REMARK    4  A    between atoms: C_10  and  S_11
REMARK    5  A    between atoms: C_14  and  C_15
REMARK    6  A    between atoms: C_15  and  C_16
REMARK    7  A    between atoms: C_16  and  N_17
REMARK    8  A    between atoms: C_19  and  C_20
REMARK    9  A    between atoms: C_23  and  C_24
REMARK                            x       y       z     vdW  Elec       q    Type
REMARK                         _______ _______ _______ _____ _____    ______ ____
ROOT
ATOM      1  N   UNL     1       3.565   4.142  18.414  0.00  0.00    +0.000 N 
ATOM      2  C   UNL     1       3.050   2.867  18.654  0.00  0.00    +0.000 A 
ATOM      3  N   UNL     1       1.750   2.914  18.825  0.00  0.00    +0.000 NA
ATOM      4  N   UNL     1       1.344   4.193  18.644  0.00  0.00    +0.000 NA
ATOM      5  C   UNL     1       2.395   4.938  18.357  0.00  0.00    +0.000 A 
ENDROOT
BRANCH   1  11
ATOM      6  C   UNL     1       5.647   4.467  17.027  0.00  0.00    +0.000 A 
ATOM      7  C   UNL     1       7.004   4.850  16.994  0.00  0.00    +0.000 A 
ATOM      8  C   UNL     1       7.654   5.318  18.132  0.00  0.00    +0.000 A 
ATOM      9  C   UNL     1       6.950   5.450  19.316  0.00  0.00    +0.000 A 
ATOM     10  C   UNL     1       5.599   5.106  19.361  0.00  0.00    +0.000 A 
ATOM     11  C   UNL     1       4.927   4.575  18.239  0.00  0.00    +0.000 A 
BRANCH   6  13
ATOM     12  C   UNL     1       5.649   4.133  14.650  0.00  0.00    +0.000 C 
ATOM     13  O   UNL     1       5.025   3.941  15.924  0.00  0.00    +0.000 OA
ENDBRANCH   6  13
ENDBRANCH   1  11
BRANCH   2  14
ATOM     14  S   UNL     1       3.854   1.338  18.463  0.00  0.00    +0.000 S 
ATOM     15  H   UNL     1       5.112   1.736  18.667  0.00  0.00    +0.000 HD
ENDBRANCH   2  14
BRANCH   5  16
ATOM     16  C   UNL     1       2.282   6.418  18.103  0.00  0.00    +0.000 C 
BRANCH  16  17
ATOM     17  C   UNL     1       2.667   7.232  19.350  0.00  0.00    +0.000 C 
BRANCH  17  18
ATOM     18  N   UNL     1       1.644   8.129  19.877  0.00  0.00    +0.000 N 
ATOM     19  N   UNL     1       1.114   7.924  21.105  0.00  0.00    +0.000 NA
ATOM     20  C   UNL     1       0.351   9.009  21.323  0.00  0.00    +0.000 A 
ATOM     21  C   UNL     1      -0.370   9.190  22.608  0.00  0.00    +0.000 C 
ATOM     22  C   UNL     1       0.388   9.883  20.219  0.00  0.00    +0.000 A 
ATOM     23 BR   UNL     1      -0.507  11.525  20.105  0.00  0.00    +0.000 Br
ATOM     24  C   UNL     1       1.236   9.314  19.300  0.00  0.00    +0.000 A 
ATOM     25  C   UNL     1       1.724   9.790  17.983  0.00  0.00    +0.000 C 
ENDBRANCH  17  18
ENDBRANCH  16  17
ENDBRANCH   5  16
TORSDOF 6
ENDMDL
MODEL 3
REMARK VINA RESULT:      -7.0      1.143      1.837
REMARK  Name = 
REMARK  9 active torsions:
REMARK  status: ('A' for Active; 'I' for Inactive)
REMARK    1  A    between atoms: C_1  and  O_2
REMARK    2  A    between atoms: O_2  and  C_3
REMARK    3  A    between atoms: C_8  and  N_9
REMARK    4  A    between atoms: C_10  and  S_11
REMARK    5  A    between atoms: C_14  and  C_15
REMARK    6  A    between atoms: C_15  and  C_16
REMARK    7  A    between atoms: C_16  and  N_17
REMARK    8  A    between atoms: C_19  and  C_20
REMARK    9  A    between atoms: C_23  and  C_24
REMARK                            x       y       z     vdW  Elec       q    Type
REMARK                         _______ _______ _______ _____ _____    ______ ____
ROOT
ATOM      1  N   UNL     1       4.021   4.422  18.360  0.00  0.00    +0.000 N 
ATOM      2  C   UNL     1       3.452   3.338  19.032  0.00  0.00    +0.000 A 
ATOM      3  N   UNL     1       2.584   3.748  19.926  0.00  0.00    +0.000 NA
ATOM      4  N   UNL     1       2.492   5.097  19.842  0.00  0.00    +0.000 NA
ATOM      5  C   UNL     1       3.304   5.521  18.892  0.00  0.00    +0.000 A 
ENDROOT
BRANCH   1  11
ATOM      6  C   UNL     1       6.433   4.593  17.643  0.00  0.00    +0.000 A 
ATOM      7  C   UNL     1       7.350   4.694  16.575  0.00  0.00    +0.000 A 
ATOM      8  C   UNL     1       6.927   4.674  15.250  0.00  0.00    +0.000 A 
ATOM      9  C   UNL     1       5.583   4.513  14.965  0.00  0.00    +0.000 A 
ATOM     10  C   UNL     1       4.664   4.381  16.005  0.00  0.00    +0.000 A 
ATOM     11  C   UNL     1       5.056   4.454  17.359  0.00  0.00    +0.000 A 
BRANCH   6  13
ATOM     12  C   UNL     1       7.741   5.740  19.296  0.00  0.00    +0.000 C 
ATOM     13  O   UNL     1       6.842   4.682  18.948  0.00  0.00    +0.000 OA
ENDBRANCH   6  13
ENDBRANCH   1  11
BRANCH   2  14
ATOM     14  S   UNL     1       3.557   1.653  18.620  0.00  0.00    +0.000 S 
ATOM     15  H   UNL     1       2.302   1.460  18.205  0.00  0.00    +0.000 HD
ENDBRANCH   2  14
BRANCH   5  16
ATOM     16  C   UNL     1       3.441   6.981  18.550  0.00  0.00    +0.000 C 
BRANCH  16  17
ATOM     17  C   UNL     1       2.086   7.594  18.156  0.00  0.00    +0.000 C 
BRANCH  17  18
ATOM     18  N   UNL     1       1.745   8.865  18.785  0.00  0.00    +0.000 N 
ATOM     19  N   UNL     1       1.830  10.023  18.090  0.00  0.00    +0.000 NA
ATOM     20  C   UNL     1       1.292  10.943  18.908  0.00  0.00    +0.000 A 
ATOM     21  C   UNL     1       1.149  12.358  18.479  0.00  0.00    +0.000 C 
ATOM     22  C   UNL     1       0.889  10.361  20.126  0.00  0.00    +0.000 A 
ATOM     23 BR   UNL     1       0.068  11.271  21.543  0.00  0.00    +0.000 Br
ATOM     24  C   UNL     1       1.171   9.020  20.029  0.00  0.00    +0.000 A 
ATOM     25  C   UNL     1       0.915   7.891  20.956  0.00  0.00    +0.000 C 
ENDBRANCH  17  18
ENDBRANCH  16  17
ENDBRANCH   5  16
TORSDOF 6
ENDMDL
MODEL 4
REMARK VINA RESULT:      -6.9      2.168      3.484
REMARK  Name = 
REMARK  9 active torsions:
REMARK  status: ('A' for Active; 'I' for Inactive)
REMARK    1  A    between atoms: C_1  and  O_2
REMARK    2  A    between atoms: O_2  and  C_3
REMARK    3  A    between atoms: C_8  and  N_9
REMARK    4  A    between atoms: C_10  and  S_11
REMARK    5  A    between atoms: C_14  and  C_15
REMARK    6  A    between atoms: C_15  and  C_16
REMARK    7  A    between atoms: C_16  and  N_17
REMARK    8  A    between atoms: C_19  and  C_20
REMARK    9  A    between atoms: C_23  and  C_24
REMARK                            x       y       z     vdW  Elec       q    Type
REMARK                         _______ _______ _______ _____ _____    ______ ____
ROOT
ATOM      1  N   UNL     1       4.639   5.320  16.784  0.00  0.00    +0.000 N 
ATOM      2  C   UNL     1       5.284   5.068  15.572  0.00  0.00    +0.000 A 
ATOM      3  N   UNL     1       5.506   6.185  14.920  0.00  0.00    +0.000 NA
ATOM      4  N   UNL     1       5.082   7.216  15.690  0.00  0.00    +0.000 NA
ATOM      5  C   UNL     1       4.600   6.736  16.820  0.00  0.00    +0.000 A 
ENDROOT
BRANCH   1  11
ATOM      6  C   UNL     1       4.945   3.820  18.789  0.00  0.00    +0.000 A 
ATOM      7  C   UNL     1       4.369   2.874  19.663  0.00  0.00    +0.000 A 
ATOM      8  C   UNL     1       3.036   2.494  19.546  0.00  0.00    +0.000 A 
ATOM      9  C   UNL     1       2.240   3.082  18.577  0.00  0.00    +0.000 A 
ATOM     10  C   UNL     1       2.783   4.042  17.723  0.00  0.00    +0.000 A 
ATOM     11  C   UNL     1       4.145   4.406  17.781  0.00  0.00    +0.000 A 
BRANCH   6  13
ATOM     12  C   UNL     1       6.628   5.389  19.470  0.00  0.00    +0.000 C 
ATOM     13  O   UNL     1       6.275   4.144  18.860  0.00  0.00    +0.000 OA
ENDBRANCH   6  13
ENDBRANCH   1  11
BRANCH   2  14
ATOM     14  S   UNL     1       6.020   3.585  15.044  0.00  0.00    +0.000 S 
ATOM     15  H   UNL     1       6.242   3.904  13.766  0.00  0.00    +0.000 HD
ENDBRANCH   2  14
BRANCH   5  16
ATOM     16  C   UNL     1       4.041   7.629  17.896  0.00  0.00    +0.000 C 
BRANCH  16  17
ATOM     17  C   UNL     1       2.509   7.734  17.797  0.00  0.00    +0.000 C 
BRANCH  17  18
ATOM     18  N   UNL     1       1.849   8.540  18.818  0.00  0.00    +0.000 N 
ATOM     19  N   UNL     1       1.388   9.779  18.526  0.00  0.00    +0.000 NA
ATOM     20  C   UNL     1       0.707  10.148  19.624  0.00  0.00    +0.000 A 
ATOM     21  C   UNL     1      -0.008  11.448  19.680  0.00  0.00    +0.000 C 
ATOM     22  C   UNL     1       0.762   9.145  20.613  0.00  0.00    +0.000 A 
ATOM     23 BR   UNL     1      -0.069   9.229  22.290  0.00  0.00    +0.000 Br
ATOM     24  C   UNL     1       1.486   8.108  20.076  0.00  0.00    +0.000 A 
ATOM     25  C   UNL     1       1.821   6.764  20.605  0.00  0.00    +0.000 C 
ENDBRANCH  17  18
ENDBRANCH  16  17
ENDBRANCH   5  16
TORSDOF 6
ENDMDL
MODEL 5
REMARK VINA RESULT:      -6.7      1.379      2.560
REMARK  Name = 
REMARK  9 active torsions:
REMARK  status: ('A' for Active; 'I' for Inactive)
REMARK    1  A    between atoms: C_1  and  O_2
REMARK    2  A    between atoms: O_2  and  C_3
REMARK    3  A    between atoms: C_8  and  N_9
REMARK    4  A    between atoms: C_10  and  S_11
REMARK    5  A    between atoms: C_14  and  C_15
REMARK    6  A    between atoms: C_15  and  C_16
REMARK    7  A    between atoms: C_16  and  N_17
REMARK    8  A    between atoms: C_19  and  C_20
REMARK    9  A    between atoms: C_23  and  C_24
REMARK                            x       y       z     vdW  Elec       q    Type
REMARK                         _______ _______ _______ _____ _____    ______ ____
ROOT
ATOM      1  N   UNL     1       3.490   4.504  18.237  0.00  0.00    +0.000 N 
ATOM      2  C   UNL     1       2.901   3.244  18.357  0.00  0.00    +0.000 A 
ATOM      3  N   UNL     1       1.598   3.347  18.470  0.00  0.00    +0.000 NA
ATOM      4  N   UNL     1       1.265   4.656  18.364  0.00  0.00    +0.000 NA
ATOM      5  C   UNL     1       2.365   5.363  18.184  0.00  0.00    +0.000 A 
ENDROOT
BRANCH   1  11
ATOM      6  C   UNL     1       5.630   4.900  16.961  0.00  0.00    +0.000 A 
ATOM      7  C   UNL     1       7.006   5.203  17.017  0.00  0.00    +0.000 A 
ATOM      8  C   UNL     1       7.645   5.464  18.225  0.00  0.00    +0.000 A 
ATOM      9  C   UNL     1       6.911   5.466  19.399  0.00  0.00    +0.000 A 
ATOM     10  C   UNL     1       5.543   5.200  19.361  0.00  0.00    +0.000 A 
ATOM     11  C   UNL     1       4.879   4.876  18.158  0.00  0.00    +0.000 A 
BRANCH   6  13
ATOM     12  C   UNL     1       5.829   4.053  14.725  0.00  0.00    +0.000 C 
ATOM     13  O   UNL     1       5.016   4.576  15.779  0.00  0.00    +0.000 OA
ENDBRANCH   6  13
ENDBRANCH   1  11
BRANCH   2  14
ATOM     14  S   UNL     1       3.638   1.693  18.092  0.00  0.00    +0.000 S 
ATOM     15  H   UNL     1       4.788   2.097  17.546  0.00  0.00    +0.000 HD
ENDBRANCH   2  14
BRANCH   5  16
ATOM     16  C   UNL     1       2.338   6.861  18.034  0.00  0.00    +0.000 C 
BRANCH  16  17
ATOM     17  C   UNL     1       2.333   7.561  19.404  0.00  0.00    +0.000 C 
BRANCH  17  18
ATOM     18  N   UNL     1       1.456   8.720  19.534  0.00  0.00    +0.000 N 
ATOM     19  N   UNL     1       0.896   9.286  18.440  0.00  0.00    +0.000 NA
ATOM     20  C   UNL     1       0.039  10.194  18.938  0.00  0.00    +0.000 A 
ATOM     21  C   UNL     1      -0.824  11.003  18.041  0.00  0.00    +0.000 C 
ATOM     22  C   UNL     1       0.081  10.209  20.346  0.00  0.00    +0.000 A 
ATOM     23 BR   UNL     1      -0.966  11.302  21.450  0.00  0.00    +0.000 Br
ATOM     24  C   UNL     1       0.985   9.244  20.719  0.00  0.00    +0.000 A 
ATOM     25  C   UNL     1       1.403   8.750  22.054  0.00  0.00    +0.000 C 
ENDBRANCH  17  18
ENDBRANCH  16  17
ENDBRANCH   5  16
TORSDOF 6
ENDMDL
MODEL 6
REMARK VINA RESULT:      -6.6      1.674      2.346
REMARK  Name = 
REMARK  9 active torsions:
REMARK  status: ('A' for Active; 'I' for Inactive)
REMARK    1  A    between atoms: C_1  and  O_2
REMARK    2  A    between atoms: O_2  and  C_3
REMARK    3  A    between atoms: C_8  and  N_9
REMARK    4  A    between atoms: C_10  and  S_11
REMARK    5  A    between atoms: C_14  and  C_15
REMARK    6  A    between atoms: C_15  and  C_16
REMARK    7  A    between atoms: C_16  and  N_17
REMARK    8  A    between atoms: C_19  and  C_20
REMARK    9  A    between atoms: C_23  and  C_24
REMARK                            x       y       z     vdW  Elec       q    Type
REMARK                         _______ _______ _______ _____ _____    ______ ____
ROOT
ATOM      1  N   UNL     1       3.633   5.064  19.355  0.00  0.00    +0.000 N 
ATOM      2  C   UNL     1       3.440   3.800  19.916  0.00  0.00    +0.000 A 
ATOM      3  N   UNL     1       2.504   3.836  20.835  0.00  0.00    +0.000 NA
ATOM      4  N   UNL     1       1.997   5.092  20.876  0.00  0.00    +0.000 NA
ATOM      5  C   UNL     1       2.620   5.832  19.979  0.00  0.00    +0.000 A 
ENDROOT
BRANCH   1  11
ATOM      6  C   UNL     1       5.981   5.589  18.597  0.00  0.00    +0.000 A 
ATOM      7  C   UNL     1       6.813   6.116  17.587  0.00  0.00    +0.000 A 
ATOM      8  C   UNL     1       6.291   6.571  16.380  0.00  0.00    +0.000 A 
ATOM      9  C   UNL     1       4.931   6.472  16.144  0.00  0.00    +0.000 A 
ATOM     10  C   UNL     1       4.096   5.926  17.117  0.00  0.00    +0.000 A 
ATOM     11  C   UNL     1       4.588   5.508  18.373  0.00  0.00    +0.000 A 
BRANCH   6  13
ATOM     12  C   UNL     1       7.871   5.458  20.071  0.00  0.00    +0.000 C 
ATOM     13  O   UNL     1       6.487   5.204  19.812  0.00  0.00    +0.000 OA
ENDBRANCH   6  13
ENDBRANCH   1  11
BRANCH   2  14
ATOM     14  S   UNL     1       4.054   2.277  19.350  0.00  0.00    +0.000 S 
ATOM     15  H   UNL     1       2.913   1.741  18.909  0.00  0.00    +0.000 HD
ENDBRANCH   2  14
BRANCH   5  16
ATOM     16  C   UNL     1       2.292   7.288  19.775  0.00  0.00    +0.000 C 
BRANCH  16  17
ATOM     17  C   UNL     1       1.345   7.808  20.871  0.00  0.00    +0.000 C 
BRANCH  17  18
ATOM     18  N   UNL     1       0.987   9.220  20.799  0.00  0.00    +0.000 N 
ATOM     19  N   UNL     1       1.066   9.892  19.627  0.00  0.00    +0.000 NA
ATOM     20  C   UNL     1       0.513  11.088  19.892  0.00  0.00    +0.000 A 
ATOM     21  C   UNL     1       0.359  12.112  18.827  0.00  0.00    +0.000 C 
ATOM     22  C   UNL     1       0.108  11.171  21.239  0.00  0.00    +0.000 A 
ATOM     23 BR   UNL     1      -0.732  12.646  22.030  0.00  0.00    +0.000 Br
ATOM     24  C   UNL     1       0.404   9.956  21.809  0.00  0.00    +0.000 A 
ATOM     25  C   UNL     1       0.153   9.420  23.169  0.00  0.00    +0.000 C 
ENDBRANCH  17  18
ENDBRANCH  16  17
ENDBRANCH   5  16
TORSDOF 6
ENDMDL
MODEL 7
REMARK VINA RESULT:      -6.6      2.355      4.078
REMARK  Name = 
REMARK  9 active torsions:
REMARK  status: ('A' for Active; 'I' for Inactive)
REMARK    1  A    between atoms: C_1  and  O_2
REMARK    2  A    between atoms: O_2  and  C_3
REMARK    3  A    between atoms: C_8  and  N_9
REMARK    4  A    between atoms: C_10  and  S_11
REMARK    5  A    between atoms: C_14  and  C_15
REMARK    6  A    between atoms: C_15  and  C_16
REMARK    7  A    between atoms: C_16  and  N_17
REMARK    8  A    between atoms: C_19  and  C_20
REMARK    9  A    between atoms: C_23  and  C_24
REMARK                            x       y       z     vdW  Elec       q    Type
REMARK                         _______ _______ _______ _____ _____    ______ ____
ROOT
ATOM      1  N   UNL     1       3.360   5.781  18.498  0.00  0.00    +0.000 N 
ATOM      2  C   UNL     1       4.679   5.776  18.043  0.00  0.00    +0.000 A 
ATOM      3  N   UNL     1       4.936   6.857  17.345  0.00  0.00    +0.000 NA
ATOM      4  N   UNL     1       3.834   7.644  17.362  0.00  0.00    +0.000 NA
ATOM      5  C   UNL     1       2.896   7.050  18.075  0.00  0.00    +0.000 A 
ENDROOT
BRANCH   1  11
ATOM      6  C   UNL     1       1.888   3.737  18.638  0.00  0.00    +0.000 A 
ATOM      7  C   UNL     1       1.143   2.864  19.458  0.00  0.00    +0.000 A 
ATOM      8  C   UNL     1       1.109   3.018  20.841  0.00  0.00    +0.000 A 
ATOM      9  C   UNL     1       1.851   4.025  21.434  0.00  0.00    +0.000 A 
ATOM     10  C   UNL     1       2.618   4.879  20.643  0.00  0.00    +0.000 A 
ATOM     11  C   UNL     1       2.628   4.782  19.235  0.00  0.00    +0.000 A 
BRANCH   6  13
ATOM     12  C   UNL     1       2.874   2.821  16.650  0.00  0.00    +0.000 C 
ATOM     13  O   UNL     1       1.867   3.627  17.272  0.00  0.00    +0.000 OA
ENDBRANCH   6  13
ENDBRANCH   1  11
BRANCH   2  14
ATOM     14  S   UNL     1       5.971   4.719  18.526  0.00  0.00    +0.000 S 
ATOM     15  H   UNL     1       6.678   4.719  17.393  0.00  0.00    +0.000 HD
ENDBRANCH   2  14
BRANCH   5  16
ATOM     16  C   UNL     1       1.537   7.667  18.285  0.00  0.00    +0.000 C 
BRANCH  16  17
ATOM     17  C   UNL     1       1.650   9.151  18.673  0.00  0.00    +0.000 C 
BRANCH  17  18
ATOM     18  N   UNL     1       0.825   9.590  19.794  0.00  0.00    +0.000 N 
ATOM     19  N   UNL     1       0.932   8.993  21.003  0.00  0.00    +0.000 NA
ATOM     20  C   UNL     1       0.169   9.745  21.814  0.00  0.00    +0.000 A 
ATOM     21  C   UNL     1       0.065   9.444  23.264  0.00  0.00    +0.000 C 
ATOM     22  C   UNL     1      -0.434  10.802  21.103  0.00  0.00    +0.000 A 
ATOM     23 BR   UNL     1      -1.555  12.107  21.844  0.00  0.00    +0.000 Br
ATOM     24  C   UNL     1       0.009  10.701  19.806  0.00  0.00    +0.000 A 
ATOM     25  C   UNL     1      -0.221  11.559  18.618  0.00  0.00    +0.000 C 
ENDBRANCH  17  18
ENDBRANCH  16  17
ENDBRANCH   5  16
TORSDOF 6
ENDMDL
MODEL 8
REMARK VINA RESULT:      -6.6      0.931      1.672
REMARK  Name = 
REMARK  9 active torsions:
REMARK  status: ('A' for Active; 'I' for Inactive)
REMARK    1  A    between atoms: C_1  and  O_2
REMARK    2  A    between atoms: O_2  and  C_3
REMARK    3  A    between atoms: C_8  and  N_9
REMARK    4  A    between atoms: C_10  and  S_11
REMARK    5  A    between atoms: C_14  and  C_15
REMARK    6  A    between atoms: C_15  and  C_16
REMARK    7  A    between atoms: C_16  and  N_17
REMARK    8  A    between atoms: C_19  and  C_20
REMARK    9  A    between atoms: C_23  and  C_24
REMARK                            x       y       z     vdW  Elec       q    Type
REMARK                         _______ _______ _______ _____ _____    ______ ____
ROOT
ATOM      1  N   UNL     1       3.560   4.334  18.257  0.00  0.00    +0.000 N 
ATOM      2  C   UNL     1       3.137   3.139  18.840  0.00  0.00    +0.000 A 
ATOM      3  N   UNL     1       2.112   3.345  19.633  0.00  0.00    +0.000 NA
ATOM      4  N   UNL     1       1.775   4.655  19.560  0.00  0.00    +0.000 NA
ATOM      5  C   UNL     1       2.592   5.259  18.718  0.00  0.00    +0.000 A 
ENDROOT
BRANCH   1  11
ATOM      6  C   UNL     1       5.900   5.163  17.806  0.00  0.00    +0.000 A 
ATOM      7  C   UNL     1       6.893   5.451  16.846  0.00  0.00    +0.000 A 
ATOM      8  C   UNL     1       6.688   5.205  15.492  0.00  0.00    +0.000 A 
ATOM      9  C   UNL     1       5.501   4.629  15.075  0.00  0.00    +0.000 A 
ATOM     10  C   UNL     1       4.519   4.308  16.011  0.00  0.00    +0.000 A 
ATOM     11  C   UNL     1       4.675   4.598  17.384  0.00  0.00    +0.000 A 
BRANCH   6  13
ATOM     12  C   UNL     1       7.414   5.640  19.606  0.00  0.00    +0.000 C 
ATOM     13  O   UNL     1       6.075   5.469  19.131  0.00  0.00    +0.000 OA
ENDBRANCH   6  13
ENDBRANCH   1  11
BRANCH   2  14
ATOM     14  S   UNL     1       3.606   1.521  18.417  0.00  0.00    +0.000 S 
ATOM     15  H   UNL     1       4.671   1.801  17.661  0.00  0.00    +0.000 HD
ENDBRANCH   2  14
BRANCH   5  16
ATOM     16  C   UNL     1       2.486   6.731  18.417  0.00  0.00    +0.000 C 
BRANCH  16  17
ATOM     17  C   UNL     1       2.371   7.560  19.707  0.00  0.00    +0.000 C 
BRANCH  17  18
ATOM     18  N   UNL     1       1.466   8.704  19.662  0.00  0.00    +0.000 N 
ATOM     19  N   UNL     1       0.924   9.107  18.490  0.00  0.00    +0.000 NA
ATOM     20  C   UNL     1       0.035  10.052  18.842  0.00  0.00    +0.000 A 
ATOM     21  C   UNL     1      -0.821  10.714  17.825  0.00  0.00    +0.000 C 
ATOM     22  C   UNL     1       0.039  10.254  20.236  0.00  0.00    +0.000 A 
ATOM     23 BR   UNL     1      -1.061  11.457  21.161  0.00  0.00    +0.000 Br
ATOM     24  C   UNL     1       0.952   9.369  20.755  0.00  0.00    +0.000 A 
ATOM     25  C   UNL     1       1.344   9.065  22.153  0.00  0.00    +0.000 C 
ENDBRANCH  17  18
ENDBRANCH  16  17
ENDBRANCH   5  16
TORSDOF 6
ENDMDL
MODEL 9
REMARK VINA RESULT:      -6.5      2.684      4.448
REMARK  Name = 
REMARK  9 active torsions:
REMARK  status: ('A' for Active; 'I' for Inactive)
REMARK    1  A    between atoms: C_1  and  O_2
REMARK    2  A    between atoms: O_2  and  C_3
REMARK    3  A    between atoms: C_8  and  N_9
REMARK    4  A    between atoms: C_10  and  S_11
REMARK    5  A    between atoms: C_14  and  C_15
REMARK    6  A    between atoms: C_15  and  C_16
REMARK    7  A    between atoms: C_16  and  N_17
REMARK    8  A    between atoms: C_19  and  C_20
REMARK    9  A    between atoms: C_23  and  C_24
REMARK                            x       y       z     vdW  Elec       q    Type
REMARK                         _______ _______ _______ _____ _____    ______ ____
ROOT
ATOM      1  N   UNL     1       3.371   5.829  18.475  0.00  0.00    +0.000 N 
ATOM      2  C   UNL     1       4.674   5.804  17.975  0.00  0.00    +0.000 A 
ATOM      3  N   UNL     1       4.930   6.890  17.286  0.00  0.00    +0.000 NA
ATOM      4  N   UNL     1       3.846   7.700  17.352  0.00  0.00    +0.000 NA
ATOM      5  C   UNL     1       2.920   7.114  18.086  0.00  0.00    +0.000 A 
ENDROOT
BRANCH   1  11
ATOM      6  C   UNL     1       1.889   3.793  18.633  0.00  0.00    +0.000 A 
ATOM      7  C   UNL     1       1.150   2.925  19.462  0.00  0.00    +0.000 A 
ATOM      8  C   UNL     1       1.135   3.078  20.845  0.00  0.00    +0.000 A 
ATOM      9  C   UNL     1       1.890   4.080  21.429  0.00  0.00    +0.000 A 
ATOM     10  C   UNL     1       2.652   4.930  20.629  0.00  0.00    +0.000 A 
ATOM     11  C   UNL     1       2.643   4.834  19.220  0.00  0.00    +0.000 A 
BRANCH   6  13
ATOM     12  C   UNL     1       2.821   2.845  16.635  0.00  0.00    +0.000 C 
ATOM     13  O   UNL     1       1.849   3.685  17.267  0.00  0.00    +0.000 OA
ENDBRANCH   6  13
ENDBRANCH   1  11
BRANCH   2  14
ATOM     14  S   UNL     1       5.958   4.713  18.399  0.00  0.00    +0.000 S 
ATOM     15  H   UNL     1       5.557   4.384  19.630  0.00  0.00    +0.000 HD
ENDBRANCH   2  14
BRANCH   5  16
ATOM     16  C   UNL     1       1.583   7.755  18.350  0.00  0.00    +0.000 C 
BRANCH  16  17
ATOM     17  C   UNL     1       1.633   9.274  18.109  0.00  0.00    +0.000 C 
BRANCH  17  18
ATOM     18  N   UNL     1       0.369   9.991  18.242  0.00  0.00    +0.000 N 
ATOM     19  N   UNL     1      -0.723   9.596  17.546  0.00  0.00    +0.000 NA
ATOM     20  C   UNL     1      -1.719  10.357  18.031  0.00  0.00    +0.000 A 
ATOM     21  C   UNL     1      -3.114  10.186  17.553  0.00  0.00    +0.000 C 
ATOM     22  C   UNL     1      -1.243  11.244  19.016  0.00  0.00    +0.000 A 
ATOM     23 BR   UNL     1      -2.292  12.467  19.973  0.00  0.00    +0.000 Br
ATOM     24  C   UNL     1       0.100  10.988  19.155  0.00  0.00    +0.000 A 
ATOM     25  C   UNL     1       1.119  11.547  20.076  0.00  0.00    +0.000 C 
ENDBRANCH  17  18
ENDBRANCH  16  17
ENDBRANCH   5  16
TORSDOF 6
ENDMDL
