MODEL 1
REMARK VINA RESULT:      -7.9      0.000      0.000
REMARK  Name = 
REMARK  9 active torsions:
REMARK  status: ('A' for Active; 'I' for Inactive)
REMARK    1  A    between atoms: N_2  and  C_4
REMARK    2  A    between atoms: C_7  and  C_8
REMARK    3  A    between atoms: C_8  and  N_9
REMARK    4  A    between atoms: N_9  and  C_10
REMARK    5  A    between atoms: N_9  and  C_18
REMARK    6  A    between atoms: C_10  and  C_11
REMARK    7  A    between atoms: C_18  and  C_19
REMARK    8  A    between atoms: N_22  and  C_23
REMARK    9  A    between atoms: C_23  and  C_24
REMARK                            x       y       z     vdW  Elec       q    Type
REMARK                         _______ _______ _______ _____ _____    ______ ____
ROOT
ATOM      1  N   UNL     1       2.477   7.661  18.233  0.00  0.00    +0.000 NA
ENDROOT
BRANCH   1   2
ATOM      2  C   UNL     1       1.684   8.833  17.820  0.00  0.00    +0.000 C 
BRANCH   2   6
ATOM      3  C   UNL     1       0.552  10.423  21.216  0.00  0.00    +0.000 A 
ATOM      4  C   UNL     1       0.849  11.494  20.402  0.00  0.00    +0.000 A 
ATOM      5  C   UNL     1       1.222  11.060  19.092  0.00  0.00    +0.000 A 
ATOM      6  C   UNL     1       1.227   9.683  18.977  0.00  0.00    +0.000 A 
ATOM      7  S   UNL     1       0.551   8.950  20.377  0.00  0.00    +0.000 S 
BRANCH   3   9
ATOM      8  O   UNL     1      -0.543  11.335  22.993  0.00  0.00    +0.000 OA
ATOM      9  N   UNL     1       0.255  10.460  22.624  0.00  0.00    +0.000 N 
ATOM     10  O   UNL     1       0.824   9.652  23.367  0.00  0.00    +0.000 OA
ENDBRANCH   3   9
ENDBRANCH   2   6
ENDBRANCH   1   2
BRANCH   1  11
ATOM     11  C   UNL     1       1.874   6.353  17.886  0.00  0.00    +0.000 C 
BRANCH  11  12
ATOM     12  C   UNL     1       1.833   5.277  18.957  0.00  0.00    +0.000 A 
ATOM     13  C   UNL     1       2.204   5.547  20.285  0.00  0.00    +0.000 A 
ATOM     14  C   UNL     1       2.111   4.552  21.267  0.00  0.00    +0.000 A 
ATOM     15  C   UNL     1       1.664   3.279  20.932  0.00  0.00    +0.000 A 
ATOM     16 CL   UNL     1       1.525   2.063  22.140  0.00  0.00    +0.000 Cl
ATOM     17  C   UNL     1       1.296   2.989  19.622  0.00  0.00    +0.000 A 
ATOM     18  C   UNL     1       1.364   3.992  18.653  0.00  0.00    +0.000 A 
ENDBRANCH  11  12
ENDBRANCH   1  11
BRANCH   1  19
ATOM     19  C   UNL     1       3.872   7.739  17.772  0.00  0.00    +0.000 C 
BRANCH  19  20
ATOM     20  C   UNL     1       4.482   6.421  17.243  0.00  0.00    +0.000 C 
ATOM     21  C   UNL     1       5.488   5.873  18.258  0.00  0.00    +0.000 C 
ATOM     22  C   UNL     1       6.813   6.392  17.731  0.00  0.00    +0.000 C 
ATOM     23  N   UNL     1       6.707   6.244  16.270  0.00  0.00    +0.000 NA
ATOM     24  C   UNL     1       5.305   6.603  15.958  0.00  0.00    +0.000 C 
BRANCH  23  25
ATOM     25  C   UNL     1       7.045   4.864  15.872  0.00  0.00    +0.000 C 
BRANCH  25  26
ATOM     26  C   UNL     1       6.925   4.591  14.390  0.00  0.00    +0.000 A 
ATOM     27  C   UNL     1       7.768   5.227  13.469  0.00  0.00    +0.000 A 
ATOM     28  C   UNL     1       7.685   4.923  12.108  0.00  0.00    +0.000 A 
ATOM     29  C   UNL     1       6.759   3.984  11.656  0.00  0.00    +0.000 A 
ATOM     30  C   UNL     1       5.909   3.352  12.562  0.00  0.00    +0.000 A 
ATOM     31  C   UNL     1       5.992   3.653  13.922  0.00  0.00    +0.000 A 
ENDBRANCH  25  26
ENDBRANCH  23  25
ENDBRANCH  19  20
ENDBRANCH   1  19
TORSDOF 9
ENDMDL
MODEL 2
REMARK VINA RESULT:      -7.8      0.606      1.152
REMARK  Name = 
REMARK  9 active torsions:
REMARK  status: ('A' for Active; 'I' for Inactive)
REMARK    1  A    between atoms: N_2  and  C_4
REMARK    2  A    between atoms: C_7  and  C_8
REMARK    3  A    between atoms: C_8  and  N_9
REMARK    4  A    between atoms: N_9  and  C_10
REMARK    5  A    between atoms: N_9  and  C_18
REMARK    6  A    between atoms: C_10  and  C_11
REMARK    7  A    between atoms: C_18  and  C_19
REMARK    8  A    between atoms: N_22  and  C_23
REMARK    9  A    between atoms: C_23  and  C_24
REMARK                            x       y       z     vdW  Elec       q    Type
REMARK                         _______ _______ _______ _____ _____    ______ ____
ROOT
ATOM      1  N   UNL     1       2.601   7.595  18.231  0.00  0.00    +0.000 NA
ENDROOT
BRANCH   1   2
ATOM      2  C   UNL     1       1.839   8.758  17.742  0.00  0.00    +0.000 C 
BRANCH   2   6
ATOM      3  C   UNL     1      -0.068  10.105  20.888  0.00  0.00    +0.000 A 
ATOM      4  C   UNL     1      -0.781  10.580  19.808  0.00  0.00    +0.000 A 
ATOM      5  C   UNL     1      -0.228  10.109  18.577  0.00  0.00    +0.000 A 
ATOM      6  C   UNL     1       0.897   9.329  18.770  0.00  0.00    +0.000 A 
ATOM      7  S   UNL     1       1.122   8.984  20.439  0.00  0.00    +0.000 S 
BRANCH   3   9
ATOM      8  O   UNL     1      -0.642   9.552  23.021  0.00  0.00    +0.000 OA
ATOM      9  N   UNL     1      -0.251  10.459  22.271  0.00  0.00    +0.000 N 
ATOM     10  O   UNL     1      -0.038  11.628  22.613  0.00  0.00    +0.000 OA
ENDBRANCH   3   9
ENDBRANCH   2   6
ENDBRANCH   1   2
BRANCH   1  11
ATOM     11  C   UNL     1       2.020   6.280  17.869  0.00  0.00    +0.000 C 
BRANCH  11  12
ATOM     12  C   UNL     1       1.903   5.227  18.957  0.00  0.00    +0.000 A 
ATOM     13  C   UNL     1       2.349   5.469  20.267  0.00  0.00    +0.000 A 
ATOM     14  C   UNL     1       2.186   4.500  21.266  0.00  0.00    +0.000 A 
ATOM     15  C   UNL     1       1.591   3.280  20.966  0.00  0.00    +0.000 A 
ATOM     16 CL   UNL     1       1.367   2.099  22.196  0.00  0.00    +0.000 Cl
ATOM     17  C   UNL     1       1.146   3.018  19.674  0.00  0.00    +0.000 A 
ATOM     18  C   UNL     1       1.287   3.997  18.688  0.00  0.00    +0.000 A 
ENDBRANCH  11  12
ENDBRANCH   1  11
BRANCH   1  19
ATOM     19  C   UNL     1       4.024   7.663  17.863  0.00  0.00    +0.000 C 
BRANCH  19  20
ATOM     20  C   UNL     1       4.648   6.351  17.339  0.00  0.00    +0.000 C 
ATOM     21  C   UNL     1       5.777   5.906  18.271  0.00  0.00    +0.000 C 
ATOM     22  C   UNL     1       7.014   6.461  17.589  0.00  0.00    +0.000 C 
ATOM     23  N   UNL     1       6.774   6.231  16.156  0.00  0.00    +0.000 NA
ATOM     24  C   UNL     1       5.331   6.504  15.969  0.00  0.00    +0.000 C 
BRANCH  23  25
ATOM     25  C   UNL     1       7.144   4.850  15.792  0.00  0.00    +0.000 C 
BRANCH  25  26
ATOM     26  C   UNL     1       6.910   4.499  14.340  0.00  0.00    +0.000 A 
ATOM     27  C   UNL     1       5.863   3.645  13.965  0.00  0.00    +0.000 A 
ATOM     28  C   UNL     1       5.624   3.373  12.616  0.00  0.00    +0.000 A 
ATOM     29  C   UNL     1       6.426   3.948  11.633  0.00  0.00    +0.000 A 
ATOM     30  C   UNL     1       7.475   4.792  11.994  0.00  0.00    +0.000 A 
ATOM     31  C   UNL     1       7.715   5.066  13.341  0.00  0.00    +0.000 A 
ENDBRANCH  25  26
ENDBRANCH  23  25
ENDBRANCH  19  20
ENDBRANCH   1  19
TORSDOF 9
ENDMDL
MODEL 3
REMARK VINA RESULT:      -7.3      0.909      1.426
REMARK  Name = 
REMARK  9 active torsions:
REMARK  status: ('A' for Active; 'I' for Inactive)
REMARK    1  A    between atoms: N_2  and  C_4
REMARK    2  A    between atoms: C_7  and  C_8
REMARK    3  A    between atoms: C_8  and  N_9
REMARK    4  A    between atoms: N_9  and  C_10
REMARK    5  A    between atoms: N_9  and  C_18
REMARK    6  A    between atoms: C_10  and  C_11
REMARK    7  A    between atoms: C_18  and  C_19
REMARK    8  A    between atoms: N_22  and  C_23
REMARK    9  A    between atoms: C_23  and  C_24
REMARK                            x       y       z     vdW  Elec       q    Type
REMARK                         _______ _______ _______ _____ _____    ______ ____
ROOT
ATOM      1  N   UNL     1       2.525   7.570  18.419  0.00  0.00    +0.000 NA
ENDROOT
BRANCH   1   2
ATOM      2  C   UNL     1       1.646   8.748  18.314  0.00  0.00    +0.000 C 
BRANCH   2   6
ATOM      3  C   UNL     1      -0.051  10.501  21.379  0.00  0.00    +0.000 A 
ATOM      4  C   UNL     1       0.469   9.328  21.882  0.00  0.00    +0.000 A 
ATOM      5  C   UNL     1       1.181   8.605  20.875  0.00  0.00    +0.000 A 
ATOM      6  C   UNL     1       1.141   9.238  19.646  0.00  0.00    +0.000 A 
ATOM      7  S   UNL     1       0.453  10.807  19.789  0.00  0.00    +0.000 S 
BRANCH   3   9
ATOM      8  O   UNL     1      -1.834  11.918  21.376  0.00  0.00    +0.000 OA
ATOM      9  N   UNL     1      -0.923  11.424  22.057  0.00  0.00    +0.000 N 
ATOM     10  O   UNL     1      -0.696  11.684  23.244  0.00  0.00    +0.000 OA
ENDBRANCH   3   9
ENDBRANCH   2   6
ENDBRANCH   1   2
BRANCH   1  11
ATOM     11  C   UNL     1       1.871   6.281  18.093  0.00  0.00    +0.000 C 
BRANCH  11  12
ATOM     12  C   UNL     1       2.039   5.128  19.066  0.00  0.00    +0.000 A 
ATOM     13  C   UNL     1       1.914   5.311  20.453  0.00  0.00    +0.000 A 
ATOM     14  C   UNL     1       2.024   4.223  21.329  0.00  0.00    +0.000 A 
ATOM     15  C   UNL     1       2.274   2.949  20.832  0.00  0.00    +0.000 A 
ATOM     16 CL   UNL     1       2.385   1.608  21.903  0.00  0.00    +0.000 Cl
ATOM     17  C   UNL     1       2.406   2.746  19.463  0.00  0.00    +0.000 A 
ATOM     18  C   UNL     1       2.269   3.828  18.592  0.00  0.00    +0.000 A 
ENDBRANCH  11  12
ENDBRANCH   1  11
BRANCH   1  19
ATOM     19  C   UNL     1       3.776   7.736  17.662  0.00  0.00    +0.000 C 
BRANCH  19  20
ATOM     20  C   UNL     1       4.467   6.431  17.209  0.00  0.00    +0.000 C 
ATOM     21  C   UNL     1       5.576   6.063  18.198  0.00  0.00    +0.000 C 
ATOM     22  C   UNL     1       6.816   6.640  17.542  0.00  0.00    +0.000 C 
ATOM     23  N   UNL     1       6.639   6.351  16.110  0.00  0.00    +0.000 NA
ATOM     24  C   UNL     1       5.195   6.562  15.861  0.00  0.00    +0.000 C 
BRANCH  23  25
ATOM     25  C   UNL     1       7.074   4.973  15.811  0.00  0.00    +0.000 C 
BRANCH  25  26
ATOM     26  C   UNL     1       6.861   4.545  14.376  0.00  0.00    +0.000 A 
ATOM     27  C   UNL     1       5.805   3.692  14.027  0.00  0.00    +0.000 A 
ATOM     28  C   UNL     1       5.587   3.349  12.691  0.00  0.00    +0.000 A 
ATOM     29  C   UNL     1       6.420   3.853  11.694  0.00  0.00    +0.000 A 
ATOM     30  C   UNL     1       7.478   4.696  12.030  0.00  0.00    +0.000 A 
ATOM     31  C   UNL     1       7.697   5.041  13.364  0.00  0.00    +0.000 A 
ENDBRANCH  25  26
ENDBRANCH  23  25
ENDBRANCH  19  20
ENDBRANCH   1  19
TORSDOF 9
ENDMDL
MODEL 4
REMARK VINA RESULT:      -7.1      3.487      5.236
REMARK  Name = 
REMARK  9 active torsions:
REMARK  status: ('A' for Active; 'I' for Inactive)
REMARK    1  A    between atoms: N_2  and  C_4
REMARK    2  A    between atoms: C_7  and  C_8
REMARK    3  A    between atoms: C_8  and  N_9
REMARK    4  A    between atoms: N_9  and  C_10
REMARK    5  A    between atoms: N_9  and  C_18
REMARK    6  A    between atoms: C_10  and  C_11
REMARK    7  A    between atoms: C_18  and  C_19
REMARK    8  A    between atoms: N_22  and  C_23
REMARK    9  A    between atoms: C_23  and  C_24
REMARK                            x       y       z     vdW  Elec       q    Type
REMARK                         _______ _______ _______ _____ _____    ______ ____
ROOT
ATOM      1  N   UNL     1       2.306   7.114  18.406  0.00  0.00    +0.000 NA
ENDROOT
BRANCH   1   2
ATOM      2  C   UNL     1       1.850   5.781  17.977  0.00  0.00    +0.000 C 
BRANCH   2   6
ATOM      3  C   UNL     1       2.919   2.992  20.512  0.00  0.00    +0.000 A 
ATOM      4  C   UNL     1       1.734   3.490  21.008  0.00  0.00    +0.000 A 
ATOM      5  C   UNL     1       1.188   4.486  20.141  0.00  0.00    +0.000 A 
ATOM      6  C   UNL     1       1.995   4.728  19.044  0.00  0.00    +0.000 A 
ATOM      7  S   UNL     1       3.271   3.578  18.961  0.00  0.00    +0.000 S 
BRANCH   3   9
ATOM      8  O   UNL     1       3.433   1.617  22.254  0.00  0.00    +0.000 OA
ATOM      9  N   UNL     1       3.812   2.069  21.163  0.00  0.00    +0.000 N 
ATOM     10  O   UNL     1       4.891   1.812  20.618  0.00  0.00    +0.000 OA
ENDBRANCH   3   9
ENDBRANCH   2   6
ENDBRANCH   1   2
BRANCH   1  11
ATOM     11  C   UNL     1       2.251   7.345  19.870  0.00  0.00    +0.000 C 
BRANCH  11  12
ATOM     12  C   UNL     1       1.442   8.525  20.377  0.00  0.00    +0.000 A 
ATOM     13  C   UNL     1       0.931   9.498  19.501  0.00  0.00    +0.000 A 
ATOM     14  C   UNL     1       0.144  10.552  19.987  0.00  0.00    +0.000 A 
ATOM     15  C   UNL     1      -0.125  10.653  21.347  0.00  0.00    +0.000 A 
ATOM     16 CL   UNL     1      -1.110  11.931  21.942  0.00  0.00    +0.000 Cl
ATOM     17  C   UNL     1       0.374   9.703  22.231  0.00  0.00    +0.000 A 
ATOM     18  C   UNL     1       1.134   8.640  21.740  0.00  0.00    +0.000 A 
ENDBRANCH  11  12
ENDBRANCH   1  11
BRANCH   1  19
ATOM     19  C   UNL     1       3.634   7.451  17.868  0.00  0.00    +0.000 C 
BRANCH  19  20
ATOM     20  C   UNL     1       4.482   6.260  17.372  0.00  0.00    +0.000 C 
ATOM     21  C   UNL     1       5.732   6.116  18.244  0.00  0.00    +0.000 C 
ATOM     22  C   UNL     1       6.786   6.861  17.446  0.00  0.00    +0.000 C 
ATOM     23  N   UNL     1       6.514   6.492  16.048  0.00  0.00    +0.000 NA
ATOM     24  C   UNL     1       5.037   6.456  15.951  0.00  0.00    +0.000 C 
BRANCH  23  25
ATOM     25  C   UNL     1       7.138   5.194  15.733  0.00  0.00    +0.000 C 
BRANCH  25  26
ATOM     26  C   UNL     1       6.963   4.743  14.301  0.00  0.00    +0.000 A 
ATOM     27  C   UNL     1       7.793   5.235  13.283  0.00  0.00    +0.000 A 
ATOM     28  C   UNL     1       7.656   4.768  11.974  0.00  0.00    +0.000 A 
ATOM     29  C   UNL     1       6.692   3.809  11.669  0.00  0.00    +0.000 A 
ATOM     30  C   UNL     1       5.856   3.319  12.671  0.00  0.00    +0.000 A 
ATOM     31  C   UNL     1       5.991   3.783  13.980  0.00  0.00    +0.000 A 
ENDBRANCH  25  26
ENDBRANCH  23  25
ENDBRANCH  19  20
ENDBRANCH   1  19
TORSDOF 9
ENDMDL
MODEL 5
REMARK VINA RESULT:      -7.0      3.291      5.032
REMARK  Name = 
REMARK  9 active torsions:
REMARK  status: ('A' for Active; 'I' for Inactive)
REMARK    1  A    between atoms: N_2  and  C_4
REMARK    2  A    between atoms: C_7  and  C_8
REMARK    3  A    between atoms: C_8  and  N_9
REMARK    4  A    between atoms: N_9  and  C_10
REMARK    5  A    between atoms: N_9  and  C_18
REMARK    6  A    between atoms: C_10  and  C_11
REMARK    7  A    between atoms: C_18  and  C_19
REMARK    8  A    between atoms: N_22  and  C_23
REMARK    9  A    between atoms: C_23  and  C_24
REMARK                            x       y       z     vdW  Elec       q    Type
REMARK                         _______ _______ _______ _____ _____    ______ ____
ROOT
ATOM      1  N   UNL     1       2.711   6.768  18.231  0.00  0.00    +0.000 NA
ENDROOT
BRANCH   1   2
ATOM      2  C   UNL     1       2.311   5.511  17.574  0.00  0.00    +0.000 C 
BRANCH   2   6
ATOM      3  C   UNL     1       1.877   2.957  20.512  0.00  0.00    +0.000 A 
ATOM      4  C   UNL     1       0.730   2.833  19.759  0.00  0.00    +0.000 A 
ATOM      5  C   UNL     1       0.777   3.672  18.603  0.00  0.00    +0.000 A 
ATOM      6  C   UNL     1       1.937   4.422  18.545  0.00  0.00    +0.000 A 
ATOM      7  S   UNL     1       3.050   3.921  19.756  0.00  0.00    +0.000 S 
BRANCH   3   9
ATOM      8  O   UNL     1       3.316   2.043  22.023  0.00  0.00    +0.000 OA
ATOM      9  N   UNL     1       2.139   2.365  21.797  0.00  0.00    +0.000 N 
ATOM     10  O   UNL     1       1.190   2.191  22.570  0.00  0.00    +0.000 OA
ENDBRANCH   3   9
ENDBRANCH   2   6
ENDBRANCH   1   2
BRANCH   1  11
ATOM     11  C   UNL     1       2.294   6.883  19.649  0.00  0.00    +0.000 C 
BRANCH  11  12
ATOM     12  C   UNL     1       1.590   8.155  20.086  0.00  0.00    +0.000 A 
ATOM     13  C   UNL     1       1.207   8.362  21.422  0.00  0.00    +0.000 A 
ATOM     14  C   UNL     1       0.602   9.565  21.812  0.00  0.00    +0.000 A 
ATOM     15  C   UNL     1       0.361  10.562  20.873  0.00  0.00    +0.000 A 
ATOM     16 CL   UNL     1      -0.357  12.049  21.354  0.00  0.00    +0.000 Cl
ATOM     17  C   UNL     1       0.728  10.375  19.545  0.00  0.00    +0.000 A 
ATOM     18  C   UNL     1       1.355   9.186  19.167  0.00  0.00    +0.000 A 
ENDBRANCH  11  12
ENDBRANCH   1  11
BRANCH   1  19
ATOM     19  C   UNL     1       4.147   7.048  18.078  0.00  0.00    +0.000 C 
BRANCH  19  20
ATOM     20  C   UNL     1       4.983   5.934  17.409  0.00  0.00    +0.000 C 
ATOM     21  C   UNL     1       6.215   5.628  18.264  0.00  0.00    +0.000 C 
ATOM     22  C   UNL     1       7.295   6.470  17.611  0.00  0.00    +0.000 C 
ATOM     23  N   UNL     1       7.040   6.335  16.168  0.00  0.00    +0.000 NA
ATOM     24  C   UNL     1       5.565   6.344  16.046  0.00  0.00    +0.000 C 
BRANCH  23  25
ATOM     25  C   UNL     1       7.647   5.091  15.658  0.00  0.00    +0.000 C 
BRANCH  25  26
ATOM     26  C   UNL     1       7.153   4.664  14.294  0.00  0.00    +0.000 A 
ATOM     27  C   UNL     1       7.805   5.087  13.126  0.00  0.00    +0.000 A 
ATOM     28  C   UNL     1       7.372   4.640  11.876  0.00  0.00    +0.000 A 
ATOM     29  C   UNL     1       6.287   3.771  11.779  0.00  0.00    +0.000 A 
ATOM     30  C   UNL     1       5.626   3.351  12.933  0.00  0.00    +0.000 A 
ATOM     31  C   UNL     1       6.058   3.795  14.183  0.00  0.00    +0.000 A 
ENDBRANCH  25  26
ENDBRANCH  23  25
ENDBRANCH  19  20
ENDBRANCH   1  19
TORSDOF 9
ENDMDL
MODEL 6
REMARK VINA RESULT:      -7.0      3.646      5.475
REMARK  Name = 
REMARK  9 active torsions:
REMARK  status: ('A' for Active; 'I' for Inactive)
REMARK    1  A    between atoms: N_2  and  C_4
REMARK    2  A    between atoms: C_7  and  C_8
REMARK    3  A    between atoms: C_8  and  N_9
REMARK    4  A    between atoms: N_9  and  C_10
REMARK    5  A    between atoms: N_9  and  C_18
REMARK    6  A    between atoms: C_10  and  C_11
REMARK    7  A    between atoms: C_18  and  C_19
REMARK    8  A    between atoms: N_22  and  C_23
REMARK    9  A    between atoms: C_23  and  C_24
REMARK                            x       y       z     vdW  Elec       q    Type
REMARK                         _______ _______ _______ _____ _____    ______ ____
ROOT
ATOM      1  N   UNL     1       2.269   6.794  18.421  0.00  0.00    +0.000 NA
ENDROOT
BRANCH   1   2
ATOM      2  C   UNL     1       1.880   5.420  18.058  0.00  0.00    +0.000 C 
BRANCH   2   6
ATOM      3  C   UNL     1       3.615   2.601  20.155  0.00  0.00    +0.000 A 
ATOM      4  C   UNL     1       2.773   3.238  21.040  0.00  0.00    +0.000 A 
ATOM      5  C   UNL     1       2.019   4.264  20.391  0.00  0.00    +0.000 A 
ATOM      6  C   UNL     1       2.343   4.386  19.052  0.00  0.00    +0.000 A 
ATOM      7  S   UNL     1       3.374   3.104  18.554  0.00  0.00    +0.000 S 
BRANCH   3   9
ATOM      8  O   UNL     1       5.164   1.711  21.567  0.00  0.00    +0.000 OA
ATOM      9  N   UNL     1       4.607   1.605  20.464  0.00  0.00    +0.000 N 
ATOM     10  O   UNL     1       4.857   0.741  19.617  0.00  0.00    +0.000 OA
ENDBRANCH   3   9
ENDBRANCH   2   6
ENDBRANCH   1   2
BRANCH   1  11
ATOM     11  C   UNL     1       2.343   7.050  19.879  0.00  0.00    +0.000 C 
BRANCH  11  12
ATOM     12  C   UNL     1       1.500   8.176  20.450  0.00  0.00    +0.000 A 
ATOM     13  C   UNL     1       1.193   8.245  21.820  0.00  0.00    +0.000 A 
ATOM     14  C   UNL     1       0.455   9.320  22.333  0.00  0.00    +0.000 A 
ATOM     15  C   UNL     1       0.005  10.326  21.484  0.00  0.00    +0.000 A 
ATOM     16 CL   UNL     1      -0.880  11.659  22.115  0.00  0.00    +0.000 Cl
ATOM     17  C   UNL     1       0.294  10.275  20.125  0.00  0.00    +0.000 A 
ATOM     18  C   UNL     1       1.053   9.216  19.623  0.00  0.00    +0.000 A 
ENDBRANCH  11  12
ENDBRANCH   1  11
BRANCH   1  19
ATOM     19  C   UNL     1       3.504   7.223  17.746  0.00  0.00    +0.000 C 
BRANCH  19  20
ATOM     20  C   UNL     1       4.433   6.090  17.256  0.00  0.00    +0.000 C 
ATOM     21  C   UNL     1       5.586   5.901  18.245  0.00  0.00    +0.000 C 
ATOM     22  C   UNL     1       6.698   6.726  17.625  0.00  0.00    +0.000 C 
ATOM     23  N   UNL     1       6.587   6.463  16.182  0.00  0.00    +0.000 NA
ATOM     24  C   UNL     1       5.130   6.407  15.922  0.00  0.00    +0.000 C 
BRANCH  23  25
ATOM     25  C   UNL     1       7.276   5.204  15.839  0.00  0.00    +0.000 C 
BRANCH  25  26
ATOM     26  C   UNL     1       6.993   4.692  14.445  0.00  0.00    +0.000 A 
ATOM     27  C   UNL     1       5.946   3.791  14.206  0.00  0.00    +0.000 A 
ATOM     28  C   UNL     1       5.660   3.370  12.906  0.00  0.00    +0.000 A 
ATOM     29  C   UNL     1       6.415   3.842  11.835  0.00  0.00    +0.000 A 
ATOM     30  C   UNL     1       7.464   4.732  12.061  0.00  0.00    +0.000 A 
ATOM     31  C   UNL     1       7.751   5.156  13.359  0.00  0.00    +0.000 A 
ENDBRANCH  25  26
ENDBRANCH  23  25
ENDBRANCH  19  20
ENDBRANCH   1  19
TORSDOF 9
ENDMDL
MODEL 7
REMARK VINA RESULT:      -6.9      3.201      5.167
REMARK  Name = 
REMARK  9 active torsions:
REMARK  status: ('A' for Active; 'I' for Inactive)
REMARK    1  A    between atoms: N_2  and  C_4
REMARK    2  A    between atoms: C_7  and  C_8
REMARK    3  A    between atoms: C_8  and  N_9
REMARK    4  A    between atoms: N_9  and  C_10
REMARK    5  A    between atoms: N_9  and  C_18
REMARK    6  A    between atoms: C_10  and  C_11
REMARK    7  A    between atoms: C_18  and  C_19
REMARK    8  A    between atoms: N_22  and  C_23
REMARK    9  A    between atoms: C_23  and  C_24
REMARK                            x       y       z     vdW  Elec       q    Type
REMARK                         _______ _______ _______ _____ _____    ______ ____
ROOT
ATOM      1  N   UNL     1       2.458   7.659  17.924  0.00  0.00    +0.000 NA
ENDROOT
BRANCH   1   2
ATOM      2  C   UNL     1       1.822   7.236  19.185  0.00  0.00    +0.000 C 
BRANCH   2   6
ATOM      3  C   UNL     1       2.206   3.600  20.591  0.00  0.00    +0.000 A 
ATOM      4  C   UNL     1       1.771   3.437  19.294  0.00  0.00    +0.000 A 
ATOM      5  C   UNL     1       1.645   4.696  18.629  0.00  0.00    +0.000 A 
ATOM      6  C   UNL     1       1.954   5.760  19.455  0.00  0.00    +0.000 A 
ATOM      7  S   UNL     1       2.621   5.206  20.940  0.00  0.00    +0.000 S 
BRANCH   3   9
ATOM      8  O   UNL     1       3.449   2.043  21.695  0.00  0.00    +0.000 OA
ATOM      9  N   UNL     1       2.334   2.579  21.598  0.00  0.00    +0.000 N 
ATOM     10  O   UNL     1       1.339   2.286  22.269  0.00  0.00    +0.000 OA
ENDBRANCH   3   9
ENDBRANCH   2   6
ENDBRANCH   1   2
BRANCH   1  11
ATOM     11  C   UNL     1       2.013   8.980  17.421  0.00  0.00    +0.000 C 
BRANCH  11  12
ATOM     12  C   UNL     1       1.026   9.770  18.262  0.00  0.00    +0.000 A 
ATOM     13  C   UNL     1      -0.356   9.718  18.019  0.00  0.00    +0.000 A 
ATOM     14  C   UNL     1      -1.252  10.416  18.840  0.00  0.00    +0.000 A 
ATOM     15  C   UNL     1      -0.777  11.183  19.898  0.00  0.00    +0.000 A 
ATOM     16 CL   UNL     1      -1.875  12.021  20.922  0.00  0.00    +0.000 Cl
ATOM     17  C   UNL     1       0.588  11.252  20.154  0.00  0.00    +0.000 A 
ATOM     18  C   UNL     1       1.475  10.532  19.350  0.00  0.00    +0.000 A 
ENDBRANCH  11  12
ENDBRANCH   1  11
BRANCH   1  19
ATOM     19  C   UNL     1       3.926   7.583  17.985  0.00  0.00    +0.000 C 
BRANCH  19  20
ATOM     20  C   UNL     1       4.559   6.296  17.413  0.00  0.00    +0.000 C 
ATOM     21  C   UNL     1       5.616   5.764  18.383  0.00  0.00    +0.000 C 
ATOM     22  C   UNL     1       6.905   6.335  17.822  0.00  0.00    +0.000 C 
ATOM     23  N   UNL     1       6.756   6.208  16.363  0.00  0.00    +0.000 NA
ATOM     24  C   UNL     1       5.333   6.526  16.104  0.00  0.00    +0.000 C 
BRANCH  23  25
ATOM     25  C   UNL     1       7.124   4.847  15.931  0.00  0.00    +0.000 C 
BRANCH  25  26
ATOM     26  C   UNL     1       6.921   4.581  14.456  0.00  0.00    +0.000 A 
ATOM     27  C   UNL     1       7.743   5.184  13.494  0.00  0.00    +0.000 A 
ATOM     28  C   UNL     1       7.581   4.885  12.140  0.00  0.00    +0.000 A 
ATOM     29  C   UNL     1       6.597   3.985  11.734  0.00  0.00    +0.000 A 
ATOM     30  C   UNL     1       5.768   3.386  12.680  0.00  0.00    +0.000 A 
ATOM     31  C   UNL     1       5.929   3.682  14.034  0.00  0.00    +0.000 A 
ENDBRANCH  25  26
ENDBRANCH  23  25
ENDBRANCH  19  20
ENDBRANCH   1  19
TORSDOF 9
ENDMDL
MODEL 8
REMARK VINA RESULT:      -6.9      4.071      6.529
REMARK  Name = 
REMARK  9 active torsions:
REMARK  status: ('A' for Active; 'I' for Inactive)
REMARK    1  A    between atoms: N_2  and  C_4
REMARK    2  A    between atoms: C_7  and  C_8
REMARK    3  A    between atoms: C_8  and  N_9
REMARK    4  A    between atoms: N_9  and  C_10
REMARK    5  A    between atoms: N_9  and  C_18
REMARK    6  A    between atoms: C_10  and  C_11
REMARK    7  A    between atoms: C_18  and  C_19
REMARK    8  A    between atoms: N_22  and  C_23
REMARK    9  A    between atoms: C_23  and  C_24
REMARK                            x       y       z     vdW  Elec       q    Type
REMARK                         _______ _______ _______ _____ _____    ______ ____
ROOT
ATOM      1  N   UNL     1       4.102   5.211  17.345  0.00  0.00    +0.000 NA
ENDROOT
BRANCH   1   2
ATOM      2  C   UNL     1       3.099   4.186  17.008  0.00  0.00    +0.000 C 
BRANCH   2   6
ATOM      3  C   UNL     1       1.874   2.771  20.451  0.00  0.00    +0.000 A 
ATOM      4  C   UNL     1       0.728   3.184  19.806  0.00  0.00    +0.000 A 
ATOM      5  C   UNL     1       1.020   3.673  18.495  0.00  0.00    +0.000 A 
ATOM      6  C   UNL     1       2.373   3.644  18.212  0.00  0.00    +0.000 A 
ATOM      7  S   UNL     1       3.236   2.806  19.440  0.00  0.00    +0.000 S 
BRANCH   3   9
ATOM      8  O   UNL     1       3.129   2.009  22.192  0.00  0.00    +0.000 OA
ATOM      9  N   UNL     1       1.992   2.337  21.818  0.00  0.00    +0.000 N 
ATOM     10  O   UNL     1       0.970   2.290  22.511  0.00  0.00    +0.000 OA
ENDBRANCH   3   9
ENDBRANCH   2   6
ENDBRANCH   1   2
BRANCH   1  11
ATOM     11  C   UNL     1       3.911   5.852  18.668  0.00  0.00    +0.000 C 
BRANCH  11  12
ATOM     12  C   UNL     1       2.933   7.009  18.766  0.00  0.00    +0.000 A 
ATOM     13  C   UNL     1       2.197   7.253  19.937  0.00  0.00    +0.000 A 
ATOM     14  C   UNL     1       1.337   8.356  20.022  0.00  0.00    +0.000 A 
ATOM     15  C   UNL     1       1.193   9.214  18.938  0.00  0.00    +0.000 A 
ATOM     16 CL   UNL     1       0.157  10.583  19.048  0.00  0.00    +0.000 Cl
ATOM     17  C   UNL     1       1.909   8.989  17.767  0.00  0.00    +0.000 A 
ATOM     18  C   UNL     1       2.785   7.904  17.697  0.00  0.00    +0.000 A 
ENDBRANCH  11  12
ENDBRANCH   1  11
BRANCH   1  19
ATOM     19  C   UNL     1       5.480   4.716  17.191  0.00  0.00    +0.000 C 
BRANCH  19  20
ATOM     20  C   UNL     1       6.526   5.762  16.745  0.00  0.00    +0.000 C 
ATOM     21  C   UNL     1       7.854   5.502  17.459  0.00  0.00    +0.000 C 
ATOM     22  C   UNL     1       7.793   6.452  18.640  0.00  0.00    +0.000 C 
ATOM     23  N   UNL     1       7.195   7.679  18.091  0.00  0.00    +0.000 NA
ATOM     24  C   UNL     1       6.159   7.201  17.147  0.00  0.00    +0.000 C 
BRANCH  23  25
ATOM     25  C   UNL     1       8.229   8.500  17.435  0.00  0.00    +0.000 C 
BRANCH  25  26
ATOM     26  C   UNL     1       8.599   9.761  18.183  0.00  0.00    +0.000 A 
ATOM     27  C   UNL     1       9.123   9.701  19.482  0.00  0.00    +0.000 A 
ATOM     28  C   UNL     1       9.513  10.869  20.140  0.00  0.00    +0.000 A 
ATOM     29  C   UNL     1       9.382  12.105  19.510  0.00  0.00    +0.000 A 
ATOM     30  C   UNL     1       8.855  12.178  18.221  0.00  0.00    +0.000 A 
ATOM     31  C   UNL     1       8.466  11.012  17.561  0.00  0.00    +0.000 A 
ENDBRANCH  25  26
ENDBRANCH  23  25
ENDBRANCH  19  20
ENDBRANCH   1  19
TORSDOF 9
ENDMDL
MODEL 9
REMARK VINA RESULT:      -6.9      4.011      6.470
REMARK  Name = 
REMARK  9 active torsions:
REMARK  status: ('A' for Active; 'I' for Inactive)
REMARK    1  A    between atoms: N_2  and  C_4
REMARK    2  A    between atoms: C_7  and  C_8
REMARK    3  A    between atoms: C_8  and  N_9
REMARK    4  A    between atoms: N_9  and  C_10
REMARK    5  A    between atoms: N_9  and  C_18
REMARK    6  A    between atoms: C_10  and  C_11
REMARK    7  A    between atoms: C_18  and  C_19
REMARK    8  A    between atoms: N_22  and  C_23
REMARK    9  A    between atoms: C_23  and  C_24
REMARK                            x       y       z     vdW  Elec       q    Type
REMARK                         _______ _______ _______ _____ _____    ______ ____
ROOT
ATOM      1  N   UNL     1       4.241   5.084  17.312  0.00  0.00    +0.000 NA
ENDROOT
BRANCH   1   2
ATOM      2  C   UNL     1       3.152   4.148  16.979  0.00  0.00    +0.000 C 
BRANCH   2   6
ATOM      3  C   UNL     1       1.946   2.751  20.435  0.00  0.00    +0.000 A 
ATOM      4  C   UNL     1       0.798   3.174  19.800  0.00  0.00    +0.000 A 
ATOM      5  C   UNL     1       1.082   3.657  18.486  0.00  0.00    +0.000 A 
ATOM      6  C   UNL     1       2.432   3.615  18.190  0.00  0.00    +0.000 A 
ATOM      7  S   UNL     1       3.298   2.771  19.412  0.00  0.00    +0.000 S 
BRANCH   3   9
ATOM      8  O   UNL     1       1.041   2.366  22.489  0.00  0.00    +0.000 OA
ATOM      9  N   UNL     1       2.072   2.317  21.801  0.00  0.00    +0.000 N 
ATOM     10  O   UNL     1       3.184   1.958  22.204  0.00  0.00    +0.000 OA
ENDBRANCH   3   9
ENDBRANCH   2   6
ENDBRANCH   1   2
BRANCH   1  11
ATOM     11  C   UNL     1       4.104   5.746  18.631  0.00  0.00    +0.000 C 
BRANCH  11  12
ATOM     12  C   UNL     1       3.168   6.937  18.739  0.00  0.00    +0.000 A 
ATOM     13  C   UNL     1       3.036   7.867  17.694  0.00  0.00    +0.000 A 
ATOM     14  C   UNL     1       2.129   8.930  17.796  0.00  0.00    +0.000 A 
ATOM     15  C   UNL     1       1.359   9.084  18.943  0.00  0.00    +0.000 A 
ATOM     16 CL   UNL     1       0.227  10.373  19.060  0.00  0.00    +0.000 Cl
ATOM     17  C   UNL     1       1.476   8.177  19.991  0.00  0.00    +0.000 A 
ATOM     18  C   UNL     1       2.362   7.103  19.874  0.00  0.00    +0.000 A 
ENDBRANCH  11  12
ENDBRANCH   1  11
BRANCH   1  19
ATOM     19  C   UNL     1       5.570   4.470  17.164  0.00  0.00    +0.000 C 
BRANCH  19  20
ATOM     20  C   UNL     1       6.724   5.437  16.820  0.00  0.00    +0.000 C 
ATOM     21  C   UNL     1       7.840   5.301  17.858  0.00  0.00    +0.000 C 
ATOM     22  C   UNL     1       7.535   6.426  18.830  0.00  0.00    +0.000 C 
ATOM     23  N   UNL     1       7.122   7.547  17.971  0.00  0.00    +0.000 NA
ATOM     24  C   UNL     1       6.321   6.920  16.895  0.00  0.00    +0.000 C 
BRANCH  23  25
ATOM     25  C   UNL     1       8.307   8.259  17.457  0.00  0.00    +0.000 C 
BRANCH  25  26
ATOM     26  C   UNL     1       8.582   9.587  18.126  0.00  0.00    +0.000 A 
ATOM     27  C   UNL     1       9.212   9.648  19.377  0.00  0.00    +0.000 A 
ATOM     28  C   UNL     1       9.509  10.882  19.958  0.00  0.00    +0.000 A 
ATOM     29  C   UNL     1       9.181  12.064  19.298  0.00  0.00    +0.000 A 
ATOM     30  C   UNL     1       8.547  12.016  18.058  0.00  0.00    +0.000 A 
ATOM     31  C   UNL     1       8.249  10.784  17.475  0.00  0.00    +0.000 A 
ENDBRANCH  25  26
ENDBRANCH  23  25
ENDBRANCH  19  20
ENDBRANCH   1  19
TORSDOF 9
ENDMDL
