MODEL 1
REMARK VINA RESULT:      -7.3      0.000      0.000
REMARK  Name = 
REMARK  3 active torsions:
REMARK  status: ('A' for Active; 'I' for Inactive)
REMARK    1  A    between atoms: C_1  and  O_2
REMARK    2  A    between atoms: O_2  and  C_3
REMARK    3  A    between atoms: C_8  and  C_9
REMARK                            x       y       z     vdW  Elec       q    Type
REMARK                         _______ _______ _______ _____ _____    ______ ____
ROOT
ATOM      1  C   UNL     1       3.937   5.282  18.577  0.00  0.00    +0.000 A 
ATOM      2  C   UNL     1       3.418   6.596  18.656  0.00  0.00    +0.000 A 
ATOM      3  C   UNL     1       2.409   6.963  19.557  0.00  0.00    +0.000 A 
ATOM      4  C   UNL     1       1.848   6.013  20.394  0.00  0.00    +0.000 A 
ATOM      5  C   UNL     1       2.292   4.693  20.329  0.00  0.00    +0.000 A 
ATOM      6  C   UNL     1       3.346   4.328  19.443  0.00  0.00    +0.000 A 
ATOM      7  C   UNL     1       3.718   2.860  19.544  0.00  0.00    +0.000 C 
ATOM      8  C   UNL     1       2.423   2.039  19.500  0.00  0.00    +0.000 C 
ATOM      9  N   UNL     1       1.458   2.347  20.567  0.00  0.00    +0.000 NA
ATOM     10  C   UNL     1       1.710   3.629  21.235  0.00  0.00    +0.000 C 
ATOM     11  H   UNL     1       1.477   1.609  21.266  0.00  0.00    +0.000 HD
ENDROOT
BRANCH   1  17
ATOM     12  C   UNL     1       6.377   4.833  17.877  0.00  0.00    +0.000 A 
ATOM     13  C   UNL     1       7.267   4.538  16.833  0.00  0.00    +0.000 A 
ATOM     14  C   UNL     1       6.793   4.379  15.538  0.00  0.00    +0.000 A 
ATOM     15  C   UNL     1       5.444   4.538  15.320  0.00  0.00    +0.000 A 
ATOM     16  N   UNL     1       4.562   4.850  16.294  0.00  0.00    +0.000 NA
ATOM     17  C   UNL     1       5.005   4.964  17.577  0.00  0.00    +0.000 A 
BRANCH  12  19
ATOM     18  C   UNL     1       7.891   5.800  19.418  0.00  0.00    +0.000 C 
ATOM     19  O   UNL     1       6.798   4.917  19.180  0.00  0.00    +0.000 OA
ENDBRANCH  12  19
ENDBRANCH   1  17
TORSDOF 2
ENDMDL
MODEL 2
REMARK VINA RESULT:      -7.1      1.825      2.542
REMARK  Name = 
REMARK  3 active torsions:
REMARK  status: ('A' for Active; 'I' for Inactive)
REMARK    1  A    between atoms: C_1  and  O_2
REMARK    2  A    between atoms: O_2  and  C_3
REMARK    3  A    between atoms: C_8  and  C_9
REMARK                            x       y       z     vdW  Elec       q    Type
REMARK                         _______ _______ _______ _____ _____    ______ ____
ROOT
ATOM      1  C   UNL     1       3.941   5.170  19.467  0.00  0.00    +0.000 A 
ATOM      2  C   UNL     1       3.091   6.194  19.948  0.00  0.00    +0.000 A 
ATOM      3  C   UNL     1       1.794   5.948  20.419  0.00  0.00    +0.000 A 
ATOM      4  C   UNL     1       1.278   4.663  20.390  0.00  0.00    +0.000 A 
ATOM      5  C   UNL     1       2.057   3.621  19.887  0.00  0.00    +0.000 A 
ATOM      6  C   UNL     1       3.390   3.864  19.447  0.00  0.00    +0.000 A 
ATOM      7  C   UNL     1       4.091   2.604  18.973  0.00  0.00    +0.000 C 
ATOM      8  C   UNL     1       3.143   1.863  18.022  0.00  0.00    +0.000 C 
ATOM      9  N   UNL     1       1.850   1.480  18.612  0.00  0.00    +0.000 NA
ATOM     10  C   UNL     1       1.531   2.203  19.849  0.00  0.00    +0.000 C 
ATOM     11  H   UNL     1       1.850   0.482  18.811  0.00  0.00    +0.000 HD
ENDROOT
BRANCH   1  17
ATOM     12  C   UNL     1       5.600   5.971  17.663  0.00  0.00    +0.000 A 
ATOM     13  C   UNL     1       6.935   6.248  17.333  0.00  0.00    +0.000 A 
ATOM     14  C   UNL     1       7.937   6.076  18.277  0.00  0.00    +0.000 A 
ATOM     15  C   UNL     1       7.578   5.611  19.522  0.00  0.00    +0.000 A 
ATOM     16  N   UNL     1       6.309   5.306  19.867  0.00  0.00    +0.000 NA
ATOM     17  C   UNL     1       5.309   5.514  18.966  0.00  0.00    +0.000 A 
BRANCH  12  19
ATOM     18  C   UNL     1       4.969   6.656  15.488  0.00  0.00    +0.000 C 
ATOM     19  O   UNL     1       4.576   6.207  16.782  0.00  0.00    +0.000 OA
ENDBRANCH  12  19
ENDBRANCH   1  17
TORSDOF 2
ENDMDL
MODEL 3
REMARK VINA RESULT:      -7.0      1.311      2.587
REMARK  Name = 
REMARK  3 active torsions:
REMARK  status: ('A' for Active; 'I' for Inactive)
REMARK    1  A    between atoms: C_1  and  O_2
REMARK    2  A    between atoms: O_2  and  C_3
REMARK    3  A    between atoms: C_8  and  C_9
REMARK                            x       y       z     vdW  Elec       q    Type
REMARK                         _______ _______ _______ _____ _____    ______ ____
ROOT
ATOM      1  C   UNL     1       3.902   3.533  17.808  0.00  0.00    +0.000 A 
ATOM      2  C   UNL     1       3.723   2.141  17.985  0.00  0.00    +0.000 A 
ATOM      3  C   UNL     1       2.710   1.600  18.788  0.00  0.00    +0.000 A 
ATOM      4  C   UNL     1       1.853   2.438  19.482  0.00  0.00    +0.000 A 
ATOM      5  C   UNL     1       2.010   3.820  19.377  0.00  0.00    +0.000 A 
ATOM      6  C   UNL     1       3.013   4.370  18.528  0.00  0.00    +0.000 A 
ATOM      7  C   UNL     1       3.003   5.888  18.513  0.00  0.00    +0.000 C 
ATOM      8  C   UNL     1       2.943   6.377  19.965  0.00  0.00    +0.000 C 
ATOM      9  N   UNL     1       1.771   5.912  20.726  0.00  0.00    +0.000 NA
ATOM     10  C   UNL     1       1.087   4.768  20.112  0.00  0.00    +0.000 C 
ATOM     11  H   UNL     1       1.104   6.675  20.821  0.00  0.00    +0.000 HD
ENDROOT
BRANCH   1  17
ATOM     12  C   UNL     1       6.255   4.515  17.423  0.00  0.00    +0.000 A 
ATOM     13  C   UNL     1       7.206   4.961  16.494  0.00  0.00    +0.000 A 
ATOM     14  C   UNL     1       6.924   4.922  15.135  0.00  0.00    +0.000 A 
ATOM     15  C   UNL     1       5.690   4.456  14.745  0.00  0.00    +0.000 A 
ATOM     16  N   UNL     1       4.739   4.046  15.611  0.00  0.00    +0.000 NA
ATOM     17  C   UNL     1       5.018   4.035  16.944  0.00  0.00    +0.000 A 
BRANCH  12  19
ATOM     18  C   UNL     1       7.193   5.604  19.303  0.00  0.00    +0.000 C 
ATOM     19  O   UNL     1       6.530   4.463  18.766  0.00  0.00    +0.000 OA
ENDBRANCH  12  19
ENDBRANCH   1  17
TORSDOF 2
ENDMDL
MODEL 4
REMARK VINA RESULT:      -7.0      1.023      1.088
REMARK  Name = 
REMARK  3 active torsions:
REMARK  status: ('A' for Active; 'I' for Inactive)
REMARK    1  A    between atoms: C_1  and  O_2
REMARK    2  A    between atoms: O_2  and  C_3
REMARK    3  A    between atoms: C_8  and  C_9
REMARK                            x       y       z     vdW  Elec       q    Type
REMARK                         _______ _______ _______ _____ _____    ______ ____
ROOT
ATOM      1  C   UNL     1       3.774   5.248  18.813  0.00  0.00    +0.000 A 
ATOM      2  C   UNL     1       3.116   6.358  19.395  0.00  0.00    +0.000 A 
ATOM      3  C   UNL     1       2.014   6.227  20.250  0.00  0.00    +0.000 A 
ATOM      4  C   UNL     1       1.496   4.973  20.527  0.00  0.00    +0.000 A 
ATOM      5  C   UNL     1       2.079   3.846  19.948  0.00  0.00    +0.000 A 
ATOM      6  C   UNL     1       3.225   3.975  19.112  0.00  0.00    +0.000 A 
ATOM      7  C   UNL     1       3.740   2.639  18.609  0.00  0.00    +0.000 C 
ATOM      8  C   UNL     1       2.544   1.842  18.072  0.00  0.00    +0.000 C 
ATOM      9  N   UNL     1       1.478   1.589  19.055  0.00  0.00    +0.000 NA
ATOM     10  C   UNL     1       1.548   2.459  20.236  0.00  0.00    +0.000 C 
ATOM     11  H   UNL     1       1.525   0.620  19.364  0.00  0.00    +0.000 HD
ENDROOT
BRANCH   1  17
ATOM     12  C   UNL     1       6.284   5.553  18.310  0.00  0.00    +0.000 A 
ATOM     13  C   UNL     1       7.271   5.772  17.338  0.00  0.00    +0.000 A 
ATOM     14  C   UNL     1       6.917   5.898  16.002  0.00  0.00    +0.000 A 
ATOM     15  C   UNL     1       5.582   5.823  15.678  0.00  0.00    +0.000 A 
ATOM     16  N   UNL     1       4.602   5.642  16.589  0.00  0.00    +0.000 NA
ATOM     17  C   UNL     1       4.937   5.470  17.898  0.00  0.00    +0.000 A 
BRANCH  12  19
ATOM     18  C   UNL     1       7.972   5.551  19.969  0.00  0.00    +0.000 C 
ATOM     19  O   UNL     1       6.605   5.342  19.627  0.00  0.00    +0.000 OA
ENDBRANCH  12  19
ENDBRANCH   1  17
TORSDOF 2
ENDMDL
MODEL 5
REMARK VINA RESULT:      -6.9      1.278      2.530
REMARK  Name = 
REMARK  3 active torsions:
REMARK  status: ('A' for Active; 'I' for Inactive)
REMARK    1  A    between atoms: C_1  and  O_2
REMARK    2  A    between atoms: O_2  and  C_3
REMARK    3  A    between atoms: C_8  and  C_9
REMARK                            x       y       z     vdW  Elec       q    Type
REMARK                         _______ _______ _______ _____ _____    ______ ____
ROOT
ATOM      1  C   UNL     1       4.293   3.807  18.804  0.00  0.00    +0.000 A 
ATOM      2  C   UNL     1       4.463   2.636  19.580  0.00  0.00    +0.000 A 
ATOM      3  C   UNL     1       3.626   2.308  20.656  0.00  0.00    +0.000 A 
ATOM      4  C   UNL     1       2.603   3.165  21.025  0.00  0.00    +0.000 A 
ATOM      5  C   UNL     1       2.415   4.354  20.320  0.00  0.00    +0.000 A 
ATOM      6  C   UNL     1       3.238   4.667  19.201  0.00  0.00    +0.000 A 
ATOM      7  C   UNL     1       2.858   5.979  18.540  0.00  0.00    +0.000 C 
ATOM      8  C   UNL     1       2.704   7.038  19.639  0.00  0.00    +0.000 C 
ATOM      9  N   UNL     1       1.695   6.723  20.663  0.00  0.00    +0.000 NA
ATOM     10  C   UNL     1       1.301   5.310  20.687  0.00  0.00    +0.000 C 
ATOM     11  H   UNL     1       0.863   7.288  20.505  0.00  0.00    +0.000 HD
ENDROOT
BRANCH   1  17
ATOM     12  C   UNL     1       6.544   4.604  17.833  0.00  0.00    +0.000 A 
ATOM     13  C   UNL     1       7.315   4.833  16.683  0.00  0.00    +0.000 A 
ATOM     14  C   UNL     1       6.791   4.558  15.427  0.00  0.00    +0.000 A 
ATOM     15  C   UNL     1       5.503   4.080  15.356  0.00  0.00    +0.000 A 
ATOM     16  N   UNL     1       4.722   3.874  16.437  0.00  0.00    +0.000 NA
ATOM     17  C   UNL     1       5.237   4.095  17.679  0.00  0.00    +0.000 A 
BRANCH  12  19
ATOM     18  C   UNL     1       7.951   5.887  19.237  0.00  0.00    +0.000 C 
ATOM     19  O   UNL     1       7.058   4.787  19.091  0.00  0.00    +0.000 OA
ENDBRANCH  12  19
ENDBRANCH   1  17
TORSDOF 2
ENDMDL
MODEL 6
REMARK VINA RESULT:      -6.9      1.869      3.340
REMARK  Name = 
REMARK  3 active torsions:
REMARK  status: ('A' for Active; 'I' for Inactive)
REMARK    1  A    between atoms: C_1  and  O_2
REMARK    2  A    between atoms: O_2  and  C_3
REMARK    3  A    between atoms: C_8  and  C_9
REMARK                            x       y       z     vdW  Elec       q    Type
REMARK                         _______ _______ _______ _____ _____    ______ ____
ROOT
ATOM      1  C   UNL     1       4.479   4.131  18.170  0.00  0.00    +0.000 A 
ATOM      2  C   UNL     1       4.596   2.867  17.545  0.00  0.00    +0.000 A 
ATOM      3  C   UNL     1       3.541   1.946  17.489  0.00  0.00    +0.000 A 
ATOM      4  C   UNL     1       2.331   2.238  18.096  0.00  0.00    +0.000 A 
ATOM      5  C   UNL     1       2.174   3.454  18.762  0.00  0.00    +0.000 A 
ATOM      6  C   UNL     1       3.231   4.408  18.783  0.00  0.00    +0.000 A 
ATOM      7  C   UNL     1       2.859   5.682  19.519  0.00  0.00    +0.000 C 
ATOM      8  C   UNL     1       2.219   5.288  20.856  0.00  0.00    +0.000 C 
ATOM      9  N   UNL     1       1.015   4.449  20.742  0.00  0.00    +0.000 NA
ATOM     10  C   UNL     1       0.863   3.814  19.427  0.00  0.00    +0.000 C 
ATOM     11  H   UNL     1       0.189   5.014  20.925  0.00  0.00    +0.000 HD
ENDROOT
BRANCH   1  17
ATOM     12  C   UNL     1       6.003   5.955  17.170  0.00  0.00    +0.000 A 
ATOM     13  C   UNL     1       7.142   6.757  17.335  0.00  0.00    +0.000 A 
ATOM     14  C   UNL     1       7.899   6.661  18.494  0.00  0.00    +0.000 A 
ATOM     15  C   UNL     1       7.508   5.750  19.447  0.00  0.00    +0.000 A 
ATOM     16  N   UNL     1       6.436   4.941  19.311  0.00  0.00    +0.000 NA
ATOM     17  C   UNL     1       5.656   5.056  18.201  0.00  0.00    +0.000 A 
BRANCH  12  19
ATOM     18  C   UNL     1       5.619   5.397  14.902  0.00  0.00    +0.000 C 
ATOM     19  O   UNL     1       5.186   6.080  16.075  0.00  0.00    +0.000 OA
ENDBRANCH  12  19
ENDBRANCH   1  17
TORSDOF 2
ENDMDL
MODEL 7
REMARK VINA RESULT:      -6.7      2.239      5.223
REMARK  Name = 
REMARK  3 active torsions:
REMARK  status: ('A' for Active; 'I' for Inactive)
REMARK    1  A    between atoms: C_1  and  O_2
REMARK    2  A    between atoms: O_2  and  C_3
REMARK    3  A    between atoms: C_8  and  C_9
REMARK                            x       y       z     vdW  Elec       q    Type
REMARK                         _______ _______ _______ _____ _____    ______ ____
ROOT
ATOM      1  C   UNL     1       3.011   5.615  18.763  0.00  0.00    +0.000 A 
ATOM      2  C   UNL     1       2.209   6.738  18.452  0.00  0.00    +0.000 A 
ATOM      3  C   UNL     1       2.673   7.815  17.685  0.00  0.00    +0.000 A 
ATOM      4  C   UNL     1       3.981   7.830  17.229  0.00  0.00    +0.000 A 
ATOM      5  C   UNL     1       4.829   6.767  17.541  0.00  0.00    +0.000 A 
ATOM      6  C   UNL     1       4.345   5.652  18.285  0.00  0.00    +0.000 A 
ATOM      7  C   UNL     1       5.400   4.580  18.490  0.00  0.00    +0.000 C 
ATOM      8  C   UNL     1       6.684   5.264  18.973  0.00  0.00    +0.000 C 
ATOM      9  N   UNL     1       7.227   6.280  18.055  0.00  0.00    +0.000 NA
ATOM     10  C   UNL     1       6.260   6.742  17.052  0.00  0.00    +0.000 C 
ATOM     11  H   UNL     1       8.038   5.901  17.572  0.00  0.00    +0.000 HD
ENDROOT
BRANCH   1  17
ATOM     12  C   UNL     1       1.804   3.360  19.093  0.00  0.00    +0.000 A 
ATOM     13  C   UNL     1       1.318   2.408  20.001  0.00  0.00    +0.000 A 
ATOM     14  C   UNL     1       1.476   2.603  21.366  0.00  0.00    +0.000 A 
ATOM     15  C   UNL     1       2.098   3.755  21.786  0.00  0.00    +0.000 A 
ATOM     16  N   UNL     1       2.553   4.707  20.944  0.00  0.00    +0.000 NA
ATOM     17  C   UNL     1       2.447   4.509  19.600  0.00  0.00    +0.000 A 
BRANCH  12  19
ATOM     18  C   UNL     1       2.710   2.271  17.197  0.00  0.00    +0.000 C 
ATOM     19  O   UNL     1       1.738   3.162  17.737  0.00  0.00    +0.000 OA
ENDBRANCH  12  19
ENDBRANCH   1  17
TORSDOF 2
ENDMDL
MODEL 8
REMARK VINA RESULT:      -6.7      1.903      5.343
REMARK  Name = 
REMARK  3 active torsions:
REMARK  status: ('A' for Active; 'I' for Inactive)
REMARK    1  A    between atoms: C_1  and  O_2
REMARK    2  A    between atoms: O_2  and  C_3
REMARK    3  A    between atoms: C_8  and  C_9
REMARK                            x       y       z     vdW  Elec       q    Type
REMARK                         _______ _______ _______ _____ _____    ______ ____
ROOT
ATOM      1  C   UNL     1       4.977   4.594  18.230  0.00  0.00    +0.000 A 
ATOM      2  C   UNL     1       5.762   4.993  19.338  0.00  0.00    +0.000 A 
ATOM      3  C   UNL     1       7.005   5.625  19.201  0.00  0.00    +0.000 A 
ATOM      4  C   UNL     1       7.535   5.848  17.941  0.00  0.00    +0.000 A 
ATOM      5  C   UNL     1       6.823   5.437  16.814  0.00  0.00    +0.000 A 
ATOM      6  C   UNL     1       5.540   4.834  16.951  0.00  0.00    +0.000 A 
ATOM      7  C   UNL     1       4.904   4.494  15.616  0.00  0.00    +0.000 C 
ATOM      8  C   UNL     1       5.952   3.770  14.762  0.00  0.00    +0.000 C 
ATOM      9  N   UNL     1       7.182   4.539  14.508  0.00  0.00    +0.000 NA
ATOM     10  C   UNL     1       7.364   5.674  15.421  0.00  0.00    +0.000 C 
ATOM     11  H   UNL     1       7.172   4.890  13.553  0.00  0.00    +0.000 HD
ENDROOT
BRANCH   1  17
ATOM     12  C   UNL     1       2.424   4.572  18.590  0.00  0.00    +0.000 A 
ATOM     13  C   UNL     1       1.273   3.799  18.808  0.00  0.00    +0.000 A 
ATOM     14  C   UNL     1       1.367   2.417  18.886  0.00  0.00    +0.000 A 
ATOM     15  C   UNL     1       2.612   1.846  18.763  0.00  0.00    +0.000 A 
ATOM     16  N   UNL     1       3.745   2.557  18.582  0.00  0.00    +0.000 NA
ATOM     17  C   UNL     1       3.664   3.912  18.457  0.00  0.00    +0.000 A 
BRANCH  12  19
ATOM     18  C   UNL     1       2.362   6.697  19.630  0.00  0.00    +0.000 C 
ATOM     19  O   UNL     1       2.358   5.932  18.428  0.00  0.00    +0.000 OA
ENDBRANCH  12  19
ENDBRANCH   1  17
TORSDOF 2
ENDMDL
MODEL 9
REMARK VINA RESULT:      -6.6      1.720      5.285
REMARK  Name = 
REMARK  3 active torsions:
REMARK  status: ('A' for Active; 'I' for Inactive)
REMARK    1  A    between atoms: C_1  and  O_2
REMARK    2  A    between atoms: O_2  and  C_3
REMARK    3  A    between atoms: C_8  and  C_9
REMARK                            x       y       z     vdW  Elec       q    Type
REMARK                         _______ _______ _______ _____ _____    ______ ____
ROOT
ATOM      1  C   UNL     1       5.171   5.000  18.796  0.00  0.00    +0.000 A 
ATOM      2  C   UNL     1       6.255   5.443  19.590  0.00  0.00    +0.000 A 
ATOM      3  C   UNL     1       7.513   5.752  19.057  0.00  0.00    +0.000 A 
ATOM      4  C   UNL     1       7.752   5.590  17.702  0.00  0.00    +0.000 A 
ATOM      5  C   UNL     1       6.731   5.116  16.878  0.00  0.00    +0.000 A 
ATOM      6  C   UNL     1       5.440   4.842  17.412  0.00  0.00    +0.000 A 
ATOM      7  C   UNL     1       4.453   4.376  16.357  0.00  0.00    +0.000 C 
ATOM      8  C   UNL     1       5.133   3.283  15.523  0.00  0.00    +0.000 C 
ATOM      9  N   UNL     1       6.372   3.702  14.847  0.00  0.00    +0.000 NA
ATOM     10  C   UNL     1       6.950   4.936  15.391  0.00  0.00    +0.000 C 
ATOM     11  H   UNL     1       6.188   3.841  13.856  0.00  0.00    +0.000 HD
ENDROOT
BRANCH   1  17
ATOM     12  C   UNL     1       3.388   3.372  19.697  0.00  0.00    +0.000 A 
ATOM     13  C   UNL     1       2.131   3.220  20.304  0.00  0.00    +0.000 A 
ATOM     14  C   UNL     1       1.382   4.339  20.643  0.00  0.00    +0.000 A 
ATOM     15  C   UNL     1       1.902   5.578  20.347  0.00  0.00    +0.000 A 
ATOM     16  N   UNL     1       3.093   5.762  19.738  0.00  0.00    +0.000 NA
ATOM     17  C   UNL     1       3.860   4.676  19.441  0.00  0.00    +0.000 A 
BRANCH  12  19
ATOM     18  C   UNL     1       3.675   1.371  18.466  0.00  0.00    +0.000 C 
ATOM     19  O   UNL     1       4.189   2.293  19.423  0.00  0.00    +0.000 OA
ENDBRANCH  12  19
ENDBRANCH   1  17
TORSDOF 2
ENDMDL
