MODEL 1
REMARK VINA RESULT:      -7.7      0.000      0.000
REMARK  Name = 
REMARK  6 active torsions:
REMARK  status: ('A' for Active; 'I' for Inactive)
REMARK    1  A    between atoms: C_1  and  C_2
REMARK    2  A    between atoms: C_2  and  C_3
REMARK    3  A    between atoms: C_7  and  C_8
REMARK    4  A    between atoms: C_8  and  N_9
REMARK    5  A    between atoms: N_12  and  S_13
REMARK    6  A    between atoms: S_13  and  C_16
REMARK                            x       y       z     vdW  Elec       q    Type
REMARK                         _______ _______ _______ _____ _____    ______ ____
ROOT
ATOM      1  N   UNL     1       2.117   8.334  19.408  0.00  0.00    +0.000 NA
ATOM      2  C   UNL     1       1.803   9.459  18.490  0.00  0.00    +0.000 C 
ATOM      3  C   UNL     1       0.348   9.997  18.502  0.00  0.00    +0.000 C 
ATOM      4  N   UNL     1      -0.223  10.172  19.872  0.00  0.00    +0.000 NA
ATOM      5  C   UNL     1       0.111   9.041  20.786  0.00  0.00    +0.000 C 
ATOM      6  C   UNL     1       1.609   8.697  20.748  0.00  0.00    +0.000 C 
ENDROOT
BRANCH   4   7
ATOM      7  S   UNL     1      -0.131  11.724  20.568  0.00  0.00    +0.000 S 
ATOM      8  O   UNL     1       0.508  11.628  21.863  0.00  0.00    +0.000 OA
ATOM      9  O   UNL     1       0.400  12.607  19.549  0.00  0.00    +0.000 OA
BRANCH   7  10
ATOM     10  C   UNL     1      -1.817  12.172  20.851  0.00  0.00    +0.000 A 
ATOM     11  C   UNL     1      -2.294  12.332  22.156  0.00  0.00    +0.000 A 
ATOM     12  C   UNL     1      -3.640  12.646  22.367  0.00  0.00    +0.000 A 
ATOM     13  C   UNL     1      -4.503  12.794  21.279  0.00  0.00    +0.000 A 
ATOM     14  C   UNL     1      -4.014  12.622  19.979  0.00  0.00    +0.000 A 
ATOM     15  C   UNL     1      -2.678  12.304  19.771  0.00  0.00    +0.000 A 
ATOM     16  F   UNL     1      -2.255  12.137  18.512  0.00  0.00    +0.000 F 
ENDBRANCH   7  10
ENDBRANCH   4   7
BRANCH   1  17
ATOM     17  C   UNL     1       1.620   7.046  18.895  0.00  0.00    +0.000 C 
BRANCH  17  22
ATOM     18  C   UNL     1       5.984   5.212  16.419  0.00  0.00    +0.000 A 
ATOM     19  C   UNL     1       5.131   6.294  16.167  0.00  0.00    +0.000 A 
ATOM     20  C   UNL     1       4.058   6.582  17.031  0.00  0.00    +0.000 A 
ATOM     21  C   UNL     1       3.793   5.768  18.137  0.00  0.00    +0.000 A 
ATOM     22  C   UNL     1       2.592   5.882  18.986  0.00  0.00    +0.000 A 
ATOM     23  C   UNL     1       2.334   4.851  19.808  0.00  0.00    +0.000 A 
ATOM     24  C   UNL     1       3.237   3.708  20.006  0.00  0.00    +0.000 A 
ATOM     25  O   UNL     1       2.904   2.763  20.710  0.00  0.00    +0.000 OA
ATOM     26  O   UNL     1       4.479   3.787  19.414  0.00  0.00    +0.000 OA
ATOM     27  C   UNL     1       4.689   4.724  18.390  0.00  0.00    +0.000 A 
ATOM     28  C   UNL     1       5.791   4.462  17.578  0.00  0.00    +0.000 A 
BRANCH  18  30
ATOM     29  C   UNL     1       6.265   4.089  14.224  0.00  0.00    +0.000 C 
ATOM     30  C   UNL     1       6.989   4.739  15.399  0.00  0.00    +0.000 C 
ENDBRANCH  18  30
ENDBRANCH  17  22
ENDBRANCH   1  17
TORSDOF 5
ENDMDL
MODEL 2
REMARK VINA RESULT:      -7.7      3.577      9.167
REMARK  Name = 
REMARK  6 active torsions:
REMARK  status: ('A' for Active; 'I' for Inactive)
REMARK    1  A    between atoms: C_1  and  C_2
REMARK    2  A    between atoms: C_2  and  C_3
REMARK    3  A    between atoms: C_7  and  C_8
REMARK    4  A    between atoms: C_8  and  N_9
REMARK    5  A    between atoms: N_12  and  S_13
REMARK    6  A    between atoms: S_13  and  C_16
REMARK                            x       y       z     vdW  Elec       q    Type
REMARK                         _______ _______ _______ _____ _____    ______ ____
ROOT
ATOM      1  N   UNL     1       2.409   6.846  20.085  0.00  0.00    +0.000 NA
ATOM      2  C   UNL     1       1.979   5.484  20.490  0.00  0.00    +0.000 C 
ATOM      3  C   UNL     1       1.653   4.477  19.355  0.00  0.00    +0.000 C 
ATOM      4  N   UNL     1       2.648   4.479  18.239  0.00  0.00    +0.000 NA
ATOM      5  C   UNL     1       3.080   5.853  17.852  0.00  0.00    +0.000 C 
ATOM      6  C   UNL     1       3.478   6.694  19.075  0.00  0.00    +0.000 C 
ENDROOT
BRANCH   4   7
ATOM      7  S   UNL     1       3.887   3.312  18.292  0.00  0.00    +0.000 S 
ATOM      8  O   UNL     1       4.464   3.288  19.619  0.00  0.00    +0.000 OA
ATOM      9  O   UNL     1       3.347   2.103  17.702  0.00  0.00    +0.000 OA
BRANCH   7  10
ATOM     10  C   UNL     1       5.124   3.944  17.199  0.00  0.00    +0.000 A 
ATOM     11  C   UNL     1       5.027   3.721  15.821  0.00  0.00    +0.000 A 
ATOM     12  C   UNL     1       6.034   4.191  14.972  0.00  0.00    +0.000 A 
ATOM     13  C   UNL     1       7.131   4.875  15.499  0.00  0.00    +0.000 A 
ATOM     14  C   UNL     1       7.220   5.082  16.881  0.00  0.00    +0.000 A 
ATOM     15  C   UNL     1       6.223   4.609  17.724  0.00  0.00    +0.000 A 
ATOM     16  F   UNL     1       6.354   4.819  19.039  0.00  0.00    +0.000 F 
ENDBRANCH   7  10
ENDBRANCH   4   7
BRANCH   1  17
ATOM     17  C   UNL     1       1.275   7.678  19.652  0.00  0.00    +0.000 C 
BRANCH  17  22
ATOM     18  C   UNL     1       1.358  13.009  19.299  0.00  0.00    +0.000 A 
ATOM     19  C   UNL     1       1.733  11.990  18.413  0.00  0.00    +0.000 A 
ATOM     20  C   UNL     1       1.554  10.637  18.753  0.00  0.00    +0.000 A 
ATOM     21  C   UNL     1       1.036  10.276  20.002  0.00  0.00    +0.000 A 
ATOM     22  C   UNL     1       0.984   8.895  20.515  0.00  0.00    +0.000 A 
ATOM     23  C   UNL     1       0.746   8.747  21.830  0.00  0.00    +0.000 A 
ATOM     24  C   UNL     1       0.403   9.854  22.735  0.00  0.00    +0.000 A 
ATOM     25  O   UNL     1       0.277   9.660  23.937  0.00  0.00    +0.000 OA
ATOM     26  O   UNL     1       0.176  11.083  22.156  0.00  0.00    +0.000 OA
ATOM     27  C   UNL     1       0.626  11.314  20.846  0.00  0.00    +0.000 A 
ATOM     28  C   UNL     1       0.741  12.659  20.499  0.00  0.00    +0.000 A 
BRANCH  18  30
ATOM     29  C   UNL     1       2.943  14.510  18.120  0.00  0.00    +0.000 C 
ATOM     30  C   UNL     1       1.748  14.447  19.066  0.00  0.00    +0.000 C 
ENDBRANCH  18  30
ENDBRANCH  17  22
ENDBRANCH   1  17
TORSDOF 5
ENDMDL
MODEL 3
REMARK VINA RESULT:      -7.7      1.025      1.287
REMARK  Name = 
REMARK  6 active torsions:
REMARK  status: ('A' for Active; 'I' for Inactive)
REMARK    1  A    between atoms: C_1  and  C_2
REMARK    2  A    between atoms: C_2  and  C_3
REMARK    3  A    between atoms: C_7  and  C_8
REMARK    4  A    between atoms: C_8  and  N_9
REMARK    5  A    between atoms: N_12  and  S_13
REMARK    6  A    between atoms: S_13  and  C_16
REMARK                            x       y       z     vdW  Elec       q    Type
REMARK                         _______ _______ _______ _____ _____    ______ ____
ROOT
ATOM      1  N   UNL     1       1.780   7.859  20.591  0.00  0.00    +0.000 NA
ATOM      2  C   UNL     1       1.878   8.771  19.423  0.00  0.00    +0.000 C 
ATOM      3  C   UNL     1       0.599   9.556  19.029  0.00  0.00    +0.000 C 
ATOM      4  N   UNL     1      -0.126  10.155  20.190  0.00  0.00    +0.000 NA
ATOM      5  C   UNL     1      -0.206   9.233  21.360  0.00  0.00    +0.000 C 
ATOM      6  C   UNL     1       1.162   8.619  21.699  0.00  0.00    +0.000 C 
ENDROOT
BRANCH   4   7
ATOM      7  S   UNL     1       0.203  11.784  20.566  0.00  0.00    +0.000 S 
ATOM      8  O   UNL     1       1.287  11.842  21.522  0.00  0.00    +0.000 OA
ATOM      9  O   UNL     1       0.294  12.492  19.305  0.00  0.00    +0.000 OA
BRANCH   7  10
ATOM     10  C   UNL     1      -1.255  12.339  21.396  0.00  0.00    +0.000 A 
ATOM     11  C   UNL     1      -1.229  12.593  22.772  0.00  0.00    +0.000 A 
ATOM     12  C   UNL     1      -2.399  12.992  23.423  0.00  0.00    +0.000 A 
ATOM     13  C   UNL     1      -3.588  13.132  22.705  0.00  0.00    +0.000 A 
ATOM     14  C   UNL     1      -3.602  12.865  21.331  0.00  0.00    +0.000 A 
ATOM     15  C   UNL     1      -2.440  12.463  20.685  0.00  0.00    +0.000 A 
ATOM     16  F   UNL     1      -2.501  12.207  19.373  0.00  0.00    +0.000 F 
ENDBRANCH   7  10
ENDBRANCH   4   7
BRANCH   1  17
ATOM     17  C   UNL     1       1.092   6.602  20.255  0.00  0.00    +0.000 C 
BRANCH  17  22
ATOM     18  C   UNL     1       4.879   4.386  17.205  0.00  0.00    +0.000 A 
ATOM     19  C   UNL     1       4.091   5.536  17.060  0.00  0.00    +0.000 A 
ATOM     20  C   UNL     1       3.184   5.919  18.065  0.00  0.00    +0.000 A 
ATOM     21  C   UNL     1       3.017   5.139  19.214  0.00  0.00    +0.000 A 
ATOM     22  C   UNL     1       1.968   5.360  20.226  0.00  0.00    +0.000 A 
ATOM     23  C   UNL     1       1.749   4.360  21.098  0.00  0.00    +0.000 A 
ATOM     24  C   UNL     1       2.574   3.146  21.183  0.00  0.00    +0.000 A 
ATOM     25  O   UNL     1       2.271   2.238  21.947  0.00  0.00    +0.000 OA
ATOM     26  O   UNL     1       3.717   3.116  20.416  0.00  0.00    +0.000 OA
ATOM     27  C   UNL     1       3.851   4.025  19.353  0.00  0.00    +0.000 A 
ATOM     28  C   UNL     1       4.797   3.664  18.395  0.00  0.00    +0.000 A 
BRANCH  18  30
ATOM     29  C   UNL     1       6.214   4.961  15.195  0.00  0.00    +0.000 C 
ATOM     30  C   UNL     1       5.680   3.823  16.059  0.00  0.00    +0.000 C 
ENDBRANCH  18  30
ENDBRANCH  17  22
ENDBRANCH   1  17
TORSDOF 5
ENDMDL
MODEL 4
REMARK VINA RESULT:      -7.6      3.659      8.741
REMARK  Name = 
REMARK  6 active torsions:
REMARK  status: ('A' for Active; 'I' for Inactive)
REMARK    1  A    between atoms: C_1  and  C_2
REMARK    2  A    between atoms: C_2  and  C_3
REMARK    3  A    between atoms: C_7  and  C_8
REMARK    4  A    between atoms: C_8  and  N_9
REMARK    5  A    between atoms: N_12  and  S_13
REMARK    6  A    between atoms: S_13  and  C_16
REMARK                            x       y       z     vdW  Elec       q    Type
REMARK                         _______ _______ _______ _____ _____    ______ ____
ROOT
ATOM      1  N   UNL     1       1.753   5.977  20.791  0.00  0.00    +0.000 NA
ATOM      2  C   UNL     1       1.475   4.520  20.719  0.00  0.00    +0.000 C 
ATOM      3  C   UNL     1       1.510   3.861  19.314  0.00  0.00    +0.000 C 
ATOM      4  N   UNL     1       2.671   4.286  18.475  0.00  0.00    +0.000 NA
ATOM      5  C   UNL     1       2.946   5.749  18.567  0.00  0.00    +0.000 C 
ATOM      6  C   UNL     1       2.992   6.232  20.025  0.00  0.00    +0.000 C 
ENDROOT
BRANCH   4   7
ATOM      7  S   UNL     1       4.048   3.283  18.474  0.00  0.00    +0.000 S 
ATOM      8  O   UNL     1       4.379   2.927  19.837  0.00  0.00    +0.000 OA
ATOM      9  O   UNL     1       3.814   2.254  17.481  0.00  0.00    +0.000 OA
BRANCH   7  10
ATOM     10  C   UNL     1       5.344   4.327  17.879  0.00  0.00    +0.000 A 
ATOM     11  C   UNL     1       6.256   4.897  18.773  0.00  0.00    +0.000 A 
ATOM     12  C   UNL     1       7.251   5.754  18.293  0.00  0.00    +0.000 A 
ATOM     13  C   UNL     1       7.329   6.042  16.929  0.00  0.00    +0.000 A 
ATOM     14  C   UNL     1       6.403   5.473  16.047  0.00  0.00    +0.000 A 
ATOM     15  C   UNL     1       5.412   4.626  16.526  0.00  0.00    +0.000 A 
ATOM     16  F   UNL     1       4.540   4.113  15.649  0.00  0.00    +0.000 F 
ENDBRANCH   7  10
ENDBRANCH   4   7
BRANCH   1  17
ATOM     17  C   UNL     1       0.596   6.783  20.366  0.00  0.00    +0.000 C 
BRANCH  17  22
ATOM     18  C   UNL     1       1.760  11.712  18.664  0.00  0.00    +0.000 A 
ATOM     19  C   UNL     1       1.910  10.445  18.086  0.00  0.00    +0.000 A 
ATOM     20  C   UNL     1       1.462   9.290  18.753  0.00  0.00    +0.000 A 
ATOM     21  C   UNL     1       0.896   9.376  20.030  0.00  0.00    +0.000 A 
ATOM     22  C   UNL     1       0.569   8.214  20.876  0.00  0.00    +0.000 A 
ATOM     23  C   UNL     1       0.321   8.463  22.174  0.00  0.00    +0.000 A 
ATOM     24  C   UNL     1       0.220   9.811  22.750  0.00  0.00    +0.000 A 
ATOM     25  O   UNL     1       0.071   9.966  23.955  0.00  0.00    +0.000 OA
ATOM     26  O   UNL     1       0.243  10.868  21.866  0.00  0.00    +0.000 OA
ATOM     27  C   UNL     1       0.716  10.657  20.561  0.00  0.00    +0.000 A 
ATOM     28  C   UNL     1       1.098  11.816  19.887  0.00  0.00    +0.000 A 
BRANCH  18  30
ATOM     29  C   UNL     1       1.942  14.182  18.814  0.00  0.00    +0.000 C 
ATOM     30  C   UNL     1       2.432  12.932  18.088  0.00  0.00    +0.000 C 
ENDBRANCH  18  30
ENDBRANCH  17  22
ENDBRANCH   1  17
TORSDOF 5
ENDMDL
MODEL 5
REMARK VINA RESULT:      -7.5      3.356      9.537
REMARK  Name = 
REMARK  6 active torsions:
REMARK  status: ('A' for Active; 'I' for Inactive)
REMARK    1  A    between atoms: C_1  and  C_2
REMARK    2  A    between atoms: C_2  and  C_3
REMARK    3  A    between atoms: C_7  and  C_8
REMARK    4  A    between atoms: C_8  and  N_9
REMARK    5  A    between atoms: N_12  and  S_13
REMARK    6  A    between atoms: S_13  and  C_16
REMARK                            x       y       z     vdW  Elec       q    Type
REMARK                         _______ _______ _______ _____ _____    ______ ____
ROOT
ATOM      1  N   UNL     1       2.366   6.147  20.717  0.00  0.00    +0.000 NA
ATOM      2  C   UNL     1       2.235   4.726  21.124  0.00  0.00    +0.000 C 
ATOM      3  C   UNL     1       1.881   3.701  20.014  0.00  0.00    +0.000 C 
ATOM      4  N   UNL     1       2.656   3.886  18.749  0.00  0.00    +0.000 NA
ATOM      5  C   UNL     1       2.789   5.320  18.359  0.00  0.00    +0.000 C 
ATOM      6  C   UNL     1       3.255   6.192  19.536  0.00  0.00    +0.000 C 
ENDROOT
BRANCH   4   7
ATOM      7  S   UNL     1       4.056   2.939  18.539  0.00  0.00    +0.000 S 
ATOM      8  O   UNL     1       4.769   2.858  19.795  0.00  0.00    +0.000 OA
ATOM      9  O   UNL     1       3.644   1.734  17.847  0.00  0.00    +0.000 OA
BRANCH   7  10
ATOM     10  C   UNL     1       5.057   3.886  17.432  0.00  0.00    +0.000 A 
ATOM     11  C   UNL     1       4.873   3.779  16.050  0.00  0.00    +0.000 A 
ATOM     12  C   UNL     1       5.700   4.502  15.185  0.00  0.00    +0.000 A 
ATOM     13  C   UNL     1       6.706   5.322  15.699  0.00  0.00    +0.000 A 
ATOM     14  C   UNL     1       6.885   5.411  17.085  0.00  0.00    +0.000 A 
ATOM     15  C   UNL     1       6.067   4.688  17.943  0.00  0.00    +0.000 A 
ATOM     16  F   UNL     1       6.281   4.794  19.261  0.00  0.00    +0.000 F 
ENDBRANCH   7  10
ENDBRANCH   4   7
BRANCH   1  17
ATOM     17  C   UNL     1       1.056   6.789  20.518  0.00  0.00    +0.000 C 
BRANCH  17  22
ATOM     18  C   UNL     1      -0.640  11.450  22.505  0.00  0.00    +0.000 A 
ATOM     19  C   UNL     1      -0.818  10.121  22.911  0.00  0.00    +0.000 A 
ATOM     20  C   UNL     1      -0.203   9.066  22.213  0.00  0.00    +0.000 A 
ATOM     21  C   UNL     1       0.566   9.316  21.071  0.00  0.00    +0.000 A 
ATOM     22  C   UNL     1       1.093   8.269  20.176  0.00  0.00    +0.000 A 
ATOM     23  C   UNL     1       1.544   8.673  18.976  0.00  0.00    +0.000 A 
ATOM     24  C   UNL     1       1.669  10.081  18.573  0.00  0.00    +0.000 A 
ATOM     25  O   UNL     1       2.013  10.376  17.435  0.00  0.00    +0.000 OA
ATOM     26  O   UNL     1       1.442  11.028  19.546  0.00  0.00    +0.000 OA
ATOM     27  C   UNL     1       0.766  10.655  20.719  0.00  0.00    +0.000 A 
ATOM     28  C   UNL     1       0.213  11.715  21.435  0.00  0.00    +0.000 A 
BRANCH  18  30
ATOM     29  C   UNL     1      -2.862  12.067  23.420  0.00  0.00    +0.000 C 
ATOM     30  C   UNL     1      -1.464  12.574  23.082  0.00  0.00    +0.000 C 
ENDBRANCH  18  30
ENDBRANCH  17  22
ENDBRANCH   1  17
TORSDOF 5
ENDMDL
MODEL 6
REMARK VINA RESULT:      -7.5      1.239      1.540
REMARK  Name = 
REMARK  6 active torsions:
REMARK  status: ('A' for Active; 'I' for Inactive)
REMARK    1  A    between atoms: C_1  and  C_2
REMARK    2  A    between atoms: C_2  and  C_3
REMARK    3  A    between atoms: C_7  and  C_8
REMARK    4  A    between atoms: C_8  and  N_9
REMARK    5  A    between atoms: N_12  and  S_13
REMARK    6  A    between atoms: S_13  and  C_16
REMARK                            x       y       z     vdW  Elec       q    Type
REMARK                         _______ _______ _______ _____ _____    ______ ____
ROOT
ATOM      1  N   UNL     1       1.960   8.263  20.176  0.00  0.00    +0.000 NA
ATOM      2  C   UNL     1       1.669   9.558  19.511  0.00  0.00    +0.000 C 
ATOM      3  C   UNL     1       0.200  10.058  19.546  0.00  0.00    +0.000 C 
ATOM      4  N   UNL     1      -0.456   9.916  20.881  0.00  0.00    +0.000 NA
ATOM      5  C   UNL     1      -0.144   8.616  21.543  0.00  0.00    +0.000 C 
ATOM      6  C   UNL     1       1.363   8.312  21.528  0.00  0.00    +0.000 C 
ENDROOT
BRANCH   4   7
ATOM      7  S   UNL     1      -0.452  11.276  21.907  0.00  0.00    +0.000 S 
ATOM      8  O   UNL     1      -0.416  10.834  23.284  0.00  0.00    +0.000 OA
ATOM      9  O   UNL     1       0.561  12.179  21.397  0.00  0.00    +0.000 OA
BRANCH   7  10
ATOM     10  C   UNL     1      -2.030  12.024  21.640  0.00  0.00    +0.000 A 
ATOM     11  C   UNL     1      -2.405  12.442  20.359  0.00  0.00    +0.000 A 
ATOM     12  C   UNL     1      -3.639  13.070  20.170  0.00  0.00    +0.000 A 
ATOM     13  C   UNL     1      -4.490  13.283  21.256  0.00  0.00    +0.000 A 
ATOM     14  C   UNL     1      -4.099  12.869  22.535  0.00  0.00    +0.000 A 
ATOM     15  C   UNL     1      -2.869  12.250  22.722  0.00  0.00    +0.000 A 
ATOM     16  F   UNL     1      -2.530  11.881  23.963  0.00  0.00    +0.000 F 
ENDBRANCH   7  10
ENDBRANCH   4   7
BRANCH   1  17
ATOM     17  C   UNL     1       1.533   7.114  19.362  0.00  0.00    +0.000 C 
BRANCH  17  22
ATOM     18  C   UNL     1       5.797   5.283  16.713  0.00  0.00    +0.000 A 
ATOM     19  C   UNL     1       4.976   6.404  16.537  0.00  0.00    +0.000 A 
ATOM     20  C   UNL     1       3.926   6.677  17.433  0.00  0.00    +0.000 A 
ATOM     21  C   UNL     1       3.651   5.812  18.497  0.00  0.00    +0.000 A 
ATOM     22  C   UNL     1       2.468   5.916  19.371  0.00  0.00    +0.000 A 
ATOM     23  C   UNL     1       2.189   4.849  20.140  0.00  0.00    +0.000 A 
ATOM     24  C   UNL     1       3.058   3.669  20.258  0.00  0.00    +0.000 A 
ATOM     25  O   UNL     1       2.705   2.697  20.915  0.00  0.00    +0.000 OA
ATOM     26  O   UNL     1       4.292   3.742  19.651  0.00  0.00    +0.000 OA
ATOM     27  C   UNL     1       4.517   4.728  18.676  0.00  0.00    +0.000 A 
ATOM     28  C   UNL     1       5.597   4.476  17.832  0.00  0.00    +0.000 A 
BRANCH  18  30
ATOM     29  C   UNL     1       6.007   4.376  14.413  0.00  0.00    +0.000 C 
ATOM     30  C   UNL     1       6.770   4.836  15.651  0.00  0.00    +0.000 C 
ENDBRANCH  18  30
ENDBRANCH  17  22
ENDBRANCH   1  17
TORSDOF 5
ENDMDL
MODEL 7
REMARK VINA RESULT:      -7.5      1.649      2.290
REMARK  Name = 
REMARK  6 active torsions:
REMARK  status: ('A' for Active; 'I' for Inactive)
REMARK    1  A    between atoms: C_1  and  C_2
REMARK    2  A    between atoms: C_2  and  C_3
REMARK    3  A    between atoms: C_7  and  C_8
REMARK    4  A    between atoms: C_8  and  N_9
REMARK    5  A    between atoms: N_12  and  S_13
REMARK    6  A    between atoms: S_13  and  C_16
REMARK                            x       y       z     vdW  Elec       q    Type
REMARK                         _______ _______ _______ _____ _____    ______ ____
ROOT
ATOM      1  N   UNL     1       0.771   8.646  19.664  0.00  0.00    +0.000 NA
ATOM      2  C   UNL     1       0.018   9.159  20.836  0.00  0.00    +0.000 C 
ATOM      3  C   UNL     1       0.403  10.567  21.363  0.00  0.00    +0.000 C 
ATOM      4  N   UNL     1       0.591  11.586  20.286  0.00  0.00    +0.000 NA
ATOM      5  C   UNL     1       1.338  11.053  19.110  0.00  0.00    +0.000 C 
ATOM      6  C   UNL     1       0.770   9.706  18.634  0.00  0.00    +0.000 C 
ENDROOT
BRANCH   4   7
ATOM      7  S   UNL     1      -0.734  12.590  19.914  0.00  0.00    +0.000 S 
ATOM      8  O   UNL     1      -0.249  13.822  19.330  0.00  0.00    +0.000 OA
ATOM      9  O   UNL     1      -1.695  11.768  19.206  0.00  0.00    +0.000 OA
BRANCH   7  10
ATOM     10  C   UNL     1      -1.424  12.998  21.489  0.00  0.00    +0.000 A 
ATOM     11  C   UNL     1      -2.731  12.614  21.807  0.00  0.00    +0.000 A 
ATOM     12  C   UNL     1      -3.278  12.979  23.040  0.00  0.00    +0.000 A 
ATOM     13  C   UNL     1      -2.525  13.726  23.947  0.00  0.00    +0.000 A 
ATOM     14  C   UNL     1      -1.222  14.113  23.612  0.00  0.00    +0.000 A 
ATOM     15  C   UNL     1      -0.681  13.755  22.384  0.00  0.00    +0.000 A 
ATOM     16  F   UNL     1       0.565  14.155  22.100  0.00  0.00    +0.000 F 
ENDBRANCH   7  10
ENDBRANCH   4   7
BRANCH   1  17
ATOM     17  C   UNL     1       2.110   8.159  20.036  0.00  0.00    +0.000 C 
BRANCH  17  22
ATOM     18  C   UNL     1       4.773   4.949  16.696  0.00  0.00    +0.000 A 
ATOM     19  C   UNL     1       4.579   6.336  16.731  0.00  0.00    +0.000 A 
ATOM     20  C   UNL     1       3.856   6.936  17.778  0.00  0.00    +0.000 A 
ATOM     21  C   UNL     1       3.278   6.157  18.787  0.00  0.00    +0.000 A 
ATOM     22  C   UNL     1       2.356   6.676  19.814  0.00  0.00    +0.000 A 
ATOM     23  C   UNL     1       1.656   5.765  20.513  0.00  0.00    +0.000 A 
ATOM     24  C   UNL     1       1.860   4.313  20.409  0.00  0.00    +0.000 A 
ATOM     25  O   UNL     1       1.133   3.536  21.015  0.00  0.00    +0.000 OA
ATOM     26  O   UNL     1       2.931   3.887  19.654  0.00  0.00    +0.000 OA
ATOM     27  C   UNL     1       3.529   4.782  18.752  0.00  0.00    +0.000 A 
ATOM     28  C   UNL     1       4.294   4.179  17.754  0.00  0.00    +0.000 A 
BRANCH  18  30
ATOM     29  C   UNL     1       6.696   4.850  15.131  0.00  0.00    +0.000 C 
ATOM     30  C   UNL     1       5.334   4.256  15.481  0.00  0.00    +0.000 C 
ENDBRANCH  18  30
ENDBRANCH  17  22
ENDBRANCH   1  17
TORSDOF 5
ENDMDL
MODEL 8
REMARK VINA RESULT:      -7.5      1.050      1.368
REMARK  Name = 
REMARK  6 active torsions:
REMARK  status: ('A' for Active; 'I' for Inactive)
REMARK    1  A    between atoms: C_1  and  C_2
REMARK    2  A    between atoms: C_2  and  C_3
REMARK    3  A    between atoms: C_7  and  C_8
REMARK    4  A    between atoms: C_8  and  N_9
REMARK    5  A    between atoms: N_12  and  S_13
REMARK    6  A    between atoms: S_13  and  C_16
REMARK                            x       y       z     vdW  Elec       q    Type
REMARK                         _______ _______ _______ _____ _____    ______ ____
ROOT
ATOM      1  N   UNL     1       2.208   8.168  19.088  0.00  0.00    +0.000 NA
ATOM      2  C   UNL     1       1.872   9.381  18.301  0.00  0.00    +0.000 C 
ATOM      3  C   UNL     1       0.436   9.951  18.456  0.00  0.00    +0.000 C 
ATOM      4  N   UNL     1      -0.042  10.011  19.871  0.00  0.00    +0.000 NA
ATOM      5  C   UNL     1       0.314   8.791  20.653  0.00  0.00    +0.000 C 
ATOM      6  C   UNL     1       1.795   8.416  20.486  0.00  0.00    +0.000 C 
ENDROOT
BRANCH   4   7
ATOM      7  S   UNL     1       0.140  11.488  20.700  0.00  0.00    +0.000 S 
ATOM      8  O   UNL     1       0.827  11.250  21.950  0.00  0.00    +0.000 OA
ATOM      9  O   UNL     1       0.662  12.442  19.742  0.00  0.00    +0.000 OA
BRANCH   7  10
ATOM     10  C   UNL     1      -1.514  11.968  21.097  0.00  0.00    +0.000 A 
ATOM     11  C   UNL     1      -2.401  12.346  20.084  0.00  0.00    +0.000 A 
ATOM     12  C   UNL     1      -3.693  12.763  20.417  0.00  0.00    +0.000 A 
ATOM     13  C   UNL     1      -4.093  12.806  21.754  0.00  0.00    +0.000 A 
ATOM     14  C   UNL     1      -3.192  12.434  22.759  0.00  0.00    +0.000 A 
ATOM     15  C   UNL     1      -1.906  12.025  22.427  0.00  0.00    +0.000 A 
ATOM     16  F   UNL     1      -1.073  11.690  23.420  0.00  0.00    +0.000 F 
ENDBRANCH   7  10
ENDBRANCH   4   7
BRANCH   1  17
ATOM     17  C   UNL     1       1.641   6.947  18.493  0.00  0.00    +0.000 C 
BRANCH  17  22
ATOM     18  C   UNL     1       6.029   5.169  16.016  0.00  0.00    +0.000 A 
ATOM     19  C   UNL     1       5.241   6.317  15.851  0.00  0.00    +0.000 A 
ATOM     20  C   UNL     1       4.142   6.564  16.695  0.00  0.00    +0.000 A 
ATOM     21  C   UNL     1       3.785   5.648  17.690  0.00  0.00    +0.000 A 
ATOM     22  C   UNL     1       2.552   5.731  18.494  0.00  0.00    +0.000 A 
ATOM     23  C   UNL     1       2.205   4.630  19.183  0.00  0.00    +0.000 A 
ATOM     24  C   UNL     1       3.042   3.426  19.290  0.00  0.00    +0.000 A 
ATOM     25  O   UNL     1       2.631   2.428  19.868  0.00  0.00    +0.000 OA
ATOM     26  O   UNL     1       4.314   3.505  18.765  0.00  0.00    +0.000 OA
ATOM     27  C   UNL     1       4.617   4.537  17.862  0.00  0.00    +0.000 A 
ATOM     28  C   UNL     1       5.744   4.308  17.074  0.00  0.00    +0.000 A 
BRANCH  18  30
ATOM     29  C   UNL     1       6.383   3.993  13.860  0.00  0.00    +0.000 C 
ATOM     30  C   UNL     1       7.058   4.760  14.993  0.00  0.00    +0.000 C 
ENDBRANCH  18  30
ENDBRANCH  17  22
ENDBRANCH   1  17
TORSDOF 5
ENDMDL
MODEL 9
REMARK VINA RESULT:      -7.4      1.674      2.034
REMARK  Name = 
REMARK  6 active torsions:
REMARK  status: ('A' for Active; 'I' for Inactive)
REMARK    1  A    between atoms: C_1  and  C_2
REMARK    2  A    between atoms: C_2  and  C_3
REMARK    3  A    between atoms: C_7  and  C_8
REMARK    4  A    between atoms: C_8  and  N_9
REMARK    5  A    between atoms: N_12  and  S_13
REMARK    6  A    between atoms: S_13  and  C_16
REMARK                            x       y       z     vdW  Elec       q    Type
REMARK                         _______ _______ _______ _____ _____    ______ ____
ROOT
ATOM      1  N   UNL     1       1.799   8.096  20.453  0.00  0.00    +0.000 NA
ATOM      2  C   UNL     1       1.518   8.981  19.294  0.00  0.00    +0.000 C 
ATOM      3  C   UNL     1       0.169   9.749  19.301  0.00  0.00    +0.000 C 
ATOM      4  N   UNL     1      -0.166  10.372  20.618  0.00  0.00    +0.000 NA
ATOM      5  C   UNL     1       0.133   9.477  21.773  0.00  0.00    +0.000 C 
ATOM      6  C   UNL     1       1.546   8.878  21.682  0.00  0.00    +0.000 C 
ENDROOT
BRANCH   4   7
ATOM      7  S   UNL     1       0.243  12.010  20.839  0.00  0.00    +0.000 S 
ATOM      8  O   UNL     1       1.571  12.097  21.407  0.00  0.00    +0.000 OA
ATOM      9  O   UNL     1      -0.074  12.690  19.599  0.00  0.00    +0.000 OA
BRANCH   7  10
ATOM     10  C   UNL     1      -0.889  12.576  22.073  0.00  0.00    +0.000 A 
ATOM     11  C   UNL     1      -2.044  11.842  22.360  0.00  0.00    +0.000 A 
ATOM     12  C   UNL     1      -2.951  12.323  23.309  0.00  0.00    +0.000 A 
ATOM     13  C   UNL     1      -2.706  13.532  23.962  0.00  0.00    +0.000 A 
ATOM     14  C   UNL     1      -1.550  14.262  23.658  0.00  0.00    +0.000 A 
ATOM     15  C   UNL     1      -0.653  13.786  22.711  0.00  0.00    +0.000 A 
ATOM     16  F   UNL     1       0.433  14.521  22.443  0.00  0.00    +0.000 F 
ENDBRANCH   7  10
ENDBRANCH   4   7
BRANCH   1  17
ATOM     17  C   UNL     1       1.056   6.827  20.374  0.00  0.00    +0.000 C 
BRANCH  17  22
ATOM     18  C   UNL     1       4.825   4.619  17.297  0.00  0.00    +0.000 A 
ATOM     19  C   UNL     1       4.061   5.788  17.176  0.00  0.00    +0.000 A 
ATOM     20  C   UNL     1       3.153   6.162  18.184  0.00  0.00    +0.000 A 
ATOM     21  C   UNL     1       2.960   5.354  19.309  0.00  0.00    +0.000 A 
ATOM     22  C   UNL     1       1.907   5.569  20.319  0.00  0.00    +0.000 A 
ATOM     23  C   UNL     1       1.660   4.550  21.160  0.00  0.00    +0.000 A 
ATOM     24  C   UNL     1       2.459   3.318  21.220  0.00  0.00    +0.000 A 
ATOM     25  O   UNL     1       2.131   2.396  21.956  0.00  0.00    +0.000 OA
ATOM     26  O   UNL     1       3.609   3.286  20.461  0.00  0.00    +0.000 OA
ATOM     27  C   UNL     1       3.771   4.220  19.425  0.00  0.00    +0.000 A 
ATOM     28  C   UNL     1       4.718   3.867  18.465  0.00  0.00    +0.000 A 
BRANCH  18  30
ATOM     29  C   UNL     1       7.062   4.575  16.226  0.00  0.00    +0.000 C 
ATOM     30  C   UNL     1       5.625   4.071  16.143  0.00  0.00    +0.000 C 
ENDBRANCH  18  30
ENDBRANCH  17  22
ENDBRANCH   1  17
TORSDOF 5
ENDMDL
