MODEL 1
REMARK VINA RESULT:      -8.5      0.000      0.000
REMARK  Name = 
REMARK  5 active torsions:
REMARK  status: ('A' for Active; 'I' for Inactive)
REMARK    1  A    between atoms: C_1  and  O_2
REMARK    2  A    between atoms: O_2  and  C_3
REMARK    3  A    between atoms: C_5  and  N_6
REMARK    4  A    between atoms: C_10  and  C_11
REMARK    5  A    between atoms: C_18  and  C_19
REMARK                            x       y       z     vdW  Elec       q    Type
REMARK                         _______ _______ _______ _____ _____    ______ ____
ROOT
ATOM      1  C   UNL     1       5.113   4.096  17.241  0.00  0.00    +0.000 A 
ATOM      2  C   UNL     1       6.155   4.098  16.210  0.00  0.00    +0.000 A 
ATOM      3  C   UNL     1       6.518   5.226  15.553  0.00  0.00    +0.000 A 
ATOM      4  N   UNL     1       5.897   6.412  15.878  0.00  0.00    +0.000 N 
ATOM      5  C   UNL     1       4.877   6.467  16.789  0.00  0.00    +0.000 A 
ATOM      6  N   UNL     1       4.146   7.494  17.146  0.00  0.00    +0.000 NA
ATOM      7  C   UNL     1       3.252   6.985  18.090  0.00  0.00    +0.000 A 
ATOM      8  C   UNL     1       3.392   5.660  18.360  0.00  0.00    +0.000 A 
ATOM      9  C   UNL     1       4.466   5.236  17.517  0.00  0.00    +0.000 A 
ATOM     10  H   UNL     1       6.065   7.218  15.296  0.00  0.00    +0.000 HD
ENDROOT
BRANCH   7  11
ATOM     11  C   UNL     1       2.230   7.842  18.709  0.00  0.00    +0.000 A 
ATOM     12  C   UNL     1       1.574   8.818  17.946  0.00  0.00    +0.000 A 
ATOM     13  C   UNL     1       0.704   9.725  18.556  0.00  0.00    +0.000 A 
ATOM     14  C   UNL     1       0.485   9.650  19.928  0.00  0.00    +0.000 A 
ATOM     15  F   UNL     1      -0.323  10.540  20.517  0.00  0.00    +0.000 F 
ATOM     16  C   UNL     1       1.101   8.669  20.696  0.00  0.00    +0.000 A 
ATOM     17  C   UNL     1       1.973   7.761  20.087  0.00  0.00    +0.000 A 
ENDBRANCH   7  11
BRANCH   8  18
ATOM     18  C   UNL     1       2.558   4.865  19.252  0.00  0.00    +0.000 A 
ATOM     19  C   UNL     1       2.949   4.675  20.577  0.00  0.00    +0.000 A 
ATOM     20  C   UNL     1       2.162   3.874  21.384  0.00  0.00    +0.000 A 
ATOM     21  N   UNL     1       1.027   3.273  20.968  0.00  0.00    +0.000 NA
ATOM     22  C   UNL     1       0.662   3.487  19.685  0.00  0.00    +0.000 A 
ATOM     23  C   UNL     1       1.384   4.267  18.797  0.00  0.00    +0.000 A 
ENDBRANCH   8  18
BRANCH   3  24
ATOM     24  N   UNL     1       7.478   5.186  14.572  0.00  0.00    +0.000 N 
ATOM     25  H   UNL     1       8.013   4.321  14.553  0.00  0.00    +0.000 HD
ATOM     26  H   UNL     1       8.082   6.003  14.583  0.00  0.00    +0.000 HD
ENDBRANCH   3  24
BRANCH   1  28
ATOM     27  C   UNL     1       3.688   2.168  17.298  0.00  0.00    +0.000 C 
ATOM     28  O   UNL     1       4.758   2.914  17.867  0.00  0.00    +0.000 OA
ENDBRANCH   1  28
TORSDOF 4
ENDMDL
MODEL 2
REMARK VINA RESULT:      -7.9      0.284      1.378
REMARK  Name = 
REMARK  5 active torsions:
REMARK  status: ('A' for Active; 'I' for Inactive)
REMARK    1  A    between atoms: C_1  and  O_2
REMARK    2  A    between atoms: O_2  and  C_3
REMARK    3  A    between atoms: C_5  and  N_6
REMARK    4  A    between atoms: C_10  and  C_11
REMARK    5  A    between atoms: C_18  and  C_19
REMARK                            x       y       z     vdW  Elec       q    Type
REMARK                         _______ _______ _______ _____ _____    ______ ____
ROOT
ATOM      1  C   UNL     1       4.968   4.046  16.968  0.00  0.00    +0.000 A 
ATOM      2  C   UNL     1       5.914   4.019  15.848  0.00  0.00    +0.000 A 
ATOM      3  C   UNL     1       6.257   5.138  15.166  0.00  0.00    +0.000 A 
ATOM      4  N   UNL     1       5.708   6.342  15.548  0.00  0.00    +0.000 N 
ATOM      5  C   UNL     1       4.775   6.426  16.546  0.00  0.00    +0.000 A 
ATOM      6  N   UNL     1       4.113   7.475  16.969  0.00  0.00    +0.000 NA
ATOM      7  C   UNL     1       3.289   6.991  17.987  0.00  0.00    +0.000 A 
ATOM      8  C   UNL     1       3.407   5.660  18.238  0.00  0.00    +0.000 A 
ATOM      9  C   UNL     1       4.387   5.206  17.303  0.00  0.00    +0.000 A 
ATOM     10  H   UNL     1       5.851   7.145  14.956  0.00  0.00    +0.000 HD
ENDROOT
BRANCH   7  11
ATOM     11  C   UNL     1       2.355   7.878  18.696  0.00  0.00    +0.000 A 
ATOM     12  C   UNL     1       2.103   7.687  20.062  0.00  0.00    +0.000 A 
ATOM     13  C   UNL     1       1.116   8.434  20.709  0.00  0.00    +0.000 A 
ATOM     14  C   UNL     1       0.388   9.377  19.991  0.00  0.00    +0.000 A 
ATOM     15  F   UNL     1      -0.580  10.070  20.605  0.00  0.00    +0.000 F 
ATOM     16  C   UNL     1       0.645   9.604  18.645  0.00  0.00    +0.000 A 
ATOM     17  C   UNL     1       1.632   8.856  17.995  0.00  0.00    +0.000 A 
ENDBRANCH   7  11
BRANCH   8  18
ATOM     18  C   UNL     1       2.628   4.889  19.199  0.00  0.00    +0.000 A 
ATOM     19  C   UNL     1       1.407   4.337  18.814  0.00  0.00    +0.000 A 
ATOM     20  C   UNL     1       0.668   3.653  19.763  0.00  0.00    +0.000 A 
ATOM     21  N   UNL     1       1.067   3.478  21.041  0.00  0.00    +0.000 NA
ATOM     22  C   UNL     1       2.261   4.008  21.383  0.00  0.00    +0.000 A 
ATOM     23  C   UNL     1       3.071   4.713  20.508  0.00  0.00    +0.000 A 
ENDBRANCH   8  18
BRANCH   3  24
ATOM     24  N   UNL     1       7.125   5.071  14.104  0.00  0.00    +0.000 N 
ATOM     25  H   UNL     1       8.104   5.007  14.374  0.00  0.00    +0.000 HD
ATOM     26  H   UNL     1       6.968   5.810  13.424  0.00  0.00    +0.000 HD
ENDBRANCH   3  24
BRANCH   1  28
ATOM     27  C   UNL     1       3.490   2.165  17.141  0.00  0.00    +0.000 C 
ATOM     28  O   UNL     1       4.629   2.873  17.618  0.00  0.00    +0.000 OA
ENDBRANCH   1  28
TORSDOF 4
ENDMDL
MODEL 3
REMARK VINA RESULT:      -7.4      3.257      5.965
REMARK  Name = 
REMARK  5 active torsions:
REMARK  status: ('A' for Active; 'I' for Inactive)
REMARK    1  A    between atoms: C_1  and  O_2
REMARK    2  A    between atoms: O_2  and  C_3
REMARK    3  A    between atoms: C_5  and  N_6
REMARK    4  A    between atoms: C_10  and  C_11
REMARK    5  A    between atoms: C_18  and  C_19
REMARK                            x       y       z     vdW  Elec       q    Type
REMARK                         _______ _______ _______ _____ _____    ______ ____
ROOT
ATOM      1  C   UNL     1       1.881   6.034  20.245  0.00  0.00    +0.000 A 
ATOM      2  C   UNL     1       1.259   7.268  20.734  0.00  0.00    +0.000 A 
ATOM      3  C   UNL     1       1.438   8.461  20.116  0.00  0.00    +0.000 A 
ATOM      4  N   UNL     1       2.220   8.509  18.983  0.00  0.00    +0.000 N 
ATOM      5  C   UNL     1       2.876   7.405  18.510  0.00  0.00    +0.000 A 
ATOM      6  N   UNL     1       3.705   7.309  17.500  0.00  0.00    +0.000 NA
ATOM      7  C   UNL     1       4.084   5.965  17.475  0.00  0.00    +0.000 A 
ATOM      8  C   UNL     1       3.515   5.189  18.436  0.00  0.00    +0.000 A 
ATOM      9  C   UNL     1       2.690   6.089  19.179  0.00  0.00    +0.000 A 
ATOM     10  H   UNL     1       2.468   9.412  18.608  0.00  0.00    +0.000 HD
ENDROOT
BRANCH   7  11
ATOM     11  C   UNL     1       5.050   5.465  16.486  0.00  0.00    +0.000 A 
ATOM     12  C   UNL     1       6.410   5.782  16.609  0.00  0.00    +0.000 A 
ATOM     13  C   UNL     1       7.312   5.428  15.601  0.00  0.00    +0.000 A 
ATOM     14  C   UNL     1       6.852   4.751  14.477  0.00  0.00    +0.000 A 
ATOM     15  F   UNL     1       7.710   4.441  13.496  0.00  0.00    +0.000 F 
ATOM     16  C   UNL     1       5.513   4.400  14.352  0.00  0.00    +0.000 A 
ATOM     17  C   UNL     1       4.610   4.754  15.359  0.00  0.00    +0.000 A 
ENDBRANCH   7  11
BRANCH   8  18
ATOM     18  C   UNL     1       3.779   3.776  18.676  0.00  0.00    +0.000 A 
ATOM     19  C   UNL     1       3.199   2.814  17.850  0.00  0.00    +0.000 A 
ATOM     20  C   UNL     1       3.428   1.481  18.135  0.00  0.00    +0.000 A 
ATOM     21  N   UNL     1       4.194   1.053  19.162  0.00  0.00    +0.000 NA
ATOM     22  C   UNL     1       4.757   2.005  19.936  0.00  0.00    +0.000 A 
ATOM     23  C   UNL     1       4.584   3.365  19.737  0.00  0.00    +0.000 A 
ENDBRANCH   8  18
BRANCH   3  24
ATOM     24  N   UNL     1       0.863   9.602  20.618  0.00  0.00    +0.000 N 
ATOM     25  H   UNL     1       1.061   9.765  21.602  0.00  0.00    +0.000 HD
ATOM     26  H   UNL     1      -0.132   9.657  20.419  0.00  0.00    +0.000 HD
ENDBRANCH   3  24
BRANCH   1  28
ATOM     27  C   UNL     1       0.751   3.922  20.379  0.00  0.00    +0.000 C 
ATOM     28  O   UNL     1       1.689   4.844  20.924  0.00  0.00    +0.000 OA
ENDBRANCH   1  28
TORSDOF 4
ENDMDL
MODEL 4
REMARK VINA RESULT:      -6.9      3.276      5.861
REMARK  Name = 
REMARK  5 active torsions:
REMARK  status: ('A' for Active; 'I' for Inactive)
REMARK    1  A    between atoms: C_1  and  O_2
REMARK    2  A    between atoms: O_2  and  C_3
REMARK    3  A    between atoms: C_5  and  N_6
REMARK    4  A    between atoms: C_10  and  C_11
REMARK    5  A    between atoms: C_18  and  C_19
REMARK                            x       y       z     vdW  Elec       q    Type
REMARK                         _______ _______ _______ _____ _____    ______ ____
ROOT
ATOM      1  C   UNL     1       1.769   6.111  20.315  0.00  0.00    +0.000 A 
ATOM      2  C   UNL     1       1.148   7.328  20.849  0.00  0.00    +0.000 A 
ATOM      3  C   UNL     1       1.332   8.542  20.277  0.00  0.00    +0.000 A 
ATOM      4  N   UNL     1       2.116   8.632  19.148  0.00  0.00    +0.000 N 
ATOM      5  C   UNL     1       2.770   7.545  18.635  0.00  0.00    +0.000 A 
ATOM      6  N   UNL     1       3.602   7.485  17.624  0.00  0.00    +0.000 NA
ATOM      7  C   UNL     1       3.977   6.143  17.549  0.00  0.00    +0.000 A 
ATOM      8  C   UNL     1       3.405   5.332  18.478  0.00  0.00    +0.000 A 
ATOM      9  C   UNL     1       2.580   6.205  19.253  0.00  0.00    +0.000 A 
ATOM     10  H   UNL     1       2.367   9.548  18.808  0.00  0.00    +0.000 HD
ENDROOT
BRANCH   7  11
ATOM     11  C   UNL     1       4.944   5.678  16.543  0.00  0.00    +0.000 A 
ATOM     12  C   UNL     1       4.496   5.038  15.379  0.00  0.00    +0.000 A 
ATOM     13  C   UNL     1       5.411   4.472  14.487  0.00  0.00    +0.000 A 
ATOM     14  C   UNL     1       6.772   4.553  14.757  0.00  0.00    +0.000 A 
ATOM     15  F   UNL     1       7.646   3.981  13.919  0.00  0.00    +0.000 F 
ATOM     16  C   UNL     1       7.238   5.211  15.889  0.00  0.00    +0.000 A 
ATOM     17  C   UNL     1       6.323   5.777  16.783  0.00  0.00    +0.000 A 
ENDBRANCH   7  11
BRANCH   8  18
ATOM     18  C   UNL     1       3.665   3.910  18.665  0.00  0.00    +0.000 A 
ATOM     19  C   UNL     1       4.485   3.488  19.711  0.00  0.00    +0.000 A 
ATOM     20  C   UNL     1       4.752   2.137  19.830  0.00  0.00    +0.000 A 
ATOM     21  N   UNL     1       4.255   1.197  18.998  0.00  0.00    +0.000 NA
ATOM     22  C   UNL     1       3.451   1.631  18.004  0.00  0.00    +0.000 A 
ATOM     23  C   UNL     1       3.127   2.961  17.797  0.00  0.00    +0.000 A 
ENDBRANCH   8  18
BRANCH   3  24
ATOM     24  N   UNL     1       0.758   9.665  20.821  0.00  0.00    +0.000 N 
ATOM     25  H   UNL     1       1.427  10.315  21.228  0.00  0.00    +0.000 HD
ATOM     26  H   UNL     1       0.005   9.444  21.467  0.00  0.00    +0.000 HD
ENDBRANCH   3  24
BRANCH   1  28
ATOM     27  C   UNL     1       0.672   3.978  20.339  0.00  0.00    +0.000 C 
ATOM     28  O   UNL     1       1.573   4.897  20.948  0.00  0.00    +0.000 OA
ENDBRANCH   1  28
TORSDOF 4
ENDMDL
MODEL 5
REMARK VINA RESULT:      -6.6      8.741     10.463
REMARK  Name = 
REMARK  5 active torsions:
REMARK  status: ('A' for Active; 'I' for Inactive)
REMARK    1  A    between atoms: C_1  and  O_2
REMARK    2  A    between atoms: O_2  and  C_3
REMARK    3  A    between atoms: C_5  and  N_6
REMARK    4  A    between atoms: C_10  and  C_11
REMARK    5  A    between atoms: C_18  and  C_19
REMARK                            x       y       z     vdW  Elec       q    Type
REMARK                         _______ _______ _______ _____ _____    ______ ____
ROOT
ATOM      1  C   UNL     1      -4.850  11.522  17.319  0.00  0.00    +0.000 A 
ATOM      2  C   UNL     1      -4.414  10.950  16.041  0.00  0.00    +0.000 A 
ATOM      3  C   UNL     1      -3.114  10.673  15.780  0.00  0.00    +0.000 A 
ATOM      4  N   UNL     1      -2.174  10.924  16.755  0.00  0.00    +0.000 N 
ATOM      5  C   UNL     1      -2.507  11.513  17.945  0.00  0.00    +0.000 A 
ATOM      6  N   UNL     1      -1.725  11.880  18.930  0.00  0.00    +0.000 NA
ATOM      7  C   UNL     1      -2.584  12.433  19.882  0.00  0.00    +0.000 A 
ATOM      8  C   UNL     1      -3.901  12.425  19.542  0.00  0.00    +0.000 A 
ATOM      9  C   UNL     1      -3.930  11.824  18.245  0.00  0.00    +0.000 A 
ATOM     10  H   UNL     1      -1.198  10.853  16.512  0.00  0.00    +0.000 HD
ENDROOT
BRANCH   7  11
ATOM     11  C   UNL     1      -2.067  12.998  21.137  0.00  0.00    +0.000 A 
ATOM     12  C   UNL     1      -2.063  12.226  22.307  0.00  0.00    +0.000 A 
ATOM     13  C   UNL     1      -1.704  12.799  23.530  0.00  0.00    +0.000 A 
ATOM     14  C   UNL     1      -1.342  14.141  23.579  0.00  0.00    +0.000 A 
ATOM     15  F   UNL     1      -1.030  14.698  24.756  0.00  0.00    +0.000 F 
ATOM     16  C   UNL     1      -1.309  14.914  22.425  0.00  0.00    +0.000 A 
ATOM     17  C   UNL     1      -1.669  14.343  21.200  0.00  0.00    +0.000 A 
ENDBRANCH   7  11
BRANCH   8  18
ATOM     18  C   UNL     1      -4.998  12.990  20.316  0.00  0.00    +0.000 A 
ATOM     19  C   UNL     1      -5.794  12.155  21.100  0.00  0.00    +0.000 A 
ATOM     20  C   UNL     1      -6.858  12.715  21.783  0.00  0.00    +0.000 A 
ATOM     21  N   UNL     1      -7.166  14.029  21.746  0.00  0.00    +0.000 NA
ATOM     22  C   UNL     1      -6.370  14.818  20.993  0.00  0.00    +0.000 A 
ATOM     23  C   UNL     1      -5.285  14.354  20.269  0.00  0.00    +0.000 A 
ENDBRANCH   8  18
BRANCH   3  24
ATOM     24  N   UNL     1      -2.738  10.163  14.561  0.00  0.00    +0.000 N 
ATOM     25  H   UNL     1      -3.472  10.196  13.857  0.00  0.00    +0.000 HD
ATOM     26  H   UNL     1      -2.326   9.238  14.636  0.00  0.00    +0.000 HD
ENDBRANCH   3  24
BRANCH   1  28
ATOM     27  C   UNL     1      -6.680  13.040  17.007  0.00  0.00    +0.000 C 
ATOM     28  O   UNL     1      -6.186  11.812  17.530  0.00  0.00    +0.000 OA
ENDBRANCH   1  28
TORSDOF 4
ENDMDL
MODEL 6
REMARK VINA RESULT:      -6.6      3.158      6.005
REMARK  Name = 
REMARK  5 active torsions:
REMARK  status: ('A' for Active; 'I' for Inactive)
REMARK    1  A    between atoms: C_1  and  O_2
REMARK    2  A    between atoms: O_2  and  C_3
REMARK    3  A    between atoms: C_5  and  N_6
REMARK    4  A    between atoms: C_10  and  C_11
REMARK    5  A    between atoms: C_18  and  C_19
REMARK                            x       y       z     vdW  Elec       q    Type
REMARK                         _______ _______ _______ _____ _____    ______ ____
ROOT
ATOM      1  C   UNL     1       0.865   8.780  19.983  0.00  0.00    +0.000 A 
ATOM      2  C   UNL     1       0.607  10.221  19.895  0.00  0.00    +0.000 A 
ATOM      3  C   UNL     1       1.182  11.001  18.948  0.00  0.00    +0.000 A 
ATOM      4  N   UNL     1       2.024  10.415  18.029  0.00  0.00    +0.000 N 
ATOM      5  C   UNL     1       2.353   9.088  18.093  0.00  0.00    +0.000 A 
ATOM      6  N   UNL     1       3.188   8.409  17.346  0.00  0.00    +0.000 NA
ATOM      7  C   UNL     1       3.147   7.109  17.855  0.00  0.00    +0.000 A 
ATOM      8  C   UNL     1       2.302   6.928  18.904  0.00  0.00    +0.000 A 
ATOM      9  C   UNL     1       1.731   8.220  19.128  0.00  0.00    +0.000 A 
ATOM     10  H   UNL     1       2.560  11.013  17.418  0.00  0.00    +0.000 HD
ENDROOT
BRANCH   7  11
ATOM     11  C   UNL     1       3.990   6.044  17.291  0.00  0.00    +0.000 A 
ATOM     12  C   UNL     1       5.198   6.366  16.655  0.00  0.00    +0.000 A 
ATOM     13  C   UNL     1       5.934   5.377  15.997  0.00  0.00    +0.000 A 
ATOM     14  C   UNL     1       5.465   4.067  15.983  0.00  0.00    +0.000 A 
ATOM     15  F   UNL     1       6.155   3.127  15.325  0.00  0.00    +0.000 F 
ATOM     16  C   UNL     1       4.288   3.723  16.636  0.00  0.00    +0.000 A 
ATOM     17  C   UNL     1       3.549   4.712  17.294  0.00  0.00    +0.000 A 
ENDBRANCH   7  11
BRANCH   8  18
ATOM     18  C   UNL     1       2.111   5.697  19.660  0.00  0.00    +0.000 A 
ATOM     19  C   UNL     1       1.152   4.773  19.246  0.00  0.00    +0.000 A 
ATOM     20  C   UNL     1       0.960   3.639  20.013  0.00  0.00    +0.000 A 
ATOM     21  N   UNL     1       1.658   3.366  21.136  0.00  0.00    +0.000 NA
ATOM     22  C   UNL     1       2.592   4.269  21.506  0.00  0.00    +0.000 A 
ATOM     23  C   UNL     1       2.855   5.436  20.809  0.00  0.00    +0.000 A 
ENDBRANCH   8  18
BRANCH   3  24
ATOM     24  N   UNL     1       0.940  12.352  18.913  0.00  0.00    +0.000 N 
ATOM     25  H   UNL     1      -0.044  12.592  18.818  0.00  0.00    +0.000 HD
ATOM     26  H   UNL     1       1.514  12.834  18.227  0.00  0.00    +0.000 HD
ENDBRANCH   3  24
BRANCH   1  28
ATOM     27  C   UNL     1      -0.348   8.735  22.051  0.00  0.00    +0.000 C 
ATOM     28  O   UNL     1       0.275   8.030  20.984  0.00  0.00    +0.000 OA
ENDBRANCH   1  28
TORSDOF 4
ENDMDL
MODEL 7
REMARK VINA RESULT:      -6.5      7.429     10.899
REMARK  Name = 
REMARK  5 active torsions:
REMARK  status: ('A' for Active; 'I' for Inactive)
REMARK    1  A    between atoms: C_1  and  O_2
REMARK    2  A    between atoms: O_2  and  C_3
REMARK    3  A    between atoms: C_5  and  N_6
REMARK    4  A    between atoms: C_10  and  C_11
REMARK    5  A    between atoms: C_18  and  C_19
REMARK                            x       y       z     vdW  Elec       q    Type
REMARK                         _______ _______ _______ _____ _____    ______ ____
ROOT
ATOM      1  C   UNL     1      -3.129  13.519  22.229  0.00  0.00    +0.000 A 
ATOM      2  C   UNL     1      -4.195  14.014  23.105  0.00  0.00    +0.000 A 
ATOM      3  C   UNL     1      -5.506  13.803  22.837  0.00  0.00    +0.000 A 
ATOM      4  N   UNL     1      -5.845  13.087  21.710  0.00  0.00    +0.000 N 
ATOM      5  C   UNL     1      -4.901  12.650  20.821  0.00  0.00    +0.000 A 
ATOM      6  N   UNL     1      -5.070  12.029  19.679  0.00  0.00    +0.000 NA
ATOM      7  C   UNL     1      -3.779  11.836  19.183  0.00  0.00    +0.000 A 
ATOM      8  C   UNL     1      -2.781  12.306  19.978  0.00  0.00    +0.000 A 
ATOM      9  C   UNL     1      -3.458  12.875  21.101  0.00  0.00    +0.000 A 
ATOM     10  H   UNL     1      -6.815  13.053  21.436  0.00  0.00    +0.000 HD
ENDROOT
BRANCH   7  11
ATOM     11  C   UNL     1      -3.552  11.190  17.882  0.00  0.00    +0.000 A 
ATOM     12  C   UNL     1      -2.599  10.169  17.759  0.00  0.00    +0.000 A 
ATOM     13  C   UNL     1      -2.280   9.648  16.502  0.00  0.00    +0.000 A 
ATOM     14  C   UNL     1      -2.920  10.144  15.372  0.00  0.00    +0.000 A 
ATOM     15  F   UNL     1      -2.590   9.667  14.164  0.00  0.00    +0.000 F 
ATOM     16  C   UNL     1      -3.891  11.133  15.476  0.00  0.00    +0.000 A 
ATOM     17  C   UNL     1      -4.210  11.656  16.733  0.00  0.00    +0.000 A 
ENDBRANCH   7  11
BRANCH   8  18
ATOM     18  C   UNL     1      -1.355  12.291  19.677  0.00  0.00    +0.000 A 
ATOM     19  C   UNL     1      -0.530  11.348  20.286  0.00  0.00    +0.000 A 
ATOM     20  C   UNL     1       0.826  11.392  20.019  0.00  0.00    +0.000 A 
ATOM     21  N   UNL     1       1.399  12.291  19.190  0.00  0.00    +0.000 NA
ATOM     22  C   UNL     1       0.574  13.183  18.599  0.00  0.00    +0.000 A 
ATOM     23  C   UNL     1      -0.794  13.225  18.806  0.00  0.00    +0.000 A 
ENDBRANCH   8  18
BRANCH   3  24
ATOM     24  N   UNL     1      -6.479  14.305  23.666  0.00  0.00    +0.000 N 
ATOM     25  H   UNL     1      -7.180  14.865  23.187  0.00  0.00    +0.000 HD
ATOM     26  H   UNL     1      -6.093  14.790  24.471  0.00  0.00    +0.000 HD
ENDBRANCH   3  24
BRANCH   1  28
ATOM     27  C   UNL     1      -1.520  14.317  23.818  0.00  0.00    +0.000 C 
ATOM     28  O   UNL     1      -1.804  13.781  22.531  0.00  0.00    +0.000 OA
ENDBRANCH   1  28
TORSDOF 4
ENDMDL
MODEL 8
REMARK VINA RESULT:      -6.5      9.080     10.571
REMARK  Name = 
REMARK  5 active torsions:
REMARK  status: ('A' for Active; 'I' for Inactive)
REMARK    1  A    between atoms: C_1  and  O_2
REMARK    2  A    between atoms: O_2  and  C_3
REMARK    3  A    between atoms: C_5  and  N_6
REMARK    4  A    between atoms: C_10  and  C_11
REMARK    5  A    between atoms: C_18  and  C_19
REMARK                            x       y       z     vdW  Elec       q    Type
REMARK                         _______ _______ _______ _____ _____    ______ ____
ROOT
ATOM      1  C   UNL     1       9.440  14.045  18.915  0.00  0.00    +0.000 A 
ATOM      2  C   UNL     1      10.406  13.434  17.997  0.00  0.00    +0.000 A 
ATOM      3  C   UNL     1      10.952  12.216  18.229  0.00  0.00    +0.000 A 
ATOM      4  N   UNL     1      10.573  11.525  19.359  0.00  0.00    +0.000 N 
ATOM      5  C   UNL     1       9.723  12.065  20.285  0.00  0.00    +0.000 A 
ATOM      6  N   UNL     1       9.331  11.568  21.433  0.00  0.00    +0.000 NA
ATOM      7  C   UNL     1       8.483  12.538  21.971  0.00  0.00    +0.000 A 
ATOM      8  C   UNL     1       8.308  13.643  21.198  0.00  0.00    +0.000 A 
ATOM      9  C   UNL     1       9.117  13.402  20.044  0.00  0.00    +0.000 A 
ATOM     10  H   UNL     1      11.082  10.689  19.604  0.00  0.00    +0.000 HD
ENDROOT
BRANCH   7  11
ATOM     11  C   UNL     1       7.862  12.357  23.292  0.00  0.00    +0.000 A 
ATOM     12  C   UNL     1       8.565  12.706  24.454  0.00  0.00    +0.000 A 
ATOM     13  C   UNL     1       8.038  12.410  25.714  0.00  0.00    +0.000 A 
ATOM     14  C   UNL     1       6.806  11.772  25.809  0.00  0.00    +0.000 A 
ATOM     15  F   UNL     1       6.317  11.459  27.016  0.00  0.00    +0.000 F 
ATOM     16  C   UNL     1       6.079  11.448  24.670  0.00  0.00    +0.000 A 
ATOM     17  C   UNL     1       6.605  11.743  23.409  0.00  0.00    +0.000 A 
ENDBRANCH   7  11
BRANCH   8  18
ATOM     18  C   UNL     1       7.530  14.826  21.542  0.00  0.00    +0.000 A 
ATOM     19  C   UNL     1       6.185  14.898  21.182  0.00  0.00    +0.000 A 
ATOM     20  C   UNL     1       5.488  16.054  21.478  0.00  0.00    +0.000 A 
ATOM     21  N   UNL     1       6.030  17.117  22.110  0.00  0.00    +0.000 NA
ATOM     22  C   UNL     1       7.330  17.015  22.463  0.00  0.00    +0.000 A 
ATOM     23  C   UNL     1       8.115  15.903  22.206  0.00  0.00    +0.000 A 
ENDBRANCH   8  18
BRANCH   3  24
ATOM     24  N   UNL     1      11.875  11.686  17.362  0.00  0.00    +0.000 N 
ATOM     25  H   UNL     1      11.928  12.170  16.469  0.00  0.00    +0.000 HD
ATOM     26  H   UNL     1      11.766  10.682  17.242  0.00  0.00    +0.000 HD
ENDBRANCH   3  24
BRANCH   1  28
ATOM     27  C   UNL     1       7.759  15.376  17.842  0.00  0.00    +0.000 C 
ATOM     28  O   UNL     1       8.929  15.303  18.648  0.00  0.00    +0.000 OA
ENDBRANCH   1  28
TORSDOF 4
ENDMDL
MODEL 9
REMARK VINA RESULT:      -6.4      7.342     10.853
REMARK  Name = 
REMARK  5 active torsions:
REMARK  status: ('A' for Active; 'I' for Inactive)
REMARK    1  A    between atoms: C_1  and  O_2
REMARK    2  A    between atoms: O_2  and  C_3
REMARK    3  A    between atoms: C_5  and  N_6
REMARK    4  A    between atoms: C_10  and  C_11
REMARK    5  A    between atoms: C_18  and  C_19
REMARK                            x       y       z     vdW  Elec       q    Type
REMARK                         _______ _______ _______ _____ _____    ______ ____
ROOT
ATOM      1  C   UNL     1      -2.833  13.567  22.372  0.00  0.00    +0.000 A 
ATOM      2  C   UNL     1      -3.858  14.059  23.298  0.00  0.00    +0.000 A 
ATOM      3  C   UNL     1      -5.180  13.845  23.093  0.00  0.00    +0.000 A 
ATOM      4  N   UNL     1      -5.570  13.127  21.984  0.00  0.00    +0.000 N 
ATOM      5  C   UNL     1      -4.668  12.692  21.051  0.00  0.00    +0.000 A 
ATOM      6  N   UNL     1      -4.889  12.069  19.919  0.00  0.00    +0.000 NA
ATOM      7  C   UNL     1      -3.623  11.879  19.363  0.00  0.00    +0.000 A 
ATOM      8  C   UNL     1      -2.590  12.353  20.108  0.00  0.00    +0.000 A 
ATOM      9  C   UNL     1      -3.214  12.921  21.262  0.00  0.00    +0.000 A 
ATOM     10  H   UNL     1      -6.552  13.090  21.756  0.00  0.00    +0.000 HD
ENDROOT
BRANCH   7  11
ATOM     11  C   UNL     1      -3.457  11.233  18.052  0.00  0.00    +0.000 A 
ATOM     12  C   UNL     1      -2.492  10.230  17.880  0.00  0.00    +0.000 A 
ATOM     13  C   UNL     1      -2.233   9.710  16.609  0.00  0.00    +0.000 A 
ATOM     14  C   UNL     1      -2.945  10.189  15.514  0.00  0.00    +0.000 A 
ATOM     15  F   UNL     1      -2.673   9.714  14.292  0.00  0.00    +0.000 F 
ATOM     16  C   UNL     1      -3.927  11.159  15.670  0.00  0.00    +0.000 A 
ATOM     17  C   UNL     1      -4.187  11.681  16.941  0.00  0.00    +0.000 A 
ENDBRANCH   7  11
BRANCH   8  18
ATOM     18  C   UNL     1      -1.180  12.342  19.740  0.00  0.00    +0.000 A 
ATOM     19  C   UNL     1      -0.687  13.306  18.863  0.00  0.00    +0.000 A 
ATOM     20  C   UNL     1       0.644  13.238  18.494  0.00  0.00    +0.000 A 
ATOM     21  N   UNL     1       1.501  12.296  18.944  0.00  0.00    +0.000 NA
ATOM     22  C   UNL     1       1.001  11.384  19.806  0.00  0.00    +0.000 A 
ATOM     23  C   UNL     1      -0.316  11.364  20.231  0.00  0.00    +0.000 A 
ENDBRANCH   8  18
BRANCH   3  24
ATOM     24  N   UNL     1      -6.114  14.345  23.967  0.00  0.00    +0.000 N 
ATOM     25  H   UNL     1      -5.798  14.379  24.933  0.00  0.00    +0.000 HD
ATOM     26  H   UNL     1      -7.016  13.884  23.879  0.00  0.00    +0.000 HD
ENDBRANCH   3  24
BRANCH   1  28
ATOM     27  C   UNL     1      -1.017  15.130  22.275  0.00  0.00    +0.000 C 
ATOM     28  O   UNL     1      -1.497  13.833  22.611  0.00  0.00    +0.000 OA
ENDBRANCH   1  28
TORSDOF 4
ENDMDL
