MODEL 1
REMARK VINA RESULT:      -7.7      0.000      0.000
REMARK  Name = 
REMARK  7 active torsions:
REMARK  status: ('A' for Active; 'I' for Inactive)
REMARK    1  A    between atoms: C_1  and  C_2
REMARK    2  A    between atoms: C_4  and  C_5
REMARK    3  A    between atoms: N_11  and  C_12
REMARK    4  A    between atoms: C_12  and  C_13
REMARK    5  A    between atoms: C_13  and  C_14
REMARK    6  A    between atoms: C_14  and  C_15
REMARK    7  A    between atoms: C_15  and  O_17
REMARK                            x       y       z     vdW  Elec       q    Type
REMARK                         _______ _______ _______ _____ _____    ______ ____
ROOT
ATOM      1  C   UNL     1      -0.815  10.055  23.275  0.00  0.00    +0.000 C 
ATOM      2  C   UNL     1      -0.175  10.025  21.917  0.00  0.00    +0.000 A 
ATOM      3  C   UNL     1      -0.251  11.134  21.076  0.00  0.00    +0.000 A 
ATOM      4  C   UNL     1       0.344  11.115  19.809  0.00  0.00    +0.000 A 
ATOM      5  C   UNL     1       0.206  12.337  18.935  0.00  0.00    +0.000 C 
ATOM      6  C   UNL     1       1.051   9.961  19.373  0.00  0.00    +0.000 A 
ATOM      7  C   UNL     1       1.142   8.841  20.220  0.00  0.00    +0.000 A 
ATOM      8  C   UNL     1       0.510   8.885  21.478  0.00  0.00    +0.000 A 
ATOM      9  C   UNL     1       1.887   7.598  19.821  0.00  0.00    +0.000 A 
ATOM     10  N   UNL     1       1.980   6.591  20.649  0.00  0.00    +0.000 NA
ATOM     11  N   UNL     1       2.632   5.445  20.215  0.00  0.00    +0.000 N 
ATOM     12  C   UNL     1       3.229   5.315  18.969  0.00  0.00    +0.000 A 
ATOM     13  O   UNL     1       3.825   4.319  18.564  0.00  0.00    +0.000 OA
ATOM     14  C   UNL     1       3.126   6.480  18.088  0.00  0.00    +0.000 A 
ATOM     15  C   UNL     1       2.490   7.595  18.465  0.00  0.00    +0.000 A 
ATOM     16  C   UNL     1       2.434   8.760  17.543  0.00  0.00    +0.000 C 
ATOM     17  C   UNL     1       1.664   9.985  18.001  0.00  0.00    +0.000 C 
ENDROOT
BRANCH  11  18
ATOM     18  C   UNL     1       2.656   4.287  21.107  0.00  0.00    +0.000 C 
BRANCH  18  19
ATOM     19  C   UNL     1       1.410   3.406  20.977  0.00  0.00    +0.000 C 
BRANCH  19  20
ATOM     20  C   UNL     1       1.652   2.071  20.285  0.00  0.00    +0.000 C 
BRANCH  20  21
ATOM     21  C   UNL     1       1.251   2.107  18.834  0.00  0.00    +0.000 C 
ATOM     22  O   UNL     1       0.115   2.327  18.442  0.00  0.00    +0.000 OA
BRANCH  21  23
ATOM     23  O   UNL     1       2.271   1.829  17.996  0.00  0.00    +0.000 OA
ATOM     24  H   UNL     1       1.959   1.601  17.084  0.00  0.00    +0.000 HD
ENDBRANCH  21  23
ENDBRANCH  20  21
ENDBRANCH  19  20
ENDBRANCH  18  19
ENDBRANCH  11  18
TORSDOF 5
ENDMDL
MODEL 2
REMARK VINA RESULT:      -7.0      5.192      7.788
REMARK  Name = 
REMARK  7 active torsions:
REMARK  status: ('A' for Active; 'I' for Inactive)
REMARK    1  A    between atoms: C_1  and  C_2
REMARK    2  A    between atoms: C_4  and  C_5
REMARK    3  A    between atoms: N_11  and  C_12
REMARK    4  A    between atoms: C_12  and  C_13
REMARK    5  A    between atoms: C_13  and  C_14
REMARK    6  A    between atoms: C_14  and  C_15
REMARK    7  A    between atoms: C_15  and  O_17
REMARK                            x       y       z     vdW  Elec       q    Type
REMARK                         _______ _______ _______ _____ _____    ______ ____
ROOT
ATOM      1  C   UNL     1       5.118   2.560  11.460  0.00  0.00    +0.000 C 
ATOM      2  C   UNL     1       5.780   3.396  12.517  0.00  0.00    +0.000 A 
ATOM      3  C   UNL     1       6.850   4.227  12.192  0.00  0.00    +0.000 A 
ATOM      4  C   UNL     1       7.472   5.011  13.172  0.00  0.00    +0.000 A 
ATOM      5  C   UNL     1       8.641   5.871  12.763  0.00  0.00    +0.000 C 
ATOM      6  C   UNL     1       7.001   4.978  14.513  0.00  0.00    +0.000 A 
ATOM      7  C   UNL     1       5.914   4.149  14.847  0.00  0.00    +0.000 A 
ATOM      8  C   UNL     1       5.329   3.355  13.842  0.00  0.00    +0.000 A 
ATOM      9  C   UNL     1       5.363   4.082  16.244  0.00  0.00    +0.000 A 
ATOM     10  N   UNL     1       4.329   3.327  16.509  0.00  0.00    +0.000 NA
ATOM     11  N   UNL     1       3.890   3.257  17.824  0.00  0.00    +0.000 N 
ATOM     12  C   UNL     1       4.455   3.971  18.872  0.00  0.00    +0.000 A 
ATOM     13  O   UNL     1       4.078   3.939  20.041  0.00  0.00    +0.000 OA
ATOM     14  C   UNL     1       5.591   4.826  18.520  0.00  0.00    +0.000 A 
ATOM     15  C   UNL     1       6.053   4.906  17.267  0.00  0.00    +0.000 A 
ATOM     16  C   UNL     1       7.193   5.808  16.958  0.00  0.00    +0.000 C 
ATOM     17  C   UNL     1       7.707   5.830  15.530  0.00  0.00    +0.000 C 
ENDROOT
BRANCH  11  18
ATOM     18  C   UNL     1       2.792   2.343  18.135  0.00  0.00    +0.000 C 
BRANCH  18  19
ATOM     19  C   UNL     1       1.468   3.066  18.396  0.00  0.00    +0.000 C 
BRANCH  19  20
ATOM     20  C   UNL     1       0.696   2.551  19.605  0.00  0.00    +0.000 C 
BRANCH  20  21
ATOM     21  C   UNL     1       1.158   3.196  20.885  0.00  0.00    +0.000 C 
ATOM     22  O   UNL     1       1.367   2.588  21.922  0.00  0.00    +0.000 OA
BRANCH  21  23
ATOM     23  O   UNL     1       1.282   4.537  20.787  0.00  0.00    +0.000 OA
ATOM     24  H   UNL     1       1.232   4.986  21.668  0.00  0.00    +0.000 HD
ENDBRANCH  21  23
ENDBRANCH  20  21
ENDBRANCH  19  20
ENDBRANCH  18  19
ENDBRANCH  11  18
TORSDOF 5
ENDMDL
MODEL 3
REMARK VINA RESULT:      -6.9      0.942      1.000
REMARK  Name = 
REMARK  7 active torsions:
REMARK  status: ('A' for Active; 'I' for Inactive)
REMARK    1  A    between atoms: C_1  and  C_2
REMARK    2  A    between atoms: C_4  and  C_5
REMARK    3  A    between atoms: N_11  and  C_12
REMARK    4  A    between atoms: C_12  and  C_13
REMARK    5  A    between atoms: C_13  and  C_14
REMARK    6  A    between atoms: C_14  and  C_15
REMARK    7  A    between atoms: C_15  and  O_17
REMARK                            x       y       z     vdW  Elec       q    Type
REMARK                         _______ _______ _______ _____ _____    ______ ____
ROOT
ATOM      1  C   UNL     1      -0.583   9.448  23.648  0.00  0.00    +0.000 C 
ATOM      2  C   UNL     1      -0.088   9.714  22.255  0.00  0.00    +0.000 A 
ATOM      3  C   UNL     1      -0.362  10.928  21.628  0.00  0.00    +0.000 A 
ATOM      4  C   UNL     1       0.096  11.183  20.330  0.00  0.00    +0.000 A 
ATOM      5  C   UNL     1      -0.254  12.506  19.696  0.00  0.00    +0.000 C 
ATOM      6  C   UNL     1       0.866  10.206  19.643  0.00  0.00    +0.000 A 
ATOM      7  C   UNL     1       1.157   8.982  20.273  0.00  0.00    +0.000 A 
ATOM      8  C   UNL     1       0.659   8.748  21.569  0.00  0.00    +0.000 A 
ATOM      9  C   UNL     1       1.978   7.916  19.602  0.00  0.00    +0.000 A 
ATOM     10  N   UNL     1       2.257   6.805  20.233  0.00  0.00    +0.000 NA
ATOM     11  N   UNL     1       2.972   5.829  19.553  0.00  0.00    +0.000 N 
ATOM     12  C   UNL     1       3.446   5.973  18.257  0.00  0.00    +0.000 A 
ATOM     13  O   UNL     1       4.094   5.133  17.637  0.00  0.00    +0.000 OA
ATOM     14  C   UNL     1       3.135   7.246  17.603  0.00  0.00    +0.000 A 
ATOM     15  C   UNL     1       2.433   8.203  18.220  0.00  0.00    +0.000 A 
ATOM     16  C   UNL     1       2.165   9.487  17.521  0.00  0.00    +0.000 C 
ATOM     17  C   UNL     1       1.328  10.523  18.248  0.00  0.00    +0.000 C 
ENDROOT
BRANCH  11  18
ATOM     18  C   UNL     1       3.205   4.552  20.227  0.00  0.00    +0.000 C 
BRANCH  18  19
ATOM     19  C   UNL     1       1.911   3.790  20.528  0.00  0.00    +0.000 C 
BRANCH  19  20
ATOM     20  C   UNL     1       1.144   3.339  19.291  0.00  0.00    +0.000 C 
BRANCH  20  21
ATOM     21  C   UNL     1       1.988   2.482  18.386  0.00  0.00    +0.000 C 
ATOM     22  O   UNL     1       2.571   1.471  18.746  0.00  0.00    +0.000 OA
BRANCH  21  23
ATOM     23  O   UNL     1       2.077   2.967  17.129  0.00  0.00    +0.000 OA
ATOM     24  H   UNL     1       2.849   2.595  16.634  0.00  0.00    +0.000 HD
ENDBRANCH  21  23
ENDBRANCH  20  21
ENDBRANCH  19  20
ENDBRANCH  18  19
ENDBRANCH  11  18
TORSDOF 5
ENDMDL
MODEL 4
REMARK VINA RESULT:      -6.7      4.144      7.068
REMARK  Name = 
REMARK  7 active torsions:
REMARK  status: ('A' for Active; 'I' for Inactive)
REMARK    1  A    between atoms: C_1  and  C_2
REMARK    2  A    between atoms: C_4  and  C_5
REMARK    3  A    between atoms: N_11  and  C_12
REMARK    4  A    between atoms: C_12  and  C_13
REMARK    5  A    between atoms: C_13  and  C_14
REMARK    6  A    between atoms: C_14  and  C_15
REMARK    7  A    between atoms: C_15  and  O_17
REMARK                            x       y       z     vdW  Elec       q    Type
REMARK                         _______ _______ _______ _____ _____    ______ ____
ROOT
ATOM      1  C   UNL     1       1.844   7.748  21.014  0.00  0.00    +0.000 C 
ATOM      2  C   UNL     1       2.112   6.466  20.278  0.00  0.00    +0.000 A 
ATOM      3  C   UNL     1       1.279   5.363  20.456  0.00  0.00    +0.000 A 
ATOM      4  C   UNL     1       1.521   4.165  19.772  0.00  0.00    +0.000 A 
ATOM      5  C   UNL     1       0.599   2.999  20.026  0.00  0.00    +0.000 C 
ATOM      6  C   UNL     1       2.616   4.070  18.870  0.00  0.00    +0.000 A 
ATOM      7  C   UNL     1       3.455   5.183  18.677  0.00  0.00    +0.000 A 
ATOM      8  C   UNL     1       3.198   6.364  19.399  0.00  0.00    +0.000 A 
ATOM      9  C   UNL     1       4.619   5.147  17.727  0.00  0.00    +0.000 A 
ATOM     10  N   UNL     1       5.355   6.212  17.547  0.00  0.00    +0.000 NA
ATOM     11  N   UNL     1       6.452   6.115  16.700  0.00  0.00    +0.000 N 
ATOM     12  C   UNL     1       6.793   4.967  16.000  0.00  0.00    +0.000 A 
ATOM     13  O   UNL     1       7.747   4.856  15.233  0.00  0.00    +0.000 OA
ATOM     14  C   UNL     1       5.921   3.809  16.210  0.00  0.00    +0.000 A 
ATOM     15  C   UNL     1       4.866   3.860  17.032  0.00  0.00    +0.000 A 
ATOM     16  C   UNL     1       3.998   2.664  17.192  0.00  0.00    +0.000 C 
ATOM     17  C   UNL     1       2.840   2.761  18.167  0.00  0.00    +0.000 C 
ENDROOT
BRANCH  11  18
ATOM     18  C   UNL     1       7.327   7.279  16.570  0.00  0.00    +0.000 C 
BRANCH  18  19
ATOM     19  C   UNL     1       7.500   8.046  17.884  0.00  0.00    +0.000 C 
BRANCH  19  20
ATOM     20  C   UNL     1       7.800   9.530  17.712  0.00  0.00    +0.000 C 
BRANCH  20  21
ATOM     21  C   UNL     1       8.995   9.960  18.521  0.00  0.00    +0.000 C 
ATOM     22  O   UNL     1       9.741  10.875  18.208  0.00  0.00    +0.000 OA
BRANCH  21  23
ATOM     23  O   UNL     1       9.192   9.202  19.619  0.00  0.00    +0.000 OA
ATOM     24  H   UNL     1       8.581   9.442  20.360  0.00  0.00    +0.000 HD
ENDBRANCH  21  23
ENDBRANCH  20  21
ENDBRANCH  19  20
ENDBRANCH  18  19
ENDBRANCH  11  18
TORSDOF 5
ENDMDL
MODEL 5
REMARK VINA RESULT:      -6.7      3.768      6.382
REMARK  Name = 
REMARK  7 active torsions:
REMARK  status: ('A' for Active; 'I' for Inactive)
REMARK    1  A    between atoms: C_1  and  C_2
REMARK    2  A    between atoms: C_4  and  C_5
REMARK    3  A    between atoms: N_11  and  C_12
REMARK    4  A    between atoms: C_12  and  C_13
REMARK    5  A    between atoms: C_13  and  C_14
REMARK    6  A    between atoms: C_14  and  C_15
REMARK    7  A    between atoms: C_15  and  O_17
REMARK                            x       y       z     vdW  Elec       q    Type
REMARK                         _______ _______ _______ _____ _____    ______ ____
ROOT
ATOM      1  C   UNL     1       1.377   6.658  21.178  0.00  0.00    +0.000 C 
ATOM      2  C   UNL     1       1.728   5.576  20.197  0.00  0.00    +0.000 A 
ATOM      3  C   UNL     1       0.957   4.419  20.116  0.00  0.00    +0.000 A 
ATOM      4  C   UNL     1       1.277   3.407  19.203  0.00  0.00    +0.000 A 
ATOM      5  C   UNL     1       0.418   2.167  19.180  0.00  0.00    +0.000 C 
ATOM      6  C   UNL     1       2.390   3.560  18.333  0.00  0.00    +0.000 A 
ATOM      7  C   UNL     1       3.168   4.731  18.401  0.00  0.00    +0.000 A 
ATOM      8  C   UNL     1       2.833   5.717  19.348  0.00  0.00    +0.000 A 
ATOM      9  C   UNL     1       4.349   4.956  17.498  0.00  0.00    +0.000 A 
ATOM     10  N   UNL     1       5.027   6.072  17.566  0.00  0.00    +0.000 NA
ATOM     11  N   UNL     1       6.141   6.212  16.749  0.00  0.00    +0.000 N 
ATOM     12  C   UNL     1       6.558   5.256  15.833  0.00  0.00    +0.000 A 
ATOM     13  O   UNL     1       7.530   5.360  15.088  0.00  0.00    +0.000 OA
ATOM     14  C   UNL     1       5.749   4.037  15.772  0.00  0.00    +0.000 A 
ATOM     15  C   UNL     1       4.680   3.859  16.555  0.00  0.00    +0.000 A 
ATOM     16  C   UNL     1       3.877   2.613  16.436  0.00  0.00    +0.000 C 
ATOM     17  C   UNL     1       2.699   2.442  17.377  0.00  0.00    +0.000 C 
ENDROOT
BRANCH  11  18
ATOM     18  C   UNL     1       6.951   7.420  16.891  0.00  0.00    +0.000 C 
BRANCH  18  19
ATOM     19  C   UNL     1       7.667   7.505  18.242  0.00  0.00    +0.000 C 
BRANCH  19  20
ATOM     20  C   UNL     1       8.378   6.224  18.659  0.00  0.00    +0.000 C 
BRANCH  20  21
ATOM     21  C   UNL     1       7.696   5.554  19.823  0.00  0.00    +0.000 C 
ATOM     22  O   UNL     1       6.488   5.396  19.911  0.00  0.00    +0.000 OA
BRANCH  21  23
ATOM     23  O   UNL     1       8.554   5.177  20.794  0.00  0.00    +0.000 OA
ATOM     24  H   UNL     1       9.500   5.290  20.527  0.00  0.00    +0.000 HD
ENDBRANCH  21  23
ENDBRANCH  20  21
ENDBRANCH  19  20
ENDBRANCH  18  19
ENDBRANCH  11  18
TORSDOF 5
ENDMDL
MODEL 6
REMARK VINA RESULT:      -6.7      2.448      4.674
REMARK  Name = 
REMARK  7 active torsions:
REMARK  status: ('A' for Active; 'I' for Inactive)
REMARK    1  A    between atoms: C_1  and  C_2
REMARK    2  A    between atoms: C_4  and  C_5
REMARK    3  A    between atoms: N_11  and  C_12
REMARK    4  A    between atoms: C_12  and  C_13
REMARK    5  A    between atoms: C_13  and  C_14
REMARK    6  A    between atoms: C_14  and  C_15
REMARK    7  A    between atoms: C_15  and  O_17
REMARK                            x       y       z     vdW  Elec       q    Type
REMARK                         _______ _______ _______ _____ _____    ______ ____
ROOT
ATOM      1  C   UNL     1       2.337  11.177  17.736  0.00  0.00    +0.000 C 
ATOM      2  C   UNL     1       2.020   9.972  18.574  0.00  0.00    +0.000 A 
ATOM      3  C   UNL     1       1.181  10.084  19.681  0.00  0.00    +0.000 A 
ATOM      4  C   UNL     1       0.879   8.966  20.467  0.00  0.00    +0.000 A 
ATOM      5  C   UNL     1      -0.014   9.155  21.667  0.00  0.00    +0.000 C 
ATOM      6  C   UNL     1       1.415   7.693  20.128  0.00  0.00    +0.000 A 
ATOM      7  C   UNL     1       2.253   7.570  19.005  0.00  0.00    +0.000 A 
ATOM      8  C   UNL     1       2.557   8.720  18.252  0.00  0.00    +0.000 A 
ATOM      9  C   UNL     1       2.839   6.249  18.589  0.00  0.00    +0.000 A 
ATOM     10  N   UNL     1       3.585   6.167  17.519  0.00  0.00    +0.000 NA
ATOM     11  N   UNL     1       4.147   4.936  17.205  0.00  0.00    +0.000 N 
ATOM     12  C   UNL     1       3.933   3.776  17.935  0.00  0.00    +0.000 A 
ATOM     13  O   UNL     1       4.404   2.671  17.672  0.00  0.00    +0.000 OA
ATOM     14  C   UNL     1       3.065   3.911  19.107  0.00  0.00    +0.000 A 
ATOM     15  C   UNL     1       2.520   5.084  19.451  0.00  0.00    +0.000 A 
ATOM     16  C   UNL     1       1.627   5.163  20.635  0.00  0.00    +0.000 C 
ATOM     17  C   UNL     1       1.069   6.524  21.007  0.00  0.00    +0.000 C 
ENDROOT
BRANCH  11  18
ATOM     18  C   UNL     1       5.054   4.866  16.061  0.00  0.00    +0.000 C 
BRANCH  18  19
ATOM     19  C   UNL     1       6.375   5.604  16.299  0.00  0.00    +0.000 C 
BRANCH  19  20
ATOM     20  C   UNL     1       7.296   4.936  17.312  0.00  0.00    +0.000 C 
BRANCH  20  21
ATOM     21  C   UNL     1       7.354   5.698  18.609  0.00  0.00    +0.000 C 
ATOM     22  O   UNL     1       6.816   5.333  19.643  0.00  0.00    +0.000 OA
BRANCH  21  23
ATOM     23  O   UNL     1       8.032   6.861  18.510  0.00  0.00    +0.000 OA
ATOM     24  H   UNL     1       8.202   7.275  19.393  0.00  0.00    +0.000 HD
ENDBRANCH  21  23
ENDBRANCH  20  21
ENDBRANCH  19  20
ENDBRANCH  18  19
ENDBRANCH  11  18
TORSDOF 5
ENDMDL
MODEL 7
REMARK VINA RESULT:      -6.5      4.926      7.050
REMARK  Name = 
REMARK  7 active torsions:
REMARK  status: ('A' for Active; 'I' for Inactive)
REMARK    1  A    between atoms: C_1  and  C_2
REMARK    2  A    between atoms: C_4  and  C_5
REMARK    3  A    between atoms: N_11  and  C_12
REMARK    4  A    between atoms: C_12  and  C_13
REMARK    5  A    between atoms: C_13  and  C_14
REMARK    6  A    between atoms: C_14  and  C_15
REMARK    7  A    between atoms: C_15  and  O_17
REMARK                            x       y       z     vdW  Elec       q    Type
REMARK                         _______ _______ _______ _____ _____    ______ ____
ROOT
ATOM      1  C   UNL     1       1.077   1.714  18.432  0.00  0.00    +0.000 C 
ATOM      2  C   UNL     1       1.801   3.029  18.471  0.00  0.00    +0.000 A 
ATOM      3  C   UNL     1       1.489   3.978  19.443  0.00  0.00    +0.000 A 
ATOM      4  C   UNL     1       2.160   5.206  19.486  0.00  0.00    +0.000 A 
ATOM      5  C   UNL     1       1.761   6.202  20.546  0.00  0.00    +0.000 C 
ATOM      6  C   UNL     1       3.186   5.489  18.543  0.00  0.00    +0.000 A 
ATOM      7  C   UNL     1       3.514   4.532  17.566  0.00  0.00    +0.000 A 
ATOM      8  C   UNL     1       2.802   3.318  17.535  0.00  0.00    +0.000 A 
ATOM      9  C   UNL     1       4.598   4.768  16.551  0.00  0.00    +0.000 A 
ATOM     10  N   UNL     1       4.899   3.841  15.680  0.00  0.00    +0.000 NA
ATOM     11  N   UNL     1       5.869   4.126  14.729  0.00  0.00    +0.000 N 
ATOM     12  C   UNL     1       6.571   5.322  14.670  0.00  0.00    +0.000 A 
ATOM     13  O   UNL     1       7.445   5.596  13.850  0.00  0.00    +0.000 OA
ATOM     14  C   UNL     1       6.221   6.318  15.685  0.00  0.00    +0.000 A 
ATOM     15  C   UNL     1       5.279   6.086  16.606  0.00  0.00    +0.000 A 
ATOM     16  C   UNL     1       4.977   7.120  17.629  0.00  0.00    +0.000 C 
ATOM     17  C   UNL     1       3.871   6.824  18.625  0.00  0.00    +0.000 C 
ENDROOT
BRANCH  11  18
ATOM     18  C   UNL     1       6.141   3.124  13.700  0.00  0.00    +0.000 C 
BRANCH  18  19
ATOM     19  C   UNL     1       5.526   3.479  12.343  0.00  0.00    +0.000 C 
BRANCH  19  20
ATOM     20  C   UNL     1       5.211   2.277  11.461  0.00  0.00    +0.000 C 
BRANCH  20  21
ATOM     21  C   UNL     1       6.408   1.383  11.277  0.00  0.00    +0.000 C 
ATOM     22  O   UNL     1       7.522   1.783  10.975  0.00  0.00    +0.000 OA
BRANCH  21  23
ATOM     23  O   UNL     1       6.122   0.074  11.438  0.00  0.00    +0.000 OA
ATOM     24  H   UNL     1       5.244  -0.171  11.051  0.00  0.00    +0.000 HD
ENDBRANCH  21  23
ENDBRANCH  20  21
ENDBRANCH  19  20
ENDBRANCH  18  19
ENDBRANCH  11  18
TORSDOF 5
ENDMDL
MODEL 8
REMARK VINA RESULT:      -6.5      3.710      7.295
REMARK  Name = 
REMARK  7 active torsions:
REMARK  status: ('A' for Active; 'I' for Inactive)
REMARK    1  A    between atoms: C_1  and  C_2
REMARK    2  A    between atoms: C_4  and  C_5
REMARK    3  A    between atoms: N_11  and  C_12
REMARK    4  A    between atoms: C_12  and  C_13
REMARK    5  A    between atoms: C_13  and  C_14
REMARK    6  A    between atoms: C_14  and  C_15
REMARK    7  A    between atoms: C_15  and  O_17
REMARK                            x       y       z     vdW  Elec       q    Type
REMARK                         _______ _______ _______ _____ _____    ______ ____
ROOT
ATOM      1  C   UNL     1       5.330   6.289  15.512  0.00  0.00    +0.000 C 
ATOM      2  C   UNL     1       4.627   5.761  16.730  0.00  0.00    +0.000 A 
ATOM      3  C   UNL     1       4.803   4.437  17.128  0.00  0.00    +0.000 A 
ATOM      4  C   UNL     1       4.153   3.938  18.263  0.00  0.00    +0.000 A 
ATOM      5  C   UNL     1       4.364   2.490  18.628  0.00  0.00    +0.000 C 
ATOM      6  C   UNL     1       3.315   4.789  19.034  0.00  0.00    +0.000 A 
ATOM      7  C   UNL     1       3.141   6.129  18.645  0.00  0.00    +0.000 A 
ATOM      8  C   UNL     1       3.789   6.592  17.484  0.00  0.00    +0.000 A 
ATOM      9  C   UNL     1       2.279   7.080  19.428  0.00  0.00    +0.000 A 
ATOM     10  N   UNL     1       2.169   8.328  19.055  0.00  0.00    +0.000 NA
ATOM     11  N   UNL     1       1.319   9.155  19.779  0.00  0.00    +0.000 N 
ATOM     12  C   UNL     1       0.608   8.749  20.900  0.00  0.00    +0.000 A 
ATOM     13  O   UNL     1      -0.138   9.462  21.567  0.00  0.00    +0.000 OA
ATOM     14  C   UNL     1       0.788   7.351  21.296  0.00  0.00    +0.000 A 
ATOM     15  C   UNL     1       1.584   6.520  20.613  0.00  0.00    +0.000 A 
ATOM     16  C   UNL     1       1.751   5.116  21.071  0.00  0.00    +0.000 C 
ATOM     17  C   UNL     1       2.632   4.204  20.238  0.00  0.00    +0.000 C 
ENDROOT
BRANCH  11  18
ATOM     18  C   UNL     1       1.126  10.525  19.308  0.00  0.00    +0.000 C 
BRANCH  18  19
ATOM     19  C   UNL     1       0.268  10.607  18.042  0.00  0.00    +0.000 C 
BRANCH  19  20
ATOM     20  C   UNL     1      -1.219  10.371  18.273  0.00  0.00    +0.000 C 
BRANCH  20  21
ATOM     21  C   UNL     1      -2.055  11.524  17.785  0.00  0.00    +0.000 C 
ATOM     22  O   UNL     1      -3.276  11.539  17.796  0.00  0.00    +0.000 OA
BRANCH  21  23
ATOM     23  O   UNL     1      -1.318  12.539  17.287  0.00  0.00    +0.000 OA
ATOM     24  H   UNL     1      -0.353  12.435  17.480  0.00  0.00    +0.000 HD
ENDBRANCH  21  23
ENDBRANCH  20  21
ENDBRANCH  19  20
ENDBRANCH  18  19
ENDBRANCH  11  18
TORSDOF 5
ENDMDL
MODEL 9
REMARK VINA RESULT:      -6.5      3.655      6.806
REMARK  Name = 
REMARK  7 active torsions:
REMARK  status: ('A' for Active; 'I' for Inactive)
REMARK    1  A    between atoms: C_1  and  C_2
REMARK    2  A    between atoms: C_4  and  C_5
REMARK    3  A    between atoms: N_11  and  C_12
REMARK    4  A    between atoms: C_12  and  C_13
REMARK    5  A    between atoms: C_13  and  C_14
REMARK    6  A    between atoms: C_14  and  C_15
REMARK    7  A    between atoms: C_15  and  O_17
REMARK                            x       y       z     vdW  Elec       q    Type
REMARK                         _______ _______ _______ _____ _____    ______ ____
ROOT
ATOM      1  C   UNL     1       1.512   2.993  21.624  0.00  0.00    +0.000 C 
ATOM      2  C   UNL     1       2.150   3.800  20.530  0.00  0.00    +0.000 A 
ATOM      3  C   UNL     1       3.062   3.210  19.657  0.00  0.00    +0.000 A 
ATOM      4  C   UNL     1       3.660   3.955  18.634  0.00  0.00    +0.000 A 
ATOM      5  C   UNL     1       4.658   3.266  17.737  0.00  0.00    +0.000 C 
ATOM      6  C   UNL     1       3.327   5.327  18.465  0.00  0.00    +0.000 A 
ATOM      7  C   UNL     1       2.399   5.928  19.336  0.00  0.00    +0.000 A 
ATOM      8  C   UNL     1       1.835   5.156  20.370  0.00  0.00    +0.000 A 
ATOM      9  C   UNL     1       1.996   7.370  19.199  0.00  0.00    +0.000 A 
ATOM     10  N   UNL     1       1.105   7.884  20.005  0.00  0.00    +0.000 NA
ATOM     11  N   UNL     1       0.805   9.234  19.874  0.00  0.00    +0.000 N 
ATOM     12  C   UNL     1       1.364  10.064  18.913  0.00  0.00    +0.000 A 
ATOM     13  O   UNL     1       1.106  11.256  18.764  0.00  0.00    +0.000 OA
ATOM     14  C   UNL     1       2.334   9.435  18.014  0.00  0.00    +0.000 A 
ATOM     15  C   UNL     1       2.661   8.143  18.121  0.00  0.00    +0.000 A 
ATOM     16  C   UNL     1       3.633   7.546  17.168  0.00  0.00    +0.000 C 
ATOM     17  C   UNL     1       4.002   6.087  17.359  0.00  0.00    +0.000 C 
ENDROOT
BRANCH  11  18
ATOM     18  C   UNL     1      -0.123   9.829  20.834  0.00  0.00    +0.000 C 
BRANCH  18  19
ATOM     19  C   UNL     1       0.310   9.627  22.288  0.00  0.00    +0.000 C 
BRANCH  19  20
ATOM     20  C   UNL     1      -0.691  10.134  23.320  0.00  0.00    +0.000 C 
BRANCH  20  21
ATOM     21  C   UNL     1      -1.236  11.490  22.957  0.00  0.00    +0.000 C 
ATOM     22  O   UNL     1      -2.422  11.733  22.801  0.00  0.00    +0.000 OA
BRANCH  21  23
ATOM     23  O   UNL     1      -0.272  12.416  22.776  0.00  0.00    +0.000 OA
ATOM     24  H   UNL     1      -0.060  12.909  23.608  0.00  0.00    +0.000 HD
ENDBRANCH  21  23
ENDBRANCH  20  21
ENDBRANCH  19  20
ENDBRANCH  18  19
ENDBRANCH  11  18
TORSDOF 5
ENDMDL
