MODEL 1
REMARK VINA RESULT:      -6.0      0.000      0.000
REMARK  Name = 
REMARK  4 active torsions:
REMARK  status: ('A' for Active; 'I' for Inactive)
REMARK    1  A    between atoms: C_2  and  C_3
REMARK    2  A    between atoms: N_5  and  C_6
REMARK    3  A    between atoms: C_9  and  S_10
REMARK    4  A    between atoms: S_10  and  C_11
REMARK                            x       y       z     vdW  Elec       q    Type
REMARK                         _______ _______ _______ _____ _____    ______ ____
ROOT
ATOM      1  C   UNL     1       4.704   3.869  17.091  0.00  0.00    +0.000 A 
ATOM      2  C   UNL     1       5.130   4.296  18.354  0.00  0.00    +0.000 A 
ATOM      3  C   UNL     1       4.240   4.375  19.426  0.00  0.00    +0.000 A 
ATOM      4  C   UNL     1       2.905   4.033  19.233  0.00  0.00    +0.000 A 
ATOM      5  C   UNL     1       2.456   3.596  17.986  0.00  0.00    +0.000 A 
ATOM      6  C   UNL     1       3.355   3.531  16.912  0.00  0.00    +0.000 A 
ENDROOT
BRANCH   1   9
ATOM      7  C   UNL     1       5.882   4.802  15.113  0.00  0.00    +0.000 C 
ATOM      8  O   UNL     1       5.527   5.971  15.210  0.00  0.00    +0.000 OA
ATOM      9  N   UNL     1       5.575   3.772  15.981  0.00  0.00    +0.000 N 
ATOM     10  H   UNL     1       6.056   2.891  15.861  0.00  0.00    +0.000 HD
BRANCH   7  12
ATOM     11  C   UNL     1       6.245   3.639  12.996  0.00  0.00    +0.000 C 
ATOM     12  C   UNL     1       6.762   4.377  13.989  0.00  0.00    +0.000 C 
ENDBRANCH   7  12
ENDBRANCH   1   9
BRANCH   4  13
ATOM     13  S   UNL     1       1.778   4.144  20.602  0.00  0.00    +0.000 S 
ATOM     14  C   UNL     1       2.369   2.880  21.698  0.00  0.00    +0.000 C 
ATOM     15  O   UNL     1       1.989   5.432  21.238  0.00  0.00    +0.000 OA
ATOM     16  O   UNL     1       0.465   3.753  20.129  0.00  0.00    +0.000 OA
ENDBRANCH   4  13
TORSDOF 3
ENDMDL
MODEL 2
REMARK VINA RESULT:      -6.0      0.935      1.674
REMARK  Name = 
REMARK  4 active torsions:
REMARK  status: ('A' for Active; 'I' for Inactive)
REMARK    1  A    between atoms: C_2  and  C_3
REMARK    2  A    between atoms: N_5  and  C_6
REMARK    3  A    between atoms: C_9  and  S_10
REMARK    4  A    between atoms: S_10  and  C_11
REMARK                            x       y       z     vdW  Elec       q    Type
REMARK                         _______ _______ _______ _____ _____    ______ ____
ROOT
ATOM      1  C   UNL     1       4.831   3.767  17.111  0.00  0.00    +0.000 A 
ATOM      2  C   UNL     1       3.468   3.455  17.049  0.00  0.00    +0.000 A 
ATOM      3  C   UNL     1       2.668   3.493  18.190  0.00  0.00    +0.000 A 
ATOM      4  C   UNL     1       3.236   3.836  19.414  0.00  0.00    +0.000 A 
ATOM      5  C   UNL     1       4.591   4.159  19.502  0.00  0.00    +0.000 A 
ATOM      6  C   UNL     1       5.390   4.108  18.351  0.00  0.00    +0.000 A 
ENDROOT
BRANCH   1   9
ATOM      7  C   UNL     1       5.876   4.801  15.108  0.00  0.00    +0.000 C 
ATOM      8  O   UNL     1       5.432   5.938  15.223  0.00  0.00    +0.000 OA
ATOM      9  N   UNL     1       5.675   3.745  15.977  0.00  0.00    +0.000 N 
ATOM     10  H   UNL     1       6.222   2.906  15.837  0.00  0.00    +0.000 HD
BRANCH   7  12
ATOM     11  C   UNL     1       6.251   3.742  12.939  0.00  0.00    +0.000 C 
ATOM     12  C   UNL     1       6.756   4.452  13.958  0.00  0.00    +0.000 C 
ENDBRANCH   7  12
ENDBRANCH   1   9
BRANCH   4  13
ATOM     13  S   UNL     1       2.211   3.871  20.864  0.00  0.00    +0.000 S 
ATOM     14  C   UNL     1       0.684   3.182  20.279  0.00  0.00    +0.000 C 
ATOM     15  O   UNL     1       2.785   2.950  21.828  0.00  0.00    +0.000 OA
ATOM     16  O   UNL     1       1.976   5.259  21.209  0.00  0.00    +0.000 OA
ENDBRANCH   4  13
TORSDOF 3
ENDMDL
MODEL 3
REMARK VINA RESULT:      -6.0      0.920      1.105
REMARK  Name = 
REMARK  4 active torsions:
REMARK  status: ('A' for Active; 'I' for Inactive)
REMARK    1  A    between atoms: C_2  and  C_3
REMARK    2  A    between atoms: N_5  and  C_6
REMARK    3  A    between atoms: C_9  and  S_10
REMARK    4  A    between atoms: S_10  and  C_11
REMARK                            x       y       z     vdW  Elec       q    Type
REMARK                         _______ _______ _______ _____ _____    ______ ____
ROOT
ATOM      1  C   UNL     1       4.929   3.834  17.165  0.00  0.00    +0.000 A 
ATOM      2  C   UNL     1       5.353   4.413  18.367  0.00  0.00    +0.000 A 
ATOM      3  C   UNL     1       4.518   4.447  19.483  0.00  0.00    +0.000 A 
ATOM      4  C   UNL     1       3.239   3.905  19.399  0.00  0.00    +0.000 A 
ATOM      5  C   UNL     1       2.794   3.316  18.215  0.00  0.00    +0.000 A 
ATOM      6  C   UNL     1       3.636   3.296  17.094  0.00  0.00    +0.000 A 
ENDROOT
BRANCH   1   9
ATOM      7  C   UNL     1       5.910   4.798  15.096  0.00  0.00    +0.000 C 
ATOM      8  O   UNL     1       5.454   5.933  15.177  0.00  0.00    +0.000 OA
ATOM      9  N   UNL     1       5.745   3.776  16.011  0.00  0.00    +0.000 N 
ATOM     10  H   UNL     1       6.299   2.939  15.892  0.00  0.00    +0.000 HD
BRANCH   7  12
ATOM     11  C   UNL     1       6.237   3.676  12.952  0.00  0.00    +0.000 C 
ATOM     12  C   UNL     1       6.765   4.414  13.939  0.00  0.00    +0.000 C 
ENDBRANCH   7  12
ENDBRANCH   1   9
BRANCH   4  13
ATOM     13  S   UNL     1       2.180   3.961  20.825  0.00  0.00    +0.000 S 
ATOM     14  C   UNL     1       0.680   3.225  20.225  0.00  0.00    +0.000 C 
ATOM     15  O   UNL     1       2.750   3.079  21.827  0.00  0.00    +0.000 OA
ATOM     16  O   UNL     1       1.910   5.353  21.124  0.00  0.00    +0.000 OA
ENDBRANCH   4  13
TORSDOF 3
ENDMDL
MODEL 4
REMARK VINA RESULT:      -5.9      0.267      1.272
REMARK  Name = 
REMARK  4 active torsions:
REMARK  status: ('A' for Active; 'I' for Inactive)
REMARK    1  A    between atoms: C_2  and  C_3
REMARK    2  A    between atoms: N_5  and  C_6
REMARK    3  A    between atoms: C_9  and  S_10
REMARK    4  A    between atoms: S_10  and  C_11
REMARK                            x       y       z     vdW  Elec       q    Type
REMARK                         _______ _______ _______ _____ _____    ______ ____
ROOT
ATOM      1  C   UNL     1       4.570   3.927  16.959  0.00  0.00    +0.000 A 
ATOM      2  C   UNL     1       3.205   3.696  16.755  0.00  0.00    +0.000 A 
ATOM      3  C   UNL     1       2.301   3.734  17.816  0.00  0.00    +0.000 A 
ATOM      4  C   UNL     1       2.766   3.996  19.102  0.00  0.00    +0.000 A 
ATOM      5  C   UNL     1       4.121   4.237  19.333  0.00  0.00    +0.000 A 
ATOM      6  C   UNL     1       5.024   4.186  18.261  0.00  0.00    +0.000 A 
ENDROOT
BRANCH   1   9
ATOM      7  C   UNL     1       5.835   4.969  15.093  0.00  0.00    +0.000 C 
ATOM      8  O   UNL     1       5.419   6.117  15.194  0.00  0.00    +0.000 OA
ATOM      9  N   UNL     1       5.518   3.902  15.910  0.00  0.00    +0.000 N 
ATOM     10  H   UNL     1       6.049   3.047  15.802  0.00  0.00    +0.000 HD
BRANCH   7  12
ATOM     11  C   UNL     1       6.415   3.828  13.012  0.00  0.00    +0.000 C 
ATOM     12  C   UNL     1       6.809   4.616  14.023  0.00  0.00    +0.000 C 
ENDBRANCH   7  12
ENDBRANCH   1   9
BRANCH   4  13
ATOM     13  S   UNL     1       1.608   4.033  20.449  0.00  0.00    +0.000 S 
ATOM     14  C   UNL     1       2.410   3.036  21.680  0.00  0.00    +0.000 C 
ATOM     15  O   UNL     1       1.551   5.398  20.938  0.00  0.00    +0.000 OA
ATOM     16  O   UNL     1       0.408   3.342  20.023  0.00  0.00    +0.000 OA
ENDBRANCH   4  13
TORSDOF 3
ENDMDL
MODEL 5
REMARK VINA RESULT:      -5.9      3.342      4.059
REMARK  Name = 
REMARK  4 active torsions:
REMARK  status: ('A' for Active; 'I' for Inactive)
REMARK    1  A    between atoms: C_2  and  C_3
REMARK    2  A    between atoms: N_5  and  C_6
REMARK    3  A    between atoms: C_9  and  S_10
REMARK    4  A    between atoms: S_10  and  C_11
REMARK                            x       y       z     vdW  Elec       q    Type
REMARK                         _______ _______ _______ _____ _____    ______ ____
ROOT
ATOM      1  C   UNL     1       5.524   5.878  17.565  0.00  0.00    +0.000 A 
ATOM      2  C   UNL     1       5.255   4.945  16.557  0.00  0.00    +0.000 A 
ATOM      3  C   UNL     1       4.476   3.816  16.810  0.00  0.00    +0.000 A 
ATOM      4  C   UNL     1       3.967   3.607  18.088  0.00  0.00    +0.000 A 
ATOM      5  C   UNL     1       4.213   4.526  19.109  0.00  0.00    +0.000 A 
ATOM      6  C   UNL     1       5.006   5.653  18.849  0.00  0.00    +0.000 A 
ENDROOT
BRANCH   1   9
ATOM      7  C   UNL     1       7.508   7.317  17.966  0.00  0.00    +0.000 C 
ATOM      8  O   UNL     1       8.131   6.580  18.724  0.00  0.00    +0.000 OA
ATOM      9  N   UNL     1       6.305   7.037  17.349  0.00  0.00    +0.000 N 
ATOM     10  H   UNL     1       5.979   7.674  16.635  0.00  0.00    +0.000 HD
BRANCH   7  12
ATOM     11  C   UNL     1       8.677   9.384  18.538  0.00  0.00    +0.000 C 
ATOM     12  C   UNL     1       8.056   8.653  17.601  0.00  0.00    +0.000 C 
ENDBRANCH   7  12
ENDBRANCH   1   9
BRANCH   4  13
ATOM     13  S   UNL     1       2.984   2.161  18.403  0.00  0.00    +0.000 S 
ATOM     14  C   UNL     1       2.280   2.507  19.995  0.00  0.00    +0.000 C 
ATOM     15  O   UNL     1       1.910   2.143  17.426  0.00  0.00    +0.000 OA
ATOM     16  O   UNL     1       3.884   1.034  18.543  0.00  0.00    +0.000 OA
ENDBRANCH   4  13
TORSDOF 3
ENDMDL
MODEL 6
REMARK VINA RESULT:      -5.9      0.894      1.297
REMARK  Name = 
REMARK  4 active torsions:
REMARK  status: ('A' for Active; 'I' for Inactive)
REMARK    1  A    between atoms: C_2  and  C_3
REMARK    2  A    between atoms: N_5  and  C_6
REMARK    3  A    between atoms: C_9  and  S_10
REMARK    4  A    between atoms: S_10  and  C_11
REMARK                            x       y       z     vdW  Elec       q    Type
REMARK                         _______ _______ _______ _____ _____    ______ ____
ROOT
ATOM      1  C   UNL     1       4.658   4.050  17.071  0.00  0.00    +0.000 A 
ATOM      2  C   UNL     1       5.109   4.478  18.325  0.00  0.00    +0.000 A 
ATOM      3  C   UNL     1       4.235   4.584  19.407  0.00  0.00    +0.000 A 
ATOM      4  C   UNL     1       2.891   4.269  19.234  0.00  0.00    +0.000 A 
ATOM      5  C   UNL     1       2.417   3.833  17.996  0.00  0.00    +0.000 A 
ATOM      6  C   UNL     1       3.300   3.740  16.911  0.00  0.00    +0.000 A 
ENDROOT
BRANCH   1   9
ATOM      7  C   UNL     1       5.861   4.952  15.093  0.00  0.00    +0.000 C 
ATOM      8  O   UNL     1       5.565   6.136  15.210  0.00  0.00    +0.000 OA
ATOM      9  N   UNL     1       5.512   3.926  15.950  0.00  0.00    +0.000 N 
ATOM     10  H   UNL     1       5.949   3.024  15.813  0.00  0.00    +0.000 HD
BRANCH   7  12
ATOM     11  C   UNL     1       6.197   3.644  13.058  0.00  0.00    +0.000 C 
ATOM     12  C   UNL     1       6.708   4.499  13.955  0.00  0.00    +0.000 C 
ENDBRANCH   7  12
ENDBRANCH   1   9
BRANCH   4  13
ATOM     13  S   UNL     1       1.784   4.415  20.616  0.00  0.00    +0.000 S 
ATOM     14  C   UNL     1       1.605   6.173  20.787  0.00  0.00    +0.000 C 
ATOM     15  O   UNL     1       0.503   3.866  20.209  0.00  0.00    +0.000 OA
ATOM     16  O   UNL     1       2.470   3.915  21.791  0.00  0.00    +0.000 OA
ENDBRANCH   4  13
TORSDOF 3
ENDMDL
MODEL 7
REMARK VINA RESULT:      -5.9      0.926      1.781
REMARK  Name = 
REMARK  4 active torsions:
REMARK  status: ('A' for Active; 'I' for Inactive)
REMARK    1  A    between atoms: C_2  and  C_3
REMARK    2  A    between atoms: N_5  and  C_6
REMARK    3  A    between atoms: C_9  and  S_10
REMARK    4  A    between atoms: S_10  and  C_11
REMARK                            x       y       z     vdW  Elec       q    Type
REMARK                         _______ _______ _______ _____ _____    ______ ____
ROOT
ATOM      1  C   UNL     1       4.582   3.706  17.168  0.00  0.00    +0.000 A 
ATOM      2  C   UNL     1       3.212   3.463  17.021  0.00  0.00    +0.000 A 
ATOM      3  C   UNL     1       2.343   3.557  18.108  0.00  0.00    +0.000 A 
ATOM      4  C   UNL     1       2.848   3.890  19.362  0.00  0.00    +0.000 A 
ATOM      5  C   UNL     1       4.209   4.145  19.534  0.00  0.00    +0.000 A 
ATOM      6  C   UNL     1       5.077   4.036  18.439  0.00  0.00    +0.000 A 
ENDROOT
BRANCH   1   9
ATOM      7  C   UNL     1       5.752   4.631  15.183  0.00  0.00    +0.000 C 
ATOM      8  O   UNL     1       5.304   5.772  15.208  0.00  0.00    +0.000 OA
ATOM      9  N   UNL     1       5.496   3.624  16.092  0.00  0.00    +0.000 N 
ATOM     10  H   UNL     1       6.049   2.779  16.033  0.00  0.00    +0.000 HD
BRANCH   7  12
ATOM     11  C   UNL     1       6.222   3.667  12.988  0.00  0.00    +0.000 C 
ATOM     12  C   UNL     1       6.702   4.223  14.110  0.00  0.00    +0.000 C 
ENDBRANCH   7  12
ENDBRANCH   1   9
BRANCH   4  13
ATOM     13  S   UNL     1       1.734   3.999  20.742  0.00  0.00    +0.000 S 
ATOM     14  C   UNL     1       1.531   5.751  20.940  0.00  0.00    +0.000 C 
ATOM     15  O   UNL     1       0.463   3.439  20.322  0.00  0.00    +0.000 OA
ATOM     16  O   UNL     1       2.423   3.490  21.911  0.00  0.00    +0.000 OA
ENDBRANCH   4  13
TORSDOF 3
ENDMDL
MODEL 8
REMARK VINA RESULT:      -5.9      1.086      1.306
REMARK  Name = 
REMARK  4 active torsions:
REMARK  status: ('A' for Active; 'I' for Inactive)
REMARK    1  A    between atoms: C_2  and  C_3
REMARK    2  A    between atoms: N_5  and  C_6
REMARK    3  A    between atoms: C_9  and  S_10
REMARK    4  A    between atoms: S_10  and  C_11
REMARK                            x       y       z     vdW  Elec       q    Type
REMARK                         _______ _______ _______ _____ _____    ______ ____
ROOT
ATOM      1  C   UNL     1       4.451   4.286  16.708  0.00  0.00    +0.000 A 
ATOM      2  C   UNL     1       4.111   3.058  17.287  0.00  0.00    +0.000 A 
ATOM      3  C   UNL     1       3.328   2.998  18.439  0.00  0.00    +0.000 A 
ATOM      4  C   UNL     1       2.886   4.178  19.030  0.00  0.00    +0.000 A 
ATOM      5  C   UNL     1       3.204   5.415  18.469  0.00  0.00    +0.000 A 
ATOM      6  C   UNL     1       4.001   5.468  17.316  0.00  0.00    +0.000 A 
ENDROOT
BRANCH   1   9
ATOM      7  C   UNL     1       6.610   4.555  15.510  0.00  0.00    +0.000 C 
ATOM      8  O   UNL     1       7.368   4.549  16.474  0.00  0.00    +0.000 OA
ATOM      9  N   UNL     1       5.239   4.391  15.538  0.00  0.00    +0.000 N 
ATOM     10  H   UNL     1       4.758   4.269  14.657  0.00  0.00    +0.000 HD
BRANCH   7  12
ATOM     11  C   UNL     1       6.596   4.030  13.125  0.00  0.00    +0.000 C 
ATOM     12  C   UNL     1       7.151   4.719  14.132  0.00  0.00    +0.000 C 
ENDBRANCH   7  12
ENDBRANCH   1   9
BRANCH   4  13
ATOM     13  S   UNL     1       1.897   4.090  20.503  0.00  0.00    +0.000 S 
ATOM     14  C   UNL     1       2.652   2.758  21.401  0.00  0.00    +0.000 C 
ATOM     15  O   UNL     1       2.112   5.318  21.247  0.00  0.00    +0.000 OA
ATOM     16  O   UNL     1       0.562   3.675  20.119  0.00  0.00    +0.000 OA
ENDBRANCH   4  13
TORSDOF 3
ENDMDL
MODEL 9
REMARK VINA RESULT:      -5.9      1.058      1.085
REMARK  Name = 
REMARK  4 active torsions:
REMARK  status: ('A' for Active; 'I' for Inactive)
REMARK    1  A    between atoms: C_2  and  C_3
REMARK    2  A    between atoms: N_5  and  C_6
REMARK    3  A    between atoms: C_9  and  S_10
REMARK    4  A    between atoms: S_10  and  C_11
REMARK                            x       y       z     vdW  Elec       q    Type
REMARK                         _______ _______ _______ _____ _____    ______ ____
ROOT
ATOM      1  C   UNL     1       4.431   4.322  16.690  0.00  0.00    +0.000 A 
ATOM      2  C   UNL     1       4.015   5.483  17.352  0.00  0.00    +0.000 A 
ATOM      3  C   UNL     1       3.252   5.413  18.517  0.00  0.00    +0.000 A 
ATOM      4  C   UNL     1       2.890   4.170  19.026  0.00  0.00    +0.000 A 
ATOM      5  C   UNL     1       3.298   2.996  18.390  0.00  0.00    +0.000 A 
ATOM      6  C   UNL     1       4.055   3.075  17.213  0.00  0.00    +0.000 A 
ENDROOT
BRANCH   1   9
ATOM      7  C   UNL     1       6.577   4.522  15.456  0.00  0.00    +0.000 C 
ATOM      8  O   UNL     1       7.343   4.593  16.411  0.00  0.00    +0.000 OA
ATOM      9  N   UNL     1       5.208   4.348  15.509  0.00  0.00    +0.000 N 
ATOM     10  H   UNL     1       4.720   4.157  14.644  0.00  0.00    +0.000 HD
BRANCH   7  12
ATOM     11  C   UNL     1       6.475   3.914  13.093  0.00  0.00    +0.000 C 
ATOM     12  C   UNL     1       7.105   4.589  14.065  0.00  0.00    +0.000 C 
ENDBRANCH   7  12
ENDBRANCH   1   9
BRANCH   4  13
ATOM     13  S   UNL     1       1.910   4.092  20.506  0.00  0.00    +0.000 S 
ATOM     14  C   UNL     1       2.661   2.756  21.401  0.00  0.00    +0.000 C 
ATOM     15  O   UNL     1       2.139   5.319  21.246  0.00  0.00    +0.000 OA
ATOM     16  O   UNL     1       0.570   3.686  20.131  0.00  0.00    +0.000 OA
ENDBRANCH   4  13
TORSDOF 3
ENDMDL
