MODEL 1
REMARK VINA RESULT:      -6.5      0.000      0.000
REMARK  Name = 
REMARK  7 active torsions:
REMARK  status: ('A' for Active; 'I' for Inactive)
REMARK    1  A    between atoms: C_1  and  C_2
REMARK    2  A    between atoms: C_2  and  C_3
REMARK    3  A    between atoms: C_4  and  C_5
REMARK    4  A    between atoms: N_7  and  C_8
REMARK    5  A    between atoms: C_10  and  C_11
REMARK    6  A    between atoms: C_12  and  C_13
REMARK    7  A    between atoms: C_13  and  C_14
REMARK                            x       y       z     vdW  Elec       q    Type
REMARK                         _______ _______ _______ _____ _____    ______ ____
ROOT
ATOM      1  C   UNL     1       3.772   5.033  19.036  0.00  0.00    +0.000 A 
ATOM      2  C   UNL     1       5.132   4.730  18.981  0.00  0.00    +0.000 A 
ATOM      3  N   UNL     1       5.219   3.369  18.838  0.00  0.00    +0.000 N 
ATOM      4  C   UNL     1       3.987   2.782  18.721  0.00  0.00    +0.000 A 
ATOM      5  C   UNL     1       3.931   1.304  18.554  0.00  0.00    +0.000 C 
ATOM      6  C   UNL     1       3.028   3.787  18.820  0.00  0.00    +0.000 A 
ATOM      7  H   UNL     1       6.108   2.884  18.817  0.00  0.00    +0.000 HD
ENDROOT
BRANCH   2   8
ATOM      8  C   UNL     1       6.366   5.490  19.083  0.00  0.00    +0.000 C 
ATOM      9  O   UNL     1       7.163   5.289  19.997  0.00  0.00    +0.000 OA
ATOM     10  N   UNL     1       6.623   6.380  18.072  0.00  0.00    +0.000 N 
ATOM     11  C   UNL     1       7.846   7.138  17.987  0.00  0.00    +0.000 C 
ATOM     12  H   UNL     1       5.990   6.421  17.293  0.00  0.00    +0.000 HD
ENDBRANCH   2   8
BRANCH   6  13
ATOM     13  C   UNL     1       1.551   3.671  18.751  0.00  0.00    +0.000 C 
ATOM     14  C   UNL     1       0.692   3.434  19.968  0.00  0.00    +0.000 C 
ATOM     15  O   UNL     1       0.963   3.752  17.667  0.00  0.00    +0.000 OA
ENDBRANCH   6  13
BRANCH   1  17
ATOM     16  C   UNL     1       2.836   7.191  18.090  0.00  0.00    +0.000 C 
ATOM     17  C   UNL     1       3.154   6.375  19.335  0.00  0.00    +0.000 C 
ENDBRANCH   1  17
TORSDOF 3
ENDMDL
MODEL 2
REMARK VINA RESULT:      -6.5      2.676      4.589
REMARK  Name = 
REMARK  7 active torsions:
REMARK  status: ('A' for Active; 'I' for Inactive)
REMARK    1  A    between atoms: C_1  and  C_2
REMARK    2  A    between atoms: C_2  and  C_3
REMARK    3  A    between atoms: C_4  and  C_5
REMARK    4  A    between atoms: N_7  and  C_8
REMARK    5  A    between atoms: C_10  and  C_11
REMARK    6  A    between atoms: C_12  and  C_13
REMARK    7  A    between atoms: C_13  and  C_14
REMARK                            x       y       z     vdW  Elec       q    Type
REMARK                         _______ _______ _______ _____ _____    ______ ____
ROOT
ATOM      1  C   UNL     1       4.273   3.934  17.732  0.00  0.00    +0.000 A 
ATOM      2  C   UNL     1       4.673   3.575  19.019  0.00  0.00    +0.000 A 
ATOM      3  N   UNL     1       5.950   4.049  19.172  0.00  0.00    +0.000 N 
ATOM      4  C   UNL     1       6.372   4.762  18.082  0.00  0.00    +0.000 A 
ATOM      5  C   UNL     1       7.743   5.340  18.113  0.00  0.00    +0.000 C 
ATOM      6  C   UNL     1       5.346   4.741  17.140  0.00  0.00    +0.000 A 
ATOM      7  H   UNL     1       6.491   3.881  20.012  0.00  0.00    +0.000 HD
ENDROOT
BRANCH   2   8
ATOM      8  C   UNL     1       4.081   2.827  20.114  0.00  0.00    +0.000 C 
ATOM      9  O   UNL     1       4.682   1.896  20.646  0.00  0.00    +0.000 OA
ATOM     10  N   UNL     1       2.861   3.262  20.565  0.00  0.00    +0.000 N 
ATOM     11  C   UNL     1       2.192   2.681  21.702  0.00  0.00    +0.000 C 
ATOM     12  H   UNL     1       2.469   4.098  20.167  0.00  0.00    +0.000 HD
ENDBRANCH   2   8
BRANCH   6  13
ATOM     13  C   UNL     1       5.305   5.369  15.796  0.00  0.00    +0.000 C 
ATOM     14  C   UNL     1       5.525   4.590  14.524  0.00  0.00    +0.000 C 
ATOM     15  O   UNL     1       5.101   6.582  15.674  0.00  0.00    +0.000 OA
ENDBRANCH   6  13
BRANCH   1  17
ATOM     16  C   UNL     1       1.768   4.260  17.512  0.00  0.00    +0.000 C 
ATOM     17  C   UNL     1       3.007   3.520  17.027  0.00  0.00    +0.000 C 
ENDBRANCH   1  17
TORSDOF 3
ENDMDL
MODEL 3
REMARK VINA RESULT:      -6.1      2.014      3.264
REMARK  Name = 
REMARK  7 active torsions:
REMARK  status: ('A' for Active; 'I' for Inactive)
REMARK    1  A    between atoms: C_1  and  C_2
REMARK    2  A    between atoms: C_2  and  C_3
REMARK    3  A    between atoms: C_4  and  C_5
REMARK    4  A    between atoms: N_7  and  C_8
REMARK    5  A    between atoms: C_10  and  C_11
REMARK    6  A    between atoms: C_12  and  C_13
REMARK    7  A    between atoms: C_13  and  C_14
REMARK                            x       y       z     vdW  Elec       q    Type
REMARK                         _______ _______ _______ _____ _____    ______ ____
ROOT
ATOM      1  C   UNL     1       4.149   3.658  19.416  0.00  0.00    +0.000 A 
ATOM      2  C   UNL     1       4.898   4.622  18.741  0.00  0.00    +0.000 A 
ATOM      3  N   UNL     1       4.220   5.806  18.881  0.00  0.00    +0.000 N 
ATOM      4  C   UNL     1       3.111   5.676  19.674  0.00  0.00    +0.000 A 
ATOM      5  C   UNL     1       2.280   6.887  19.917  0.00  0.00    +0.000 C 
ATOM      6  C   UNL     1       3.021   4.340  20.061  0.00  0.00    +0.000 A 
ATOM      7  H   UNL     1       4.534   6.663  18.441  0.00  0.00    +0.000 HD
ENDROOT
BRANCH   2   8
ATOM      8  C   UNL     1       6.117   4.617  17.950  0.00  0.00    +0.000 C 
ATOM      9  O   UNL     1       7.217   4.481  18.480  0.00  0.00    +0.000 OA
ATOM     10  N   UNL     1       5.965   4.695  16.589  0.00  0.00    +0.000 N 
ATOM     11  C   UNL     1       7.072   4.609  15.671  0.00  0.00    +0.000 C 
ATOM     12  H   UNL     1       5.036   4.691  16.206  0.00  0.00    +0.000 HD
ENDBRANCH   2   8
BRANCH   6  13
ATOM     13  C   UNL     1       2.005   3.690  20.923  0.00  0.00    +0.000 C 
ATOM     14  C   UNL     1       0.659   3.244  20.407  0.00  0.00    +0.000 C 
ATOM     15  O   UNL     1       2.226   3.501  22.125  0.00  0.00    +0.000 OA
ENDBRANCH   6  13
BRANCH   1  17
ATOM     16  C   UNL     1       3.578   1.408  18.397  0.00  0.00    +0.000 C 
ATOM     17  C   UNL     1       4.391   2.171  19.433  0.00  0.00    +0.000 C 
ENDBRANCH   1  17
TORSDOF 3
ENDMDL
MODEL 4
REMARK VINA RESULT:      -6.0      1.154      1.214
REMARK  Name = 
REMARK  7 active torsions:
REMARK  status: ('A' for Active; 'I' for Inactive)
REMARK    1  A    between atoms: C_1  and  C_2
REMARK    2  A    between atoms: C_2  and  C_3
REMARK    3  A    between atoms: C_4  and  C_5
REMARK    4  A    between atoms: N_7  and  C_8
REMARK    5  A    between atoms: C_10  and  C_11
REMARK    6  A    between atoms: C_12  and  C_13
REMARK    7  A    between atoms: C_13  and  C_14
REMARK                            x       y       z     vdW  Elec       q    Type
REMARK                         _______ _______ _______ _____ _____    ______ ____
ROOT
ATOM      1  C   UNL     1       4.128   5.018  18.091  0.00  0.00    +0.000 A 
ATOM      2  C   UNL     1       5.501   4.818  18.238  0.00  0.00    +0.000 A 
ATOM      3  N   UNL     1       5.647   3.717  19.042  0.00  0.00    +0.000 N 
ATOM      4  C   UNL     1       4.444   3.146  19.362  0.00  0.00    +0.000 A 
ATOM      5  C   UNL     1       4.453   1.936  20.228  0.00  0.00    +0.000 C 
ATOM      6  C   UNL     1       3.441   3.915  18.773  0.00  0.00    +0.000 A 
ATOM      7  H   UNL     1       6.556   3.384  19.340  0.00  0.00    +0.000 HD
ENDROOT
BRANCH   2   8
ATOM      8  C   UNL     1       6.699   5.508  17.792  0.00  0.00    +0.000 C 
ATOM      9  O   UNL     1       7.591   4.909  17.195  0.00  0.00    +0.000 OA
ATOM     10  N   UNL     1       6.742   6.862  18.004  0.00  0.00    +0.000 N 
ATOM     11  C   UNL     1       7.821   7.695  17.535  0.00  0.00    +0.000 C 
ATOM     12  H   UNL     1       5.935   7.315  18.395  0.00  0.00    +0.000 HD
ENDBRANCH   2   8
BRANCH   6  13
ATOM     13  C   UNL     1       1.972   3.715  18.816  0.00  0.00    +0.000 C 
ATOM     14  C   UNL     1       1.151   3.958  20.057  0.00  0.00    +0.000 C 
ATOM     15  O   UNL     1       1.361   3.319  17.817  0.00  0.00    +0.000 OA
ENDBRANCH   6  13
BRANCH   1  17
ATOM     16  C   UNL     1       2.895   7.211  18.401  0.00  0.00    +0.000 C 
ATOM     17  C   UNL     1       3.448   6.184  17.423  0.00  0.00    +0.000 C 
ENDBRANCH   1  17
TORSDOF 3
ENDMDL
MODEL 5
REMARK VINA RESULT:      -6.0      2.358      4.932
REMARK  Name = 
REMARK  7 active torsions:
REMARK  status: ('A' for Active; 'I' for Inactive)
REMARK    1  A    between atoms: C_1  and  C_2
REMARK    2  A    between atoms: C_2  and  C_3
REMARK    3  A    between atoms: C_4  and  C_5
REMARK    4  A    between atoms: N_7  and  C_8
REMARK    5  A    between atoms: C_10  and  C_11
REMARK    6  A    between atoms: C_12  and  C_13
REMARK    7  A    between atoms: C_13  and  C_14
REMARK                            x       y       z     vdW  Elec       q    Type
REMARK                         _______ _______ _______ _____ _____    ______ ____
ROOT
ATOM      1  C   UNL     1       4.805   4.695  18.231  0.00  0.00    +0.000 A 
ATOM      2  C   UNL     1       4.274   3.518  17.704  0.00  0.00    +0.000 A 
ATOM      3  N   UNL     1       4.900   3.316  16.501  0.00  0.00    +0.000 N 
ATOM      4  C   UNL     1       5.862   4.259  16.254  0.00  0.00    +0.000 A 
ATOM      5  C   UNL     1       6.628   4.160  14.981  0.00  0.00    +0.000 C 
ATOM      6  C   UNL     1       5.864   5.152  17.324  0.00  0.00    +0.000 A 
ATOM      7  H   UNL     1       4.661   2.544  15.891  0.00  0.00    +0.000 HD
ENDROOT
BRANCH   2   8
ATOM      8  C   UNL     1       3.250   2.572  18.113  0.00  0.00    +0.000 C 
ATOM      9  O   UNL     1       3.537   1.413  18.405  0.00  0.00    +0.000 OA
ATOM     10  N   UNL     1       1.974   3.061  18.228  0.00  0.00    +0.000 N 
ATOM     11  C   UNL     1       0.872   2.269  18.711  0.00  0.00    +0.000 C 
ATOM     12  H   UNL     1       1.820   4.043  18.085  0.00  0.00    +0.000 HD
ENDBRANCH   2   8
BRANCH   6  13
ATOM     13  C   UNL     1       6.720   6.344  17.537  0.00  0.00    +0.000 C 
ATOM     14  C   UNL     1       7.794   6.401  18.594  0.00  0.00    +0.000 C 
ATOM     15  O   UNL     1       6.567   7.361  16.850  0.00  0.00    +0.000 OA
ENDBRANCH   6  13
BRANCH   1  17
ATOM     16  C   UNL     1       3.102   6.279  19.241  0.00  0.00    +0.000 C 
ATOM     17  C   UNL     1       4.342   5.425  19.465  0.00  0.00    +0.000 C 
ENDBRANCH   1  17
TORSDOF 3
ENDMDL
MODEL 6
REMARK VINA RESULT:      -6.0      2.541      4.193
REMARK  Name = 
REMARK  7 active torsions:
REMARK  status: ('A' for Active; 'I' for Inactive)
REMARK    1  A    between atoms: C_1  and  C_2
REMARK    2  A    between atoms: C_2  and  C_3
REMARK    3  A    between atoms: C_4  and  C_5
REMARK    4  A    between atoms: N_7  and  C_8
REMARK    5  A    between atoms: C_10  and  C_11
REMARK    6  A    between atoms: C_12  and  C_13
REMARK    7  A    between atoms: C_13  and  C_14
REMARK                            x       y       z     vdW  Elec       q    Type
REMARK                         _______ _______ _______ _____ _____    ______ ____
ROOT
ATOM      1  C   UNL     1       2.987   4.614  19.931  0.00  0.00    +0.000 A 
ATOM      2  C   UNL     1       3.126   5.931  19.493  0.00  0.00    +0.000 A 
ATOM      3  N   UNL     1       4.290   5.975  18.768  0.00  0.00    +0.000 N 
ATOM      4  C   UNL     1       4.873   4.741  18.651  0.00  0.00    +0.000 A 
ATOM      5  C   UNL     1       6.145   4.640  17.883  0.00  0.00    +0.000 C 
ATOM      6  C   UNL     1       4.084   3.832  19.351  0.00  0.00    +0.000 A 
ATOM      7  H   UNL     1       4.646   6.836  18.372  0.00  0.00    +0.000 HD
ENDROOT
BRANCH   2   8
ATOM      8  C   UNL     1       2.380   7.164  19.671  0.00  0.00    +0.000 C 
ATOM      9  O   UNL     1       2.125   7.896  18.717  0.00  0.00    +0.000 OA
ATOM     10  N   UNL     1       1.917   7.423  20.935  0.00  0.00    +0.000 N 
ATOM     11  C   UNL     1       1.085   8.557  21.249  0.00  0.00    +0.000 C 
ATOM     12  H   UNL     1       2.059   6.733  21.652  0.00  0.00    +0.000 HD
ENDBRANCH   2   8
BRANCH   6  13
ATOM     13  C   UNL     1       4.282   2.372  19.525  0.00  0.00    +0.000 C 
ATOM     14  C   UNL     1       3.632   1.347  18.630  0.00  0.00    +0.000 C 
ATOM     15  O   UNL     1       4.990   1.937  20.441  0.00  0.00    +0.000 OA
ENDBRANCH   6  13
BRANCH   1  17
ATOM     16  C   UNL     1       0.749   3.452  20.196  0.00  0.00    +0.000 C 
ATOM     17  C   UNL     1       1.950   4.082  20.887  0.00  0.00    +0.000 C 
ENDBRANCH   1  17
TORSDOF 3
ENDMDL
MODEL 7
REMARK VINA RESULT:      -6.0      2.409      3.918
REMARK  Name = 
REMARK  7 active torsions:
REMARK  status: ('A' for Active; 'I' for Inactive)
REMARK    1  A    between atoms: C_1  and  C_2
REMARK    2  A    between atoms: C_2  and  C_3
REMARK    3  A    between atoms: C_4  and  C_5
REMARK    4  A    between atoms: N_7  and  C_8
REMARK    5  A    between atoms: C_10  and  C_11
REMARK    6  A    between atoms: C_12  and  C_13
REMARK    7  A    between atoms: C_13  and  C_14
REMARK                            x       y       z     vdW  Elec       q    Type
REMARK                         _______ _______ _______ _____ _____    ______ ____
ROOT
ATOM      1  C   UNL     1       3.011   4.947  19.559  0.00  0.00    +0.000 A 
ATOM      2  C   UNL     1       3.082   6.184  18.917  0.00  0.00    +0.000 A 
ATOM      3  N   UNL     1       4.093   6.083  17.996  0.00  0.00    +0.000 N 
ATOM      4  C   UNL     1       4.631   4.825  17.954  0.00  0.00    +0.000 A 
ATOM      5  C   UNL     1       5.739   4.571  16.992  0.00  0.00    +0.000 C 
ATOM      6  C   UNL     1       3.975   4.051  18.909  0.00  0.00    +0.000 A 
ATOM      7  H   UNL     1       4.379   6.867  17.422  0.00  0.00    +0.000 HD
ENDROOT
BRANCH   2   8
ATOM      8  C   UNL     1       2.394   7.457  19.047  0.00  0.00    +0.000 C 
ATOM      9  O   UNL     1       1.977   7.845  20.136  0.00  0.00    +0.000 OA
ATOM     10  N   UNL     1       2.308   8.225  17.915  0.00  0.00    +0.000 N 
ATOM     11  C   UNL     1       1.738   9.549  17.907  0.00  0.00    +0.000 C 
ATOM     12  H   UNL     1       2.767   7.907  17.079  0.00  0.00    +0.000 HD
ENDBRANCH   2   8
BRANCH   6  13
ATOM     13  C   UNL     1       4.186   2.624  19.253  0.00  0.00    +0.000 C 
ATOM     14  C   UNL     1       3.502   1.497  18.520  0.00  0.00    +0.000 C 
ATOM     15  O   UNL     1       4.934   2.305  20.184  0.00  0.00    +0.000 OA
ENDBRANCH   6  13
BRANCH   1  17
ATOM     16  C   UNL     1       0.911   3.801  20.398  0.00  0.00    +0.000 C 
ATOM     17  C   UNL     1       2.162   4.593  20.752  0.00  0.00    +0.000 C 
ENDBRANCH   1  17
TORSDOF 3
ENDMDL
MODEL 8
REMARK VINA RESULT:      -6.0      0.997      1.020
REMARK  Name = 
REMARK  7 active torsions:
REMARK  status: ('A' for Active; 'I' for Inactive)
REMARK    1  A    between atoms: C_1  and  C_2
REMARK    2  A    between atoms: C_2  and  C_3
REMARK    3  A    between atoms: C_4  and  C_5
REMARK    4  A    between atoms: N_7  and  C_8
REMARK    5  A    between atoms: C_10  and  C_11
REMARK    6  A    between atoms: C_12  and  C_13
REMARK    7  A    between atoms: C_13  and  C_14
REMARK                            x       y       z     vdW  Elec       q    Type
REMARK                         _______ _______ _______ _____ _____    ______ ____
ROOT
ATOM      1  C   UNL     1       3.699   4.815  19.473  0.00  0.00    +0.000 A 
ATOM      2  C   UNL     1       5.052   4.604  19.208  0.00  0.00    +0.000 A 
ATOM      3  N   UNL     1       5.225   3.245  19.142  0.00  0.00    +0.000 N 
ATOM      4  C   UNL     1       4.043   2.566  19.276  0.00  0.00    +0.000 A 
ATOM      5  C   UNL     1       4.082   1.079  19.219  0.00  0.00    +0.000 C 
ATOM      6  C   UNL     1       3.034   3.507  19.470  0.00  0.00    +0.000 A 
ATOM      7  H   UNL     1       6.135   2.824  19.001  0.00  0.00    +0.000 HD
ENDROOT
BRANCH   2   8
ATOM      8  C   UNL     1       6.219   5.454  19.048  0.00  0.00    +0.000 C 
ATOM      9  O   UNL     1       7.143   5.424  19.858  0.00  0.00    +0.000 OA
ATOM     10  N   UNL     1       6.264   6.226  17.915  0.00  0.00    +0.000 N 
ATOM     11  C   UNL     1       7.396   7.049  17.572  0.00  0.00    +0.000 C 
ATOM     12  H   UNL     1       5.533   6.125  17.233  0.00  0.00    +0.000 HD
ENDBRANCH   2   8
BRANCH   6  13
ATOM     13  C   UNL     1       1.580   3.283  19.663  0.00  0.00    +0.000 C 
ATOM     14  C   UNL     1       0.719   2.584  18.641  0.00  0.00    +0.000 C 
ATOM     15  O   UNL     1       1.011   3.687  20.684  0.00  0.00    +0.000 OA
ENDBRANCH   6  13
BRANCH   1  17
ATOM     16  C   UNL     1       2.632   6.920  18.546  0.00  0.00    +0.000 C 
ATOM     17  C   UNL     1       3.031   6.129  19.784  0.00  0.00    +0.000 C 
ENDBRANCH   1  17
TORSDOF 3
ENDMDL
MODEL 9
REMARK VINA RESULT:      -5.9      1.934      1.997
REMARK  Name = 
REMARK  7 active torsions:
REMARK  status: ('A' for Active; 'I' for Inactive)
REMARK    1  A    between atoms: C_1  and  C_2
REMARK    2  A    between atoms: C_2  and  C_3
REMARK    3  A    between atoms: C_4  and  C_5
REMARK    4  A    between atoms: N_7  and  C_8
REMARK    5  A    between atoms: C_10  and  C_11
REMARK    6  A    between atoms: C_12  and  C_13
REMARK    7  A    between atoms: C_13  and  C_14
REMARK                            x       y       z     vdW  Elec       q    Type
REMARK                         _______ _______ _______ _____ _____    ______ ____
ROOT
ATOM      1  C   UNL     1       3.380   4.187  18.407  0.00  0.00    +0.000 A 
ATOM      2  C   UNL     1       4.748   4.163  18.131  0.00  0.00    +0.000 A 
ATOM      3  N   UNL     1       5.298   3.244  18.987  0.00  0.00    +0.000 N 
ATOM      4  C   UNL     1       4.350   2.616  19.751  0.00  0.00    +0.000 A 
ATOM      5  C   UNL     1       4.808   1.587  20.725  0.00  0.00    +0.000 C 
ATOM      6  C   UNL     1       3.111   3.157  19.417  0.00  0.00    +0.000 A 
ATOM      7  H   UNL     1       6.295   3.067  19.020  0.00  0.00    +0.000 HD
ENDROOT
BRANCH   2   8
ATOM      8  C   UNL     1       5.634   4.883  17.233  0.00  0.00    +0.000 C 
ATOM      9  O   UNL     1       6.052   6.003  17.517  0.00  0.00    +0.000 OA
ATOM     10  N   UNL     1       6.033   4.218  16.102  0.00  0.00    +0.000 N 
ATOM     11  C   UNL     1       6.981   4.765  15.165  0.00  0.00    +0.000 C 
ATOM     12  H   UNL     1       5.749   3.262  15.979  0.00  0.00    +0.000 HD
ENDBRANCH   2   8
BRANCH   6  13
ATOM     13  C   UNL     1       1.772   2.815  19.957  0.00  0.00    +0.000 C 
ATOM     14  C   UNL     1       1.418   2.959  21.415  0.00  0.00    +0.000 C 
ATOM     15  O   UNL     1       0.887   2.376  19.213  0.00  0.00    +0.000 OA
ENDBRANCH   6  13
BRANCH   1  17
ATOM     16  C   UNL     1       2.518   6.570  18.330  0.00  0.00    +0.000 C 
ATOM     17  C   UNL     1       2.358   5.137  17.840  0.00  0.00    +0.000 C 
ENDBRANCH   1  17
TORSDOF 3
ENDMDL
