MODEL 1
REMARK VINA RESULT:      -9.0      0.000      0.000
REMARK  Name = 
REMARK  8 active torsions:
REMARK  status: ('A' for Active; 'I' for Inactive)
REMARK    1  A    between atoms: C_1  and  C_2
REMARK    2  A    between atoms: C_2  and  C_3
REMARK    3  A    between atoms: C_2  and  O_4
REMARK    4  A    between atoms: O_4  and  C_5
REMARK    5  A    between atoms: C_8  and  C_9
REMARK    6  A    between atoms: C_11  and  C_12
REMARK    7  A    between atoms: C_15  and  C_16
REMARK    8  A    between atoms: C_16  and  O_18
REMARK                            x       y       z     vdW  Elec       q    Type
REMARK                         _______ _______ _______ _____ _____    ______ ____
ROOT
ATOM      1  C   UNL     1       3.792   5.282  18.774  0.00  0.00    +0.000 A 
ATOM      2  N   UNL     1       3.199   6.527  18.823  0.00  0.00    +0.000 NA
ATOM      3  C   UNL     1       2.249   6.830  19.743  0.00  0.00    +0.000 A 
ATOM      4  C   UNL     1       1.843   5.912  20.708  0.00  0.00    +0.000 A 
ATOM      5  C   UNL     1       2.453   4.660  20.667  0.00  0.00    +0.000 A 
ATOM      6  N   UNL     1       2.269   3.552  21.444  0.00  0.00    +0.000 N 
ATOM      7  N   UNL     1       3.066   2.527  21.134  0.00  0.00    +0.000 NA
ATOM      8  C   UNL     1       3.791   2.983  20.116  0.00  0.00    +0.000 A 
ATOM      9  N   UNL     1       4.752   2.220  19.574  0.00  0.00    +0.000 N 
ATOM     10  C   UNL     1       3.433   4.315  19.736  0.00  0.00    +0.000 A 
ATOM     11  H   UNL     1       1.615   3.433  22.210  0.00  0.00    +0.000 HD
ATOM     12  H   UNL     1       4.966   1.365  20.078  0.00  0.00    +0.000 HD
ATOM     13  H   UNL     1       5.573   2.649  19.163  0.00  0.00    +0.000 HD
ENDROOT
BRANCH   1  17
ATOM     14  C   UNL     1       6.630   4.678  15.579  0.00  0.00    +0.000 A 
ATOM     15  C   UNL     1       5.438   3.964  15.622  0.00  0.00    +0.000 A 
ATOM     16  C   UNL     1       4.529   4.175  16.669  0.00  0.00    +0.000 A 
ATOM     17  C   UNL     1       4.788   5.080  17.712  0.00  0.00    +0.000 A 
ATOM     18  C   UNL     1       6.031   5.730  17.685  0.00  0.00    +0.000 A 
ATOM     19  C   UNL     1       6.925   5.557  16.620  0.00  0.00    +0.000 A 
BRANCH  14  20
ATOM     20  O   UNL     1       7.578   4.600  14.600  0.00  0.00    +0.000 OA
BRANCH  20  22
ATOM     21  C   UNL     1       8.426   5.794  12.718  0.00  0.00    +0.000 C 
ATOM     22  C   UNL     1       7.235   5.017  13.272  0.00  0.00    +0.000 C 
ATOM     23  C   UNL     1       6.946   3.795  12.406  0.00  0.00    +0.000 C 
ENDBRANCH  20  22
ENDBRANCH  14  20
ENDBRANCH   1  17
BRANCH   3  24
ATOM     24  C   UNL     1       1.652   8.187  19.644  0.00  0.00    +0.000 A 
ATOM     25  C   UNL     1       1.698   8.926  18.446  0.00  0.00    +0.000 A 
ATOM     26  C   UNL     1       1.142  10.207  18.348  0.00  0.00    +0.000 A 
ATOM     27  C   UNL     1       0.531  10.798  19.456  0.00  0.00    +0.000 A 
ATOM     28  C   UNL     1       0.455  10.082  20.655  0.00  0.00    +0.000 A 
ATOM     29  C   UNL     1       1.019   8.798  20.745  0.00  0.00    +0.000 A 
BRANCH  27  30
ATOM     30  C   UNL     1      -0.043  12.159  19.283  0.00  0.00    +0.000 C 
ATOM     31  O   UNL     1      -0.523  12.792  20.210  0.00  0.00    +0.000 OA
BRANCH  30  32
ATOM     32  O   UNL     1      -0.033  12.609  18.014  0.00  0.00    +0.000 OA
ATOM     33  H   UNL     1       0.063  13.572  17.914  0.00  0.00    +0.000 HD
ENDBRANCH  30  32
ENDBRANCH  27  30
ENDBRANCH   3  24
TORSDOF 6
ENDMDL
MODEL 2
REMARK VINA RESULT:      -8.8      0.168      1.270
REMARK  Name = 
REMARK  8 active torsions:
REMARK  status: ('A' for Active; 'I' for Inactive)
REMARK    1  A    between atoms: C_1  and  C_2
REMARK    2  A    between atoms: C_2  and  C_3
REMARK    3  A    between atoms: C_2  and  O_4
REMARK    4  A    between atoms: O_4  and  C_5
REMARK    5  A    between atoms: C_8  and  C_9
REMARK    6  A    between atoms: C_11  and  C_12
REMARK    7  A    between atoms: C_15  and  C_16
REMARK    8  A    between atoms: C_16  and  O_18
REMARK                            x       y       z     vdW  Elec       q    Type
REMARK                         _______ _______ _______ _____ _____    ______ ____
ROOT
ATOM      1  C   UNL     1       3.689   5.350  18.712  0.00  0.00    +0.000 A 
ATOM      2  N   UNL     1       3.087   6.590  18.760  0.00  0.00    +0.000 NA
ATOM      3  C   UNL     1       2.169   6.902  19.710  0.00  0.00    +0.000 A 
ATOM      4  C   UNL     1       1.811   6.000  20.707  0.00  0.00    +0.000 A 
ATOM      5  C   UNL     1       2.431   4.753  20.667  0.00  0.00    +0.000 A 
ATOM      6  N   UNL     1       2.288   3.659  21.472  0.00  0.00    +0.000 N 
ATOM      7  N   UNL     1       3.083   2.635  21.151  0.00  0.00    +0.000 NA
ATOM      8  C   UNL     1       3.764   3.078  20.098  0.00  0.00    +0.000 A 
ATOM      9  N   UNL     1       4.710   2.313  19.534  0.00  0.00    +0.000 N 
ATOM     10  C   UNL     1       3.378   4.398  19.706  0.00  0.00    +0.000 A 
ATOM     11  H   UNL     1       1.665   3.549  22.265  0.00  0.00    +0.000 HD
ATOM     12  H   UNL     1       4.953   1.470  20.045  0.00  0.00    +0.000 HD
ATOM     13  H   UNL     1       5.511   2.741  19.082  0.00  0.00    +0.000 HD
ENDROOT
BRANCH   1  17
ATOM     14  C   UNL     1       6.587   4.741  15.571  0.00  0.00    +0.000 A 
ATOM     15  C   UNL     1       6.787   5.704  16.553  0.00  0.00    +0.000 A 
ATOM     16  C   UNL     1       5.833   5.887  17.565  0.00  0.00    +0.000 A 
ATOM     17  C   UNL     1       4.646   5.136  17.616  0.00  0.00    +0.000 A 
ATOM     18  C   UNL     1       4.433   4.226  16.571  0.00  0.00    +0.000 A 
ATOM     19  C   UNL     1       5.401   4.008  15.582  0.00  0.00    +0.000 A 
BRANCH  14  20
ATOM     20  O   UNL     1       7.450   4.434  14.559  0.00  0.00    +0.000 OA
BRANCH  20  22
ATOM     21  C   UNL     1       8.409   5.715  12.792  0.00  0.00    +0.000 C 
ATOM     22  C   UNL     1       7.178   4.934  13.244  0.00  0.00    +0.000 C 
ATOM     23  C   UNL     1       6.908   3.770  12.295  0.00  0.00    +0.000 C 
ENDBRANCH  20  22
ENDBRANCH  14  20
ENDBRANCH   1  17
BRANCH   3  24
ATOM     24  C   UNL     1       1.556   8.251  19.608  0.00  0.00    +0.000 A 
ATOM     25  C   UNL     1       0.877   8.835  20.695  0.00  0.00    +0.000 A 
ATOM     26  C   UNL     1       0.293  10.104  20.604  0.00  0.00    +0.000 A 
ATOM     27  C   UNL     1       0.359  10.828  19.411  0.00  0.00    +0.000 A 
ATOM     28  C   UNL     1       1.041  10.281  18.319  0.00  0.00    +0.000 A 
ATOM     29  C   UNL     1       1.622   9.005  18.420  0.00  0.00    +0.000 A 
BRANCH  27  30
ATOM     30  C   UNL     1      -0.279  12.171  19.383  0.00  0.00    +0.000 C 
ATOM     31  O   UNL     1      -0.786  12.677  20.371  0.00  0.00    +0.000 OA
BRANCH  30  32
ATOM     32  O   UNL     1      -0.292  12.754  18.169  0.00  0.00    +0.000 OA
ATOM     33  H   UNL     1      -1.007  13.398  18.025  0.00  0.00    +0.000 HD
ENDBRANCH  30  32
ENDBRANCH  27  30
ENDBRANCH   3  24
TORSDOF 6
ENDMDL
MODEL 3
REMARK VINA RESULT:      -8.8      0.232      1.085
REMARK  Name = 
REMARK  8 active torsions:
REMARK  status: ('A' for Active; 'I' for Inactive)
REMARK    1  A    between atoms: C_1  and  C_2
REMARK    2  A    between atoms: C_2  and  C_3
REMARK    3  A    between atoms: C_2  and  O_4
REMARK    4  A    between atoms: O_4  and  C_5
REMARK    5  A    between atoms: C_8  and  C_9
REMARK    6  A    between atoms: C_11  and  C_12
REMARK    7  A    between atoms: C_15  and  C_16
REMARK    8  A    between atoms: C_16  and  O_18
REMARK                            x       y       z     vdW  Elec       q    Type
REMARK                         _______ _______ _______ _____ _____    ______ ____
ROOT
ATOM      1  C   UNL     1       3.720   5.339  18.801  0.00  0.00    +0.000 A 
ATOM      2  N   UNL     1       3.119   6.577  18.898  0.00  0.00    +0.000 NA
ATOM      3  C   UNL     1       2.188   6.847  19.848  0.00  0.00    +0.000 A 
ATOM      4  C   UNL     1       1.814   5.900  20.797  0.00  0.00    +0.000 A 
ATOM      5  C   UNL     1       2.432   4.655  20.708  0.00  0.00    +0.000 A 
ATOM      6  N   UNL     1       2.275   3.525  21.459  0.00  0.00    +0.000 N 
ATOM      7  N   UNL     1       3.073   2.515  21.103  0.00  0.00    +0.000 NA
ATOM      8  C   UNL     1       3.770   3.005  20.080  0.00  0.00    +0.000 A 
ATOM      9  N   UNL     1       4.723   2.265  19.495  0.00  0.00    +0.000 N 
ATOM     10  C   UNL     1       3.392   4.343  19.745  0.00  0.00    +0.000 A 
ATOM     11  H   UNL     1       1.641   3.380  22.237  0.00  0.00    +0.000 HD
ATOM     12  H   UNL     1       4.956   1.398  19.971  0.00  0.00    +0.000 HD
ATOM     13  H   UNL     1       5.530   2.711  19.076  0.00  0.00    +0.000 HD
ENDROOT
BRANCH   1  17
ATOM     14  C   UNL     1       6.661   4.868  15.677  0.00  0.00    +0.000 A 
ATOM     15  C   UNL     1       6.854   5.776  16.711  0.00  0.00    +0.000 A 
ATOM     16  C   UNL     1       5.886   5.915  17.717  0.00  0.00    +0.000 A 
ATOM     17  C   UNL     1       4.692   5.174  17.711  0.00  0.00    +0.000 A 
ATOM     18  C   UNL     1       4.488   4.322  16.616  0.00  0.00    +0.000 A 
ATOM     19  C   UNL     1       5.469   4.147  15.631  0.00  0.00    +0.000 A 
BRANCH  14  20
ATOM     20  O   UNL     1       7.538   4.606  14.664  0.00  0.00    +0.000 OA
BRANCH  20  22
ATOM     21  C   UNL     1       8.402   5.725  12.745  0.00  0.00    +0.000 C 
ATOM     22  C   UNL     1       7.191   5.005  13.332  0.00  0.00    +0.000 C 
ATOM     23  C   UNL     1       6.849   3.773  12.498  0.00  0.00    +0.000 C 
ENDBRANCH  20  22
ENDBRANCH  14  20
ENDBRANCH   1  17
BRANCH   3  24
ATOM     24  C   UNL     1       1.579   8.201  19.800  0.00  0.00    +0.000 A 
ATOM     25  C   UNL     1       1.615   8.984  18.629  0.00  0.00    +0.000 A 
ATOM     26  C   UNL     1       1.048  10.262  18.580  0.00  0.00    +0.000 A 
ATOM     27  C   UNL     1       0.433  10.806  19.710  0.00  0.00    +0.000 A 
ATOM     28  C   UNL     1       0.366  10.046  20.882  0.00  0.00    +0.000 A 
ATOM     29  C   UNL     1       0.942   8.765  20.923  0.00  0.00    +0.000 A 
BRANCH  27  30
ATOM     30  C   UNL     1      -0.154  12.168  19.588  0.00  0.00    +0.000 C 
ATOM     31  O   UNL     1      -0.458  12.656  18.512  0.00  0.00    +0.000 OA
BRANCH  30  32
ATOM     32  O   UNL     1      -0.272  12.828  20.756  0.00  0.00    +0.000 OA
ATOM     33  H   UNL     1      -0.110  13.786  20.710  0.00  0.00    +0.000 HD
ENDBRANCH  30  32
ENDBRANCH  27  30
ENDBRANCH   3  24
TORSDOF 6
ENDMDL
MODEL 4
REMARK VINA RESULT:      -8.4      0.970      1.206
REMARK  Name = 
REMARK  8 active torsions:
REMARK  status: ('A' for Active; 'I' for Inactive)
REMARK    1  A    between atoms: C_1  and  C_2
REMARK    2  A    between atoms: C_2  and  C_3
REMARK    3  A    between atoms: C_2  and  O_4
REMARK    4  A    between atoms: O_4  and  C_5
REMARK    5  A    between atoms: C_8  and  C_9
REMARK    6  A    between atoms: C_11  and  C_12
REMARK    7  A    between atoms: C_15  and  C_16
REMARK    8  A    between atoms: C_16  and  O_18
REMARK                            x       y       z     vdW  Elec       q    Type
REMARK                         _______ _______ _______ _____ _____    ______ ____
ROOT
ATOM      1  C   UNL     1       3.519   5.390  18.982  0.00  0.00    +0.000 A 
ATOM      2  N   UNL     1       3.013   6.627  19.323  0.00  0.00    +0.000 NA
ATOM      3  C   UNL     1       2.018   6.765  20.236  0.00  0.00    +0.000 A 
ATOM      4  C   UNL     1       1.476   5.669  20.901  0.00  0.00    +0.000 A 
ATOM      5  C   UNL     1       1.998   4.422  20.567  0.00  0.00    +0.000 A 
ATOM      6  N   UNL     1       1.677   3.171  21.014  0.00  0.00    +0.000 N 
ATOM      7  N   UNL     1       2.422   2.195  20.490  0.00  0.00    +0.000 NA
ATOM      8  C   UNL     1       3.254   2.832  19.671  0.00  0.00    +0.000 A 
ATOM      9  N   UNL     1       4.198   2.153  19.002  0.00  0.00    +0.000 N 
ATOM     10  C   UNL     1       3.020   4.243  19.634  0.00  0.00    +0.000 A 
ATOM     11  H   UNL     1       0.959   2.917  21.683  0.00  0.00    +0.000 HD
ATOM     12  H   UNL     1       4.312   1.182  19.275  0.00  0.00    +0.000 HD
ATOM     13  H   UNL     1       5.076   2.600  18.765  0.00  0.00    +0.000 HD
ENDROOT
BRANCH   1  17
ATOM     14  C   UNL     1       6.658   5.257  16.022  0.00  0.00    +0.000 A 
ATOM     15  C   UNL     1       6.833   4.689  17.278  0.00  0.00    +0.000 A 
ATOM     16  C   UNL     1       5.802   4.743  18.226  0.00  0.00    +0.000 A 
ATOM     17  C   UNL     1       4.578   5.382  17.962  0.00  0.00    +0.000 A 
ATOM     18  C   UNL     1       4.456   6.014  16.717  0.00  0.00    +0.000 A 
ATOM     19  C   UNL     1       5.466   5.927  15.749  0.00  0.00    +0.000 A 
BRANCH  14  20
ATOM     20  O   UNL     1       7.560   5.239  14.998  0.00  0.00    +0.000 OA
BRANCH  20  22
ATOM     21  C   UNL     1       8.252   5.479  12.729  0.00  0.00    +0.000 C 
ATOM     22  C   UNL     1       7.074   5.175  13.651  0.00  0.00    +0.000 C 
ATOM     23  C   UNL     1       6.522   3.781  13.368  0.00  0.00    +0.000 C 
ENDBRANCH  20  22
ENDBRANCH  14  20
ENDBRANCH   1  17
BRANCH   3  24
ATOM     24  C   UNL     1       1.528   8.149  20.464  0.00  0.00    +0.000 A 
ATOM     25  C   UNL     1       1.339   9.048  19.396  0.00  0.00    +0.000 A 
ATOM     26  C   UNL     1       0.882  10.355  19.605  0.00  0.00    +0.000 A 
ATOM     27  C   UNL     1       0.609  10.809  20.898  0.00  0.00    +0.000 A 
ATOM     28  C   UNL     1       0.770   9.934  21.976  0.00  0.00    +0.000 A 
ATOM     29  C   UNL     1       1.233   8.625  21.756  0.00  0.00    +0.000 A 
BRANCH  27  30
ATOM     30  C   UNL     1       0.123  12.207  21.049  0.00  0.00    +0.000 C 
ATOM     31  O   UNL     1      -0.036  12.731  22.140  0.00  0.00    +0.000 OA
BRANCH  30  32
ATOM     32  O   UNL     1      -0.173  12.821  19.888  0.00  0.00    +0.000 OA
ATOM     33  H   UNL     1       0.488  13.465  19.578  0.00  0.00    +0.000 HD
ENDBRANCH  30  32
ENDBRANCH  27  30
ENDBRANCH   3  24
TORSDOF 6
ENDMDL
MODEL 5
REMARK VINA RESULT:      -8.2      0.971      1.104
REMARK  Name = 
REMARK  8 active torsions:
REMARK  status: ('A' for Active; 'I' for Inactive)
REMARK    1  A    between atoms: C_1  and  C_2
REMARK    2  A    between atoms: C_2  and  C_3
REMARK    3  A    between atoms: C_2  and  O_4
REMARK    4  A    between atoms: O_4  and  C_5
REMARK    5  A    between atoms: C_8  and  C_9
REMARK    6  A    between atoms: C_11  and  C_12
REMARK    7  A    between atoms: C_15  and  C_16
REMARK    8  A    between atoms: C_16  and  O_18
REMARK                            x       y       z     vdW  Elec       q    Type
REMARK                         _______ _______ _______ _____ _____    ______ ____
ROOT
ATOM      1  C   UNL     1       3.540   5.316  18.394  0.00  0.00    +0.000 A 
ATOM      2  N   UNL     1       2.993   6.578  18.499  0.00  0.00    +0.000 NA
ATOM      3  C   UNL     1       2.211   6.932  19.550  0.00  0.00    +0.000 A 
ATOM      4  C   UNL     1       1.945   6.053  20.596  0.00  0.00    +0.000 A 
ATOM      5  C   UNL     1       2.511   4.784  20.496  0.00  0.00    +0.000 A 
ATOM      6  N   UNL     1       2.428   3.702  21.328  0.00  0.00    +0.000 N 
ATOM      7  N   UNL     1       3.140   2.647  20.925  0.00  0.00    +0.000 NA
ATOM      8  C   UNL     1       3.702   3.055  19.791  0.00  0.00    +0.000 A 
ATOM      9  N   UNL     1       4.544   2.250  19.125  0.00  0.00    +0.000 N 
ATOM     10  C   UNL     1       3.318   4.385  19.431  0.00  0.00    +0.000 A 
ATOM     11  H   UNL     1       1.904   3.623  22.192  0.00  0.00    +0.000 HD
ATOM     12  H   UNL     1       4.817   1.404  19.615  0.00  0.00    +0.000 HD
ATOM     13  H   UNL     1       5.298   2.645  18.574  0.00  0.00    +0.000 HD
ENDROOT
BRANCH   1  17
ATOM     14  C   UNL     1       5.840   4.464  14.843  0.00  0.00    +0.000 A 
ATOM     15  C   UNL     1       5.346   3.438  15.638  0.00  0.00    +0.000 A 
ATOM     16  C   UNL     1       4.601   3.735  16.789  0.00  0.00    +0.000 A 
ATOM     17  C   UNL     1       4.347   5.057  17.193  0.00  0.00    +0.000 A 
ATOM     18  C   UNL     1       4.922   6.073  16.415  0.00  0.00    +0.000 A 
ATOM     19  C   UNL     1       5.631   5.783  15.241  0.00  0.00    +0.000 A 
BRANCH  14  20
ATOM     20  O   UNL     1       6.541   4.314  13.681  0.00  0.00    +0.000 OA
BRANCH  20  22
ATOM     21  C   UNL     1       4.812   3.710  12.153  0.00  0.00    +0.000 C 
ATOM     22  C   UNL     1       6.145   3.285  12.764  0.00  0.00    +0.000 C 
ATOM     23  C   UNL     1       7.203   3.128  11.677  0.00  0.00    +0.000 C 
ENDBRANCH  20  22
ENDBRANCH  14  20
ENDBRANCH   1  17
BRANCH   3  24
ATOM     24  C   UNL     1       1.639   8.302  19.506  0.00  0.00    +0.000 A 
ATOM     25  C   UNL     1       1.675   9.078  18.330  0.00  0.00    +0.000 A 
ATOM     26  C   UNL     1       1.142  10.372  18.284  0.00  0.00    +0.000 A 
ATOM     27  C   UNL     1       0.563  10.938  19.422  0.00  0.00    +0.000 A 
ATOM     28  C   UNL     1       0.497  10.186  20.600  0.00  0.00    +0.000 A 
ATOM     29  C   UNL     1       1.039   8.889  20.637  0.00  0.00    +0.000 A 
BRANCH  27  30
ATOM     30  C   UNL     1       0.012  12.315  19.304  0.00  0.00    +0.000 C 
ATOM     31  O   UNL     1      -0.326  12.972  20.275  0.00  0.00    +0.000 OA
BRANCH  30  32
ATOM     32  O   UNL     1      -0.126  12.750  18.037  0.00  0.00    +0.000 OA
ATOM     33  H   UNL     1       0.682  13.104  17.628  0.00  0.00    +0.000 HD
ENDBRANCH  30  32
ENDBRANCH  27  30
ENDBRANCH   3  24
TORSDOF 6
ENDMDL
MODEL 6
REMARK VINA RESULT:      -8.1      1.057      1.733
REMARK  Name = 
REMARK  8 active torsions:
REMARK  status: ('A' for Active; 'I' for Inactive)
REMARK    1  A    between atoms: C_1  and  C_2
REMARK    2  A    between atoms: C_2  and  C_3
REMARK    3  A    between atoms: C_2  and  O_4
REMARK    4  A    between atoms: O_4  and  C_5
REMARK    5  A    between atoms: C_8  and  C_9
REMARK    6  A    between atoms: C_11  and  C_12
REMARK    7  A    between atoms: C_15  and  C_16
REMARK    8  A    between atoms: C_16  and  O_18
REMARK                            x       y       z     vdW  Elec       q    Type
REMARK                         _______ _______ _______ _____ _____    ______ ____
ROOT
ATOM      1  C   UNL     1       3.700   5.569  19.072  0.00  0.00    +0.000 A 
ATOM      2  N   UNL     1       3.073   6.764  19.361  0.00  0.00    +0.000 NA
ATOM      3  C   UNL     1       2.096   6.849  20.298  0.00  0.00    +0.000 A 
ATOM      4  C   UNL     1       1.695   5.743  21.043  0.00  0.00    +0.000 A 
ATOM      5  C   UNL     1       2.340   4.541  20.761  0.00  0.00    +0.000 A 
ATOM      6  N   UNL     1       2.170   3.292  21.289  0.00  0.00    +0.000 N 
ATOM      7  N   UNL     1       3.001   2.371  20.796  0.00  0.00    +0.000 NA
ATOM      8  C   UNL     1       3.734   3.043  19.913  0.00  0.00    +0.000 A 
ATOM      9  N   UNL     1       4.726   2.430  19.250  0.00  0.00    +0.000 N 
ATOM     10  C   UNL     1       3.348   4.416  19.805  0.00  0.00    +0.000 A 
ATOM     11  H   UNL     1       1.503   3.003  21.997  0.00  0.00    +0.000 HD
ATOM     12  H   UNL     1       4.954   1.495  19.573  0.00  0.00    +0.000 HD
ATOM     13  H   UNL     1       5.544   2.953  18.958  0.00  0.00    +0.000 HD
ENDROOT
BRANCH   1  17
ATOM     14  C   UNL     1       6.747   5.595  16.015  0.00  0.00    +0.000 A 
ATOM     15  C   UNL     1       7.017   5.116  17.292  0.00  0.00    +0.000 A 
ATOM     16  C   UNL     1       6.014   5.117  18.271  0.00  0.00    +0.000 A 
ATOM     17  C   UNL     1       4.724   5.613  18.018  0.00  0.00    +0.000 A 
ATOM     18  C   UNL     1       4.500   6.161  16.747  0.00  0.00    +0.000 A 
ATOM     19  C   UNL     1       5.485   6.124  15.750  0.00  0.00    +0.000 A 
BRANCH  14  20
ATOM     20  O   UNL     1       7.616   5.613  14.963  0.00  0.00    +0.000 OA
BRANCH  20  22
ATOM     21  C   UNL     1       6.079   4.036  14.048  0.00  0.00    +0.000 C 
ATOM     22  C   UNL     1       7.490   4.609  13.947  0.00  0.00    +0.000 C 
ATOM     23  C   UNL     1       7.715   5.234  12.574  0.00  0.00    +0.000 C 
ENDBRANCH  20  22
ENDBRANCH  14  20
ENDBRANCH   1  17
BRANCH   3  24
ATOM     24  C   UNL     1       1.465   8.183  20.465  0.00  0.00    +0.000 A 
ATOM     25  C   UNL     1       1.005   8.628  21.720  0.00  0.00    +0.000 A 
ATOM     26  C   UNL     1       0.404   9.883  21.883  0.00  0.00    +0.000 A 
ATOM     27  C   UNL     1       0.234  10.731  20.787  0.00  0.00    +0.000 A 
ATOM     28  C   UNL     1       0.696  10.325  19.531  0.00  0.00    +0.000 A 
ATOM     29  C   UNL     1       1.294   9.061  19.377  0.00  0.00    +0.000 A 
BRANCH  27  30
ATOM     30  C   UNL     1      -0.407  12.052  21.030  0.00  0.00    +0.000 C 
ATOM     31  O   UNL     1      -1.353  12.452  20.371  0.00  0.00    +0.000 OA
BRANCH  30  32
ATOM     32  O   UNL     1       0.176  12.782  22.000  0.00  0.00    +0.000 OA
ATOM     33  H   UNL     1       1.051  13.146  21.778  0.00  0.00    +0.000 HD
ENDBRANCH  30  32
ENDBRANCH  27  30
ENDBRANCH   3  24
TORSDOF 6
ENDMDL
MODEL 7
REMARK VINA RESULT:      -8.0      1.029      1.313
REMARK  Name = 
REMARK  8 active torsions:
REMARK  status: ('A' for Active; 'I' for Inactive)
REMARK    1  A    between atoms: C_1  and  C_2
REMARK    2  A    between atoms: C_2  and  C_3
REMARK    3  A    between atoms: C_2  and  O_4
REMARK    4  A    between atoms: O_4  and  C_5
REMARK    5  A    between atoms: C_8  and  C_9
REMARK    6  A    between atoms: C_11  and  C_12
REMARK    7  A    between atoms: C_15  and  C_16
REMARK    8  A    between atoms: C_16  and  O_18
REMARK                            x       y       z     vdW  Elec       q    Type
REMARK                         _______ _______ _______ _____ _____    ______ ____
ROOT
ATOM      1  C   UNL     1       3.501   5.420  19.001  0.00  0.00    +0.000 A 
ATOM      2  N   UNL     1       2.980   6.653  19.335  0.00  0.00    +0.000 NA
ATOM      3  C   UNL     1       2.000   6.787  20.264  0.00  0.00    +0.000 A 
ATOM      4  C   UNL     1       1.490   5.691  20.954  0.00  0.00    +0.000 A 
ATOM      5  C   UNL     1       2.027   4.449  20.628  0.00  0.00    +0.000 A 
ATOM      6  N   UNL     1       1.737   3.199  21.098  0.00  0.00    +0.000 N 
ATOM      7  N   UNL     1       2.489   2.228  20.575  0.00  0.00    +0.000 NA
ATOM      8  C   UNL     1       3.294   2.868  19.731  0.00  0.00    +0.000 A 
ATOM      9  N   UNL     1       4.237   2.196  19.054  0.00  0.00    +0.000 N 
ATOM     10  C   UNL     1       3.035   4.274  19.679  0.00  0.00    +0.000 A 
ATOM     11  H   UNL     1       1.036   2.943  21.784  0.00  0.00    +0.000 HD
ATOM     12  H   UNL     1       4.373   1.231  19.338  0.00  0.00    +0.000 HD
ATOM     13  H   UNL     1       5.103   2.654  18.794  0.00  0.00    +0.000 HD
ENDROOT
BRANCH   1  17
ATOM     14  C   UNL     1       6.530   5.520  15.928  0.00  0.00    +0.000 A 
ATOM     15  C   UNL     1       5.329   6.201  15.772  0.00  0.00    +0.000 A 
ATOM     16  C   UNL     1       4.357   6.156  16.782  0.00  0.00    +0.000 A 
ATOM     17  C   UNL     1       4.541   5.416  17.962  0.00  0.00    +0.000 A 
ATOM     18  C   UNL     1       5.728   4.676  18.061  0.00  0.00    +0.000 A 
ATOM     19  C   UNL     1       6.722   4.750  17.075  0.00  0.00    +0.000 A 
BRANCH  14  20
ATOM     20  O   UNL     1       7.572   5.514  15.046  0.00  0.00    +0.000 OA
BRANCH  20  22
ATOM     21  C   UNL     1       6.099   4.075  13.844  0.00  0.00    +0.000 C 
ATOM     22  C   UNL     1       7.521   4.625  13.923  0.00  0.00    +0.000 C 
ATOM     23  C   UNL     1       7.869   5.385  12.647  0.00  0.00    +0.000 C 
ENDBRANCH  20  22
ENDBRANCH  14  20
ENDBRANCH   1  17
BRANCH   3  24
ATOM     24  C   UNL     1       1.490   8.165  20.481  0.00  0.00    +0.000 A 
ATOM     25  C   UNL     1       1.355   9.077  19.417  0.00  0.00    +0.000 A 
ATOM     26  C   UNL     1       0.880  10.379  19.616  0.00  0.00    +0.000 A 
ATOM     27  C   UNL     1       0.534  10.815  20.897  0.00  0.00    +0.000 A 
ATOM     28  C   UNL     1       0.640   9.927  21.972  0.00  0.00    +0.000 A 
ATOM     29  C   UNL     1       1.122   8.623  21.762  0.00  0.00    +0.000 A 
BRANCH  27  30
ATOM     30  C   UNL     1       0.031  12.208  21.039  0.00  0.00    +0.000 C 
ATOM     31  O   UNL     1       0.046  12.805  22.103  0.00  0.00    +0.000 OA
BRANCH  30  32
ATOM     32  O   UNL     1      -0.483  12.731  19.909  0.00  0.00    +0.000 OA
ATOM     33  H   UNL     1      -1.454  12.763  19.870  0.00  0.00    +0.000 HD
ENDBRANCH  30  32
ENDBRANCH  27  30
ENDBRANCH   3  24
TORSDOF 6
ENDMDL
MODEL 8
REMARK VINA RESULT:      -8.0      0.981      1.584
REMARK  Name = 
REMARK  8 active torsions:
REMARK  status: ('A' for Active; 'I' for Inactive)
REMARK    1  A    between atoms: C_1  and  C_2
REMARK    2  A    between atoms: C_2  and  C_3
REMARK    3  A    between atoms: C_2  and  O_4
REMARK    4  A    between atoms: O_4  and  C_5
REMARK    5  A    between atoms: C_8  and  C_9
REMARK    6  A    between atoms: C_11  and  C_12
REMARK    7  A    between atoms: C_15  and  C_16
REMARK    8  A    between atoms: C_16  and  O_18
REMARK                            x       y       z     vdW  Elec       q    Type
REMARK                         _______ _______ _______ _____ _____    ______ ____
ROOT
ATOM      1  C   UNL     1       3.529   5.291  18.357  0.00  0.00    +0.000 A 
ATOM      2  N   UNL     1       2.989   6.557  18.452  0.00  0.00    +0.000 NA
ATOM      3  C   UNL     1       2.224   6.929  19.509  0.00  0.00    +0.000 A 
ATOM      4  C   UNL     1       1.970   6.065  20.571  0.00  0.00    +0.000 A 
ATOM      5  C   UNL     1       2.528   4.792  20.481  0.00  0.00    +0.000 A 
ATOM      6  N   UNL     1       2.453   3.723  21.328  0.00  0.00    +0.000 N 
ATOM      7  N   UNL     1       3.154   2.659  20.930  0.00  0.00    +0.000 NA
ATOM      8  C   UNL     1       3.701   3.049  19.782  0.00  0.00    +0.000 A 
ATOM      9  N   UNL     1       4.530   2.231  19.115  0.00  0.00    +0.000 N 
ATOM     10  C   UNL     1       3.318   4.376  19.410  0.00  0.00    +0.000 A 
ATOM     11  H   UNL     1       1.941   3.658  22.201  0.00  0.00    +0.000 HD
ATOM     12  H   UNL     1       4.806   1.390  19.612  0.00  0.00    +0.000 HD
ATOM     13  H   UNL     1       5.277   2.614  18.548  0.00  0.00    +0.000 HD
ENDROOT
BRANCH   1  17
ATOM     14  C   UNL     1       5.911   4.565  14.831  0.00  0.00    +0.000 A 
ATOM     15  C   UNL     1       5.612   5.859  15.239  0.00  0.00    +0.000 A 
ATOM     16  C   UNL     1       4.836   6.074  16.387  0.00  0.00    +0.000 A 
ATOM     17  C   UNL     1       4.317   5.012  17.148  0.00  0.00    +0.000 A 
ATOM     18  C   UNL     1       4.568   3.717  16.671  0.00  0.00    +0.000 A 
ATOM     19  C   UNL     1       5.379   3.495  15.549  0.00  0.00    +0.000 A 
BRANCH  14  20
ATOM     20  O   UNL     1       6.686   4.217  13.763  0.00  0.00    +0.000 OA
BRANCH  20  22
ATOM     21  C   UNL     1       4.883   3.823  12.254  0.00  0.00    +0.000 C 
ATOM     22  C   UNL     1       6.180   3.258  12.826  0.00  0.00    +0.000 C 
ATOM     23  C   UNL     1       7.201   3.036  11.714  0.00  0.00    +0.000 C 
ENDBRANCH  20  22
ENDBRANCH  14  20
ENDBRANCH   1  17
BRANCH   3  24
ATOM     24  C   UNL     1       1.657   8.301  19.455  0.00  0.00    +0.000 A 
ATOM     25  C   UNL     1       1.018   8.879  20.569  0.00  0.00    +0.000 A 
ATOM     26  C   UNL     1       0.477  10.169  20.523  0.00  0.00    +0.000 A 
ATOM     27  C   UNL     1       0.549  10.923  19.349  0.00  0.00    +0.000 A 
ATOM     28  C   UNL     1       1.194  10.384  18.231  0.00  0.00    +0.000 A 
ATOM     29  C   UNL     1       1.730   9.085  18.287  0.00  0.00    +0.000 A 
BRANCH  27  30
ATOM     30  C   UNL     1      -0.041  12.288  19.369  0.00  0.00    +0.000 C 
ATOM     31  O   UNL     1      -0.443  12.814  20.394  0.00  0.00    +0.000 OA
BRANCH  30  32
ATOM     32  O   UNL     1      -0.137  12.869  18.157  0.00  0.00    +0.000 OA
ATOM     33  H   UNL     1      -0.485  12.299  17.449  0.00  0.00    +0.000 HD
ENDBRANCH  30  32
ENDBRANCH  27  30
ENDBRANCH   3  24
TORSDOF 6
ENDMDL
MODEL 9
REMARK VINA RESULT:      -8.0      0.965      1.447
REMARK  Name = 
REMARK  8 active torsions:
REMARK  status: ('A' for Active; 'I' for Inactive)
REMARK    1  A    between atoms: C_1  and  C_2
REMARK    2  A    between atoms: C_2  and  C_3
REMARK    3  A    between atoms: C_2  and  O_4
REMARK    4  A    between atoms: O_4  and  C_5
REMARK    5  A    between atoms: C_8  and  C_9
REMARK    6  A    between atoms: C_11  and  C_12
REMARK    7  A    between atoms: C_15  and  C_16
REMARK    8  A    between atoms: C_16  and  O_18
REMARK                            x       y       z     vdW  Elec       q    Type
REMARK                         _______ _______ _______ _____ _____    ______ ____
ROOT
ATOM      1  C   UNL     1       3.731   5.410  19.024  0.00  0.00    +0.000 A 
ATOM      2  N   UNL     1       3.104   6.621  19.234  0.00  0.00    +0.000 NA
ATOM      3  C   UNL     1       2.144   6.773  20.181  0.00  0.00    +0.000 A 
ATOM      4  C   UNL     1       1.762   5.724  21.013  0.00  0.00    +0.000 A 
ATOM      5  C   UNL     1       2.407   4.506  20.809  0.00  0.00    +0.000 A 
ATOM      6  N   UNL     1       2.251   3.299  21.432  0.00  0.00    +0.000 N 
ATOM      7  N   UNL     1       3.077   2.347  20.993  0.00  0.00    +0.000 NA
ATOM      8  C   UNL     1       3.791   2.954  20.049  0.00  0.00    +0.000 A 
ATOM      9  N   UNL     1       4.774   2.296  19.415  0.00  0.00    +0.000 N 
ATOM     10  C   UNL     1       3.397   4.314  19.846  0.00  0.00    +0.000 A 
ATOM     11  H   UNL     1       1.599   3.062  22.171  0.00  0.00    +0.000 HD
ATOM     12  H   UNL     1       5.011   1.388  19.803  0.00  0.00    +0.000 HD
ATOM     13  H   UNL     1       5.584   2.798  19.069  0.00  0.00    +0.000 HD
ENDROOT
BRANCH   1  17
ATOM     14  C   UNL     1       6.641   5.422  15.835  0.00  0.00    +0.000 A 
ATOM     15  C   UNL     1       5.363   5.933  15.641  0.00  0.00    +0.000 A 
ATOM     16  C   UNL     1       4.432   5.919  16.689  0.00  0.00    +0.000 A 
ATOM     17  C   UNL     1       4.735   5.379  17.950  0.00  0.00    +0.000 A 
ATOM     18  C   UNL     1       6.004   4.801  18.097  0.00  0.00    +0.000 A 
ATOM     19  C   UNL     1       6.954   4.849  17.067  0.00  0.00    +0.000 A 
BRANCH  14  20
ATOM     20  O   UNL     1       7.651   5.412  14.917  0.00  0.00    +0.000 OA
BRANCH  20  22
ATOM     21  C   UNL     1       6.134   3.955  13.795  0.00  0.00    +0.000 C 
ATOM     22  C   UNL     1       7.540   4.549  13.778  0.00  0.00    +0.000 C 
ATOM     23  C   UNL     1       7.764   5.352  12.500  0.00  0.00    +0.000 C 
ENDBRANCH  20  22
ENDBRANCH  14  20
ENDBRANCH   1  17
BRANCH   3  24
ATOM     24  C   UNL     1       1.510   8.114  20.260  0.00  0.00    +0.000 A 
ATOM     25  C   UNL     1       0.988   8.612  21.470  0.00  0.00    +0.000 A 
ATOM     26  C   UNL     1       0.385   9.873  21.549  0.00  0.00    +0.000 A 
ATOM     27  C   UNL     1       0.274  10.675  20.412  0.00  0.00    +0.000 A 
ATOM     28  C   UNL     1       0.799  10.216  19.199  0.00  0.00    +0.000 A 
ATOM     29  C   UNL     1       1.399   8.947  19.129  0.00  0.00    +0.000 A 
BRANCH  27  30
ATOM     30  C   UNL     1      -0.373  12.005  20.567  0.00  0.00    +0.000 C 
ATOM     31  O   UNL     1       0.072  12.870  21.304  0.00  0.00    +0.000 OA
BRANCH  30  32
ATOM     32  O   UNL     1      -1.513  12.153  19.865  0.00  0.00    +0.000 OA
ATOM     33  H   UNL     1      -1.671  11.479  19.181  0.00  0.00    +0.000 HD
ENDBRANCH  30  32
ENDBRANCH  27  30
ENDBRANCH   3  24
TORSDOF 6
ENDMDL
