MODEL 1
REMARK VINA RESULT:      -7.4      0.000      0.000
REMARK  Name = 
REMARK  8 active torsions:
REMARK  status: ('A' for Active; 'I' for Inactive)
REMARK    1  A    between atoms: C_1  and  N_2
REMARK    2  A    between atoms: N_2  and  C_3
REMARK    3  A    between atoms: C_3  and  C_4
REMARK    4  A    between atoms: C_4  and  O_5
REMARK    5  A    between atoms: C_4  and  C_6
REMARK    6  A    between atoms: C_6  and  C_7
REMARK    7  A    between atoms: C_6  and  N_14
REMARK    8  A    between atoms: C_21  and  C_22
REMARK                            x       y       z     vdW  Elec       q    Type
REMARK                         _______ _______ _______ _____ _____    ______ ____
ROOT
ATOM      1  C   UNL     1       4.810   5.624  16.818  0.00  0.00    +0.000 C 
ENDROOT
BRANCH   1   2
ATOM      2  N   UNL     1       4.029   4.544  17.468  0.00  0.00    +0.000 N 
ATOM      3  C   UNL     1       4.322   3.127  17.183  0.00  0.00    +0.000 C 
ATOM      4  C   UNL     1       3.540   2.263  18.175  0.00  0.00    +0.000 C 
ATOM      5  C   UNL     1       2.810   3.292  18.963  0.00  0.00    +0.000 A 
ATOM      6  C   UNL     1       1.933   3.032  20.014  0.00  0.00    +0.000 A 
ATOM      7  C   UNL     1       1.342   4.107  20.648  0.00  0.00    +0.000 A 
ATOM      8  C   UNL     1       1.635   5.409  20.233  0.00  0.00    +0.000 A 
ATOM      9  C   UNL     1       2.531   5.671  19.165  0.00  0.00    +0.000 A 
ATOM     10  C   UNL     1       2.754   7.104  18.794  0.00  0.00    +0.000 C 
ATOM     11  C   UNL     1       3.133   4.588  18.521  0.00  0.00    +0.000 A 
ENDBRANCH   1   2
BRANCH   1  12
ATOM     12  C   UNL     1       6.039   6.030  17.653  0.00  0.00    +0.000 A 
ATOM     13  C   UNL     1       6.523   5.264  18.732  0.00  0.00    +0.000 A 
ATOM     14  C   UNL     1       7.662   5.642  19.457  0.00  0.00    +0.000 A 
ATOM     15  C   UNL     1       8.361   6.791  19.111  0.00  0.00    +0.000 A 
ATOM     16  C   UNL     1       7.868   7.588  18.092  0.00  0.00    +0.000 A 
ATOM     17  F   UNL     1       8.520   8.708  17.752  0.00  0.00    +0.000 F 
ATOM     18  C   UNL     1       6.704   7.245  17.408  0.00  0.00    +0.000 A 
ENDBRANCH   1  12
BRANCH   1  19
ATOM     19  C   UNL     1       5.095   5.230  15.301  0.00  0.00    +0.000 C 
BRANCH  19  20
ATOM     20  O   UNL     1       5.183   6.433  14.496  0.00  0.00    +0.000 OA
ATOM     21  H   UNL     1       5.999   6.377  13.969  0.00  0.00    +0.000 HD
ENDBRANCH  19  20
BRANCH  19  22
ATOM     22  C   UNL     1       6.385   4.403  15.067  0.00  0.00    +0.000 C 
BRANCH  22  24
ATOM     23  C   UNL     1       6.523   3.787  12.740  0.00  0.00    +0.000 C 
ATOM     24  N   UNL     1       6.235   3.314  14.089  0.00  0.00    +0.000 NA
ATOM     25  H   UNL     1       6.867   2.551  14.330  0.00  0.00    +0.000 HD
ENDBRANCH  22  24
ENDBRANCH  19  22
ENDBRANCH   1  19
TORSDOF 6
ENDMDL
MODEL 2
REMARK VINA RESULT:      -7.2      1.660      2.583
REMARK  Name = 
REMARK  8 active torsions:
REMARK  status: ('A' for Active; 'I' for Inactive)
REMARK    1  A    between atoms: C_1  and  N_2
REMARK    2  A    between atoms: N_2  and  C_3
REMARK    3  A    between atoms: C_3  and  C_4
REMARK    4  A    between atoms: C_4  and  O_5
REMARK    5  A    between atoms: C_4  and  C_6
REMARK    6  A    between atoms: C_6  and  C_7
REMARK    7  A    between atoms: C_6  and  N_14
REMARK    8  A    between atoms: C_21  and  C_22
REMARK                            x       y       z     vdW  Elec       q    Type
REMARK                         _______ _______ _______ _____ _____    ______ ____
ROOT
ATOM      1  C   UNL     1       4.044   5.434  17.720  0.00  0.00    +0.000 C 
ENDROOT
BRANCH   1   2
ATOM      2  N   UNL     1       3.100   5.539  18.858  0.00  0.00    +0.000 N 
ATOM      3  C   UNL     1       2.949   4.429  19.817  0.00  0.00    +0.000 C 
ATOM      4  C   UNL     1       2.112   4.922  20.999  0.00  0.00    +0.000 C 
ATOM      5  C   UNL     1       1.814   6.323  20.597  0.00  0.00    +0.000 A 
ATOM      6  C   UNL     1       1.062   7.232  21.336  0.00  0.00    +0.000 A 
ATOM      7  C   UNL     1       0.887   8.502  20.820  0.00  0.00    +0.000 A 
ATOM      8  C   UNL     1       1.462   8.841  19.593  0.00  0.00    +0.000 A 
ATOM      9  C   UNL     1       2.231   7.914  18.844  0.00  0.00    +0.000 A 
ATOM     10  C   UNL     1       2.782   8.382  17.533  0.00  0.00    +0.000 C 
ATOM     11  C   UNL     1       2.413   6.629  19.361  0.00  0.00    +0.000 A 
ENDBRANCH   1   2
BRANCH   1  12
ATOM     12  C   UNL     1       5.470   5.865  18.111  0.00  0.00    +0.000 A 
ATOM     13  C   UNL     1       6.191   5.270  19.165  0.00  0.00    +0.000 A 
ATOM     14  C   UNL     1       7.500   5.663  19.481  0.00  0.00    +0.000 A 
ATOM     15  C   UNL     1       8.131   6.652  18.738  0.00  0.00    +0.000 A 
ATOM     16  C   UNL     1       7.419   7.289  17.737  0.00  0.00    +0.000 A 
ATOM     17  F   UNL     1       8.005   8.256  17.019  0.00  0.00    +0.000 F 
ATOM     18  C   UNL     1       6.099   6.941  17.459  0.00  0.00    +0.000 A 
ENDBRANCH   1  12
BRANCH   1  19
ATOM     19  C   UNL     1       3.908   3.993  17.053  0.00  0.00    +0.000 C 
BRANCH  19  20
ATOM     20  O   UNL     1       2.507   3.695  16.826  0.00  0.00    +0.000 OA
ATOM     21  H   UNL     1       2.088   3.564  17.695  0.00  0.00    +0.000 HD
ENDBRANCH  19  20
BRANCH  19  22
ATOM     22  C   UNL     1       4.658   3.816  15.708  0.00  0.00    +0.000 C 
BRANCH  22  24
ATOM     23  C   UNL     1       6.915   4.387  15.083  0.00  0.00    +0.000 C 
ATOM     24  N   UNL     1       6.082   3.472  15.853  0.00  0.00    +0.000 NA
ATOM     25  H   UNL     1       6.342   3.512  16.838  0.00  0.00    +0.000 HD
ENDBRANCH  22  24
ENDBRANCH  19  22
ENDBRANCH   1  19
TORSDOF 6
ENDMDL
MODEL 3
REMARK VINA RESULT:      -7.2      1.817      2.824
REMARK  Name = 
REMARK  8 active torsions:
REMARK  status: ('A' for Active; 'I' for Inactive)
REMARK    1  A    between atoms: C_1  and  N_2
REMARK    2  A    between atoms: N_2  and  C_3
REMARK    3  A    between atoms: C_3  and  C_4
REMARK    4  A    between atoms: C_4  and  O_5
REMARK    5  A    between atoms: C_4  and  C_6
REMARK    6  A    between atoms: C_6  and  C_7
REMARK    7  A    between atoms: C_6  and  N_14
REMARK    8  A    between atoms: C_21  and  C_22
REMARK                            x       y       z     vdW  Elec       q    Type
REMARK                         _______ _______ _______ _____ _____    ______ ____
ROOT
ATOM      1  C   UNL     1       4.129   5.272  17.658  0.00  0.00    +0.000 C 
ENDROOT
BRANCH   1   2
ATOM      2  N   UNL     1       3.200   5.421  18.804  0.00  0.00    +0.000 N 
ATOM      3  C   UNL     1       3.058   4.345  19.802  0.00  0.00    +0.000 C 
ATOM      4  C   UNL     1       2.237   4.882  20.977  0.00  0.00    +0.000 C 
ATOM      5  C   UNL     1       1.938   6.269  20.530  0.00  0.00    +0.000 A 
ATOM      6  C   UNL     1       1.198   7.205  21.246  0.00  0.00    +0.000 A 
ATOM      7  C   UNL     1       1.020   8.457  20.688  0.00  0.00    +0.000 A 
ATOM      8  C   UNL     1       1.581   8.751  19.443  0.00  0.00    +0.000 A 
ATOM      9  C   UNL     1       2.337   7.796  18.717  0.00  0.00    +0.000 A 
ATOM     10  C   UNL     1       2.873   8.216  17.384  0.00  0.00    +0.000 C 
ATOM     11  C   UNL     1       2.522   6.530  19.276  0.00  0.00    +0.000 A 
ENDBRANCH   1   2
BRANCH   1  12
ATOM     12  C   UNL     1       5.529   5.832  17.974  0.00  0.00    +0.000 A 
ATOM     13  C   UNL     1       6.134   6.859  17.223  0.00  0.00    +0.000 A 
ATOM     14  C   UNL     1       7.398   7.370  17.551  0.00  0.00    +0.000 A 
ATOM     15  C   UNL     1       8.087   6.877  18.653  0.00  0.00    +0.000 A 
ATOM     16  C   UNL     1       7.535   5.828  19.367  0.00  0.00    +0.000 A 
ATOM     17  F   UNL     1       8.190   5.328  20.424  0.00  0.00    +0.000 F 
ATOM     18  C   UNL     1       6.305   5.280  19.009  0.00  0.00    +0.000 A 
ENDBRANCH   1  12
BRANCH   1  19
ATOM     19  C   UNL     1       4.080   3.770  17.130  0.00  0.00    +0.000 C 
BRANCH  19  20
ATOM     20  O   UNL     1       2.758   3.483  16.607  0.00  0.00    +0.000 OA
ATOM     21  H   UNL     1       2.498   2.602  16.928  0.00  0.00    +0.000 HD
ENDBRANCH  19  20
BRANCH  19  22
ATOM     22  C   UNL     1       5.115   3.425  16.028  0.00  0.00    +0.000 C 
BRANCH  22  24
ATOM     23  C   UNL     1       6.480   4.448  14.324  0.00  0.00    +0.000 C 
ATOM     24  N   UNL     1       5.146   4.381  14.910  0.00  0.00    +0.000 NA
ATOM     25  H   UNL     1       4.471   4.096  14.201  0.00  0.00    +0.000 HD
ENDBRANCH  22  24
ENDBRANCH  19  22
ENDBRANCH   1  19
TORSDOF 6
ENDMDL
MODEL 4
REMARK VINA RESULT:      -7.2      2.458      4.178
REMARK  Name = 
REMARK  8 active torsions:
REMARK  status: ('A' for Active; 'I' for Inactive)
REMARK    1  A    between atoms: C_1  and  N_2
REMARK    2  A    between atoms: N_2  and  C_3
REMARK    3  A    between atoms: C_3  and  C_4
REMARK    4  A    between atoms: C_4  and  O_5
REMARK    5  A    between atoms: C_4  and  C_6
REMARK    6  A    between atoms: C_6  and  C_7
REMARK    7  A    between atoms: C_6  and  N_14
REMARK    8  A    between atoms: C_21  and  C_22
REMARK                            x       y       z     vdW  Elec       q    Type
REMARK                         _______ _______ _______ _____ _____    ______ ____
ROOT
ATOM      1  C   UNL     1       5.719   4.888  18.756  0.00  0.00    +0.000 C 
ENDROOT
BRANCH   1   2
ATOM      2  N   UNL     1       4.390   5.191  19.338  0.00  0.00    +0.000 N 
ATOM      3  C   UNL     1       3.836   6.557  19.282  0.00  0.00    +0.000 C 
ATOM      4  C   UNL     1       2.373   6.504  19.726  0.00  0.00    +0.000 C 
ATOM      5  C   UNL     1       2.204   5.059  20.041  0.00  0.00    +0.000 A 
ATOM      6  C   UNL     1       1.031   4.467  20.503  0.00  0.00    +0.000 A 
ATOM      7  C   UNL     1       1.042   3.106  20.740  0.00  0.00    +0.000 A 
ATOM      8  C   UNL     1       2.205   2.367  20.510  0.00  0.00    +0.000 A 
ATOM      9  C   UNL     1       3.396   2.972  20.036  0.00  0.00    +0.000 A 
ATOM     10  C   UNL     1       4.587   2.085  19.845  0.00  0.00    +0.000 C 
ATOM     11  C   UNL     1       3.392   4.348  19.793  0.00  0.00    +0.000 A 
ENDBRANCH   1   2
BRANCH   1  12
ATOM     12  C   UNL     1       5.685   4.874  17.216  0.00  0.00    +0.000 A 
ATOM     13  C   UNL     1       6.034   3.744  16.450  0.00  0.00    +0.000 A 
ATOM     14  C   UNL     1       5.966   3.750  15.049  0.00  0.00    +0.000 A 
ATOM     15  C   UNL     1       5.530   4.884  14.375  0.00  0.00    +0.000 A 
ATOM     16  C   UNL     1       5.240   6.022  15.107  0.00  0.00    +0.000 A 
ATOM     17  F   UNL     1       4.832   7.131  14.475  0.00  0.00    +0.000 F 
ATOM     18  C   UNL     1       5.362   6.037  16.495  0.00  0.00    +0.000 A 
ENDBRANCH   1  12
BRANCH   1  19
ATOM     19  C   UNL     1       6.815   5.834  19.422  0.00  0.00    +0.000 C 
BRANCH  19  20
ATOM     20  O   UNL     1       7.428   5.150  20.544  0.00  0.00    +0.000 OA
ATOM     21  H   UNL     1       6.847   5.267  21.316  0.00  0.00    +0.000 HD
ENDBRANCH  19  20
BRANCH  19  22
ATOM     22  C   UNL     1       7.947   6.302  18.471  0.00  0.00    +0.000 C 
BRANCH  22  24
ATOM     23  C   UNL     1       7.911   8.604  17.756  0.00  0.00    +0.000 C 
ATOM     24  N   UNL     1       8.435   7.664  18.740  0.00  0.00    +0.000 NA
ATOM     25  H   UNL     1       8.150   7.948  19.676  0.00  0.00    +0.000 HD
ENDBRANCH  22  24
ENDBRANCH  19  22
ENDBRANCH   1  19
TORSDOF 6
ENDMDL
MODEL 5
REMARK VINA RESULT:      -7.1      2.395      4.218
REMARK  Name = 
REMARK  8 active torsions:
REMARK  status: ('A' for Active; 'I' for Inactive)
REMARK    1  A    between atoms: C_1  and  N_2
REMARK    2  A    between atoms: N_2  and  C_3
REMARK    3  A    between atoms: C_3  and  C_4
REMARK    4  A    between atoms: C_4  and  O_5
REMARK    5  A    between atoms: C_4  and  C_6
REMARK    6  A    between atoms: C_6  and  C_7
REMARK    7  A    between atoms: C_6  and  N_14
REMARK    8  A    between atoms: C_21  and  C_22
REMARK                            x       y       z     vdW  Elec       q    Type
REMARK                         _______ _______ _______ _____ _____    ______ ____
ROOT
ATOM      1  C   UNL     1       5.795   4.808  18.768  0.00  0.00    +0.000 C 
ENDROOT
BRANCH   1   2
ATOM      2  N   UNL     1       4.446   5.156  19.274  0.00  0.00    +0.000 N 
ATOM      3  C   UNL     1       3.887   6.505  19.064  0.00  0.00    +0.000 C 
ATOM      4  C   UNL     1       2.411   6.484  19.465  0.00  0.00    +0.000 C 
ATOM      5  C   UNL     1       2.240   5.077  19.918  0.00  0.00    +0.000 A 
ATOM      6  C   UNL     1       1.056   4.524  20.401  0.00  0.00    +0.000 A 
ATOM      7  C   UNL     1       1.067   3.193  20.773  0.00  0.00    +0.000 A 
ATOM      8  C   UNL     1       2.241   2.445  20.655  0.00  0.00    +0.000 A 
ATOM      9  C   UNL     1       3.443   3.011  20.160  0.00  0.00    +0.000 A 
ATOM     10  C   UNL     1       4.644   2.119  20.096  0.00  0.00    +0.000 C 
ATOM     11  C   UNL     1       3.439   4.355  19.780  0.00  0.00    +0.000 A 
ENDBRANCH   1   2
BRANCH   1  12
ATOM     12  C   UNL     1       5.800   4.587  17.243  0.00  0.00    +0.000 A 
ATOM     13  C   UNL     1       4.714   4.022  16.545  0.00  0.00    +0.000 A 
ATOM     14  C   UNL     1       4.733   3.859  15.152  0.00  0.00    +0.000 A 
ATOM     15  C   UNL     1       5.835   4.273  14.416  0.00  0.00    +0.000 A 
ATOM     16  C   UNL     1       6.935   4.776  15.089  0.00  0.00    +0.000 A 
ATOM     17  F   UNL     1       8.014   5.167  14.398  0.00  0.00    +0.000 F 
ATOM     18  C   UNL     1       6.941   4.886  16.478  0.00  0.00    +0.000 A 
ENDBRANCH   1  12
BRANCH   1  19
ATOM     19  C   UNL     1       6.856   5.860  19.324  0.00  0.00    +0.000 C 
BRANCH  19  20
ATOM     20  O   UNL     1       7.764   5.194  20.237  0.00  0.00    +0.000 OA
ATOM     21  H   UNL     1       7.931   4.300  19.890  0.00  0.00    +0.000 HD
ENDBRANCH  19  20
BRANCH  19  22
ATOM     22  C   UNL     1       7.705   6.574  18.241  0.00  0.00    +0.000 C 
BRANCH  22  24
ATOM     23  C   UNL     1       8.161   8.928  17.991  0.00  0.00    +0.000 C 
ATOM     24  N   UNL     1       8.480   7.720  18.742  0.00  0.00    +0.000 NA
ATOM     25  H   UNL     1       8.274   7.863  19.730  0.00  0.00    +0.000 HD
ENDBRANCH  22  24
ENDBRANCH  19  22
ENDBRANCH   1  19
TORSDOF 6
ENDMDL
MODEL 6
REMARK VINA RESULT:      -7.0      1.339      1.694
REMARK  Name = 
REMARK  8 active torsions:
REMARK  status: ('A' for Active; 'I' for Inactive)
REMARK    1  A    between atoms: C_1  and  N_2
REMARK    2  A    between atoms: N_2  and  C_3
REMARK    3  A    between atoms: C_3  and  C_4
REMARK    4  A    between atoms: C_4  and  O_5
REMARK    5  A    between atoms: C_4  and  C_6
REMARK    6  A    between atoms: C_6  and  C_7
REMARK    7  A    between atoms: C_6  and  N_14
REMARK    8  A    between atoms: C_21  and  C_22
REMARK                            x       y       z     vdW  Elec       q    Type
REMARK                         _______ _______ _______ _____ _____    ______ ____
ROOT
ATOM      1  C   UNL     1       5.141   5.158  16.541  0.00  0.00    +0.000 C 
ENDROOT
BRANCH   1   2
ATOM      2  N   UNL     1       4.250   4.424  17.471  0.00  0.00    +0.000 N 
ATOM      3  C   UNL     1       4.363   2.961  17.626  0.00  0.00    +0.000 C 
ATOM      4  C   UNL     1       3.503   2.534  18.818  0.00  0.00    +0.000 C 
ATOM      5  C   UNL     1       2.920   3.832  19.252  0.00  0.00    +0.000 A 
ATOM      6  C   UNL     1       2.041   4.005  20.318  0.00  0.00    +0.000 A 
ATOM      7  C   UNL     1       1.598   5.285  20.593  0.00  0.00    +0.000 A 
ATOM      8  C   UNL     1       2.038   6.358  19.814  0.00  0.00    +0.000 A 
ATOM      9  C   UNL     1       2.935   6.179  18.731  0.00  0.00    +0.000 A 
ATOM     10  C   UNL     1       3.322   7.398  17.953  0.00  0.00    +0.000 C 
ATOM     11  C   UNL     1       3.388   4.888  18.448  0.00  0.00    +0.000 A 
ENDBRANCH   1   2
BRANCH   1  12
ATOM     12  C   UNL     1       6.267   5.899  17.286  0.00  0.00    +0.000 A 
ATOM     13  C   UNL     1       6.692   7.198  16.941  0.00  0.00    +0.000 A 
ATOM     14  C   UNL     1       7.701   7.861  17.655  0.00  0.00    +0.000 A 
ATOM     15  C   UNL     1       8.302   7.248  18.747  0.00  0.00    +0.000 A 
ATOM     16  C   UNL     1       7.940   5.951  19.065  0.00  0.00    +0.000 A 
ATOM     17  F   UNL     1       8.518   5.337  20.106  0.00  0.00    +0.000 F 
ATOM     18  C   UNL     1       6.979   5.269  18.322  0.00  0.00    +0.000 A 
ENDBRANCH   1  12
BRANCH   1  19
ATOM     19  C   UNL     1       5.603   4.180  15.371  0.00  0.00    +0.000 C 
BRANCH  19  20
ATOM     20  O   UNL     1       4.671   4.275  14.264  0.00  0.00    +0.000 OA
ATOM     21  H   UNL     1       4.455   3.370  13.980  0.00  0.00    +0.000 HD
ENDBRANCH  19  20
BRANCH  19  22
ATOM     22  C   UNL     1       7.028   4.441  14.819  0.00  0.00    +0.000 C 
BRANCH  22  24
ATOM     23  C   UNL     1       8.218   5.312  12.911  0.00  0.00    +0.000 C 
ATOM     24  N   UNL     1       7.102   5.523  13.825  0.00  0.00    +0.000 NA
ATOM     25  H   UNL     1       6.228   5.562  13.301  0.00  0.00    +0.000 HD
ENDBRANCH  22  24
ENDBRANCH  19  22
ENDBRANCH   1  19
TORSDOF 6
ENDMDL
MODEL 7
REMARK VINA RESULT:      -7.0      2.638      4.382
REMARK  Name = 
REMARK  8 active torsions:
REMARK  status: ('A' for Active; 'I' for Inactive)
REMARK    1  A    between atoms: C_1  and  N_2
REMARK    2  A    between atoms: N_2  and  C_3
REMARK    3  A    between atoms: C_3  and  C_4
REMARK    4  A    between atoms: C_4  and  O_5
REMARK    5  A    between atoms: C_4  and  C_6
REMARK    6  A    between atoms: C_6  and  C_7
REMARK    7  A    between atoms: C_6  and  N_14
REMARK    8  A    between atoms: C_21  and  C_22
REMARK                            x       y       z     vdW  Elec       q    Type
REMARK                         _______ _______ _______ _____ _____    ______ ____
ROOT
ATOM      1  C   UNL     1       5.648   5.007  18.640  0.00  0.00    +0.000 C 
ENDROOT
BRANCH   1   2
ATOM      2  N   UNL     1       4.331   5.277  19.265  0.00  0.00    +0.000 N 
ATOM      3  C   UNL     1       3.745   6.630  19.232  0.00  0.00    +0.000 C 
ATOM      4  C   UNL     1       2.298   6.542  19.722  0.00  0.00    +0.000 C 
ATOM      5  C   UNL     1       2.172   5.093  20.037  0.00  0.00    +0.000 A 
ATOM      6  C   UNL     1       1.029   4.473  20.533  0.00  0.00    +0.000 A 
ATOM      7  C   UNL     1       1.078   3.111  20.764  0.00  0.00    +0.000 A 
ATOM      8  C   UNL     1       2.250   2.400  20.495  0.00  0.00    +0.000 A 
ATOM      9  C   UNL     1       3.411   3.034  19.985  0.00  0.00    +0.000 A 
ATOM     10  C   UNL     1       4.616   2.176  19.753  0.00  0.00    +0.000 C 
ATOM     11  C   UNL     1       3.368   4.410  19.748  0.00  0.00    +0.000 A 
ENDBRANCH   1   2
BRANCH   1  12
ATOM     12  C   UNL     1       5.588   5.101  17.104  0.00  0.00    +0.000 A 
ATOM     13  C   UNL     1       5.158   6.256  16.421  0.00  0.00    +0.000 A 
ATOM     14  C   UNL     1       5.140   6.325  15.020  0.00  0.00    +0.000 A 
ATOM     15  C   UNL     1       5.570   5.243  14.262  0.00  0.00    +0.000 A 
ATOM     16  C   UNL     1       5.940   4.079  14.914  0.00  0.00    +0.000 A 
ATOM     17  F   UNL     1       6.344   3.019  14.200  0.00  0.00    +0.000 F 
ATOM     18  C   UNL     1       5.904   3.989  16.303  0.00  0.00    +0.000 A 
ENDBRANCH   1  12
BRANCH   1  19
ATOM     19  C   UNL     1       6.762   5.897  19.351  0.00  0.00    +0.000 C 
BRANCH  19  20
ATOM     20  O   UNL     1       7.380   5.136  20.421  0.00  0.00    +0.000 OA
ATOM     21  H   UNL     1       7.058   4.220  20.355  0.00  0.00    +0.000 HD
ENDBRANCH  19  20
BRANCH  19  22
ATOM     22  C   UNL     1       7.889   6.411  18.419  0.00  0.00    +0.000 C 
BRANCH  22  24
ATOM     23  C   UNL     1       8.091   8.753  17.883  0.00  0.00    +0.000 C 
ATOM     24  N   UNL     1       8.464   7.703  18.823  0.00  0.00    +0.000 NA
ATOM     25  H   UNL     1       8.135   7.943  19.758  0.00  0.00    +0.000 HD
ENDBRANCH  22  24
ENDBRANCH  19  22
ENDBRANCH   1  19
TORSDOF 6
ENDMDL
MODEL 8
REMARK VINA RESULT:      -7.0      0.965      1.386
REMARK  Name = 
REMARK  8 active torsions:
REMARK  status: ('A' for Active; 'I' for Inactive)
REMARK    1  A    between atoms: C_1  and  N_2
REMARK    2  A    between atoms: N_2  and  C_3
REMARK    3  A    between atoms: C_3  and  C_4
REMARK    4  A    between atoms: C_4  and  O_5
REMARK    5  A    between atoms: C_4  and  C_6
REMARK    6  A    between atoms: C_6  and  C_7
REMARK    7  A    between atoms: C_6  and  N_14
REMARK    8  A    between atoms: C_21  and  C_22
REMARK                            x       y       z     vdW  Elec       q    Type
REMARK                         _______ _______ _______ _____ _____    ______ ____
ROOT
ATOM      1  C   UNL     1       4.906   5.759  16.833  0.00  0.00    +0.000 C 
ENDROOT
BRANCH   1   2
ATOM      2  N   UNL     1       4.178   4.690  17.558  0.00  0.00    +0.000 N 
ATOM      3  C   UNL     1       4.515   3.270  17.344  0.00  0.00    +0.000 C 
ATOM      4  C   UNL     1       3.785   2.437  18.399  0.00  0.00    +0.000 C 
ATOM      5  C   UNL     1       3.035   3.482  19.147  0.00  0.00    +0.000 A 
ATOM      6  C   UNL     1       2.190   3.250  20.229  0.00  0.00    +0.000 A 
ATOM      7  C   UNL     1       1.575   4.338  20.817  0.00  0.00    +0.000 A 
ATOM      8  C   UNL     1       1.813   5.624  20.325  0.00  0.00    +0.000 A 
ATOM      9  C   UNL     1       2.677   5.857  19.225  0.00  0.00    +0.000 A 
ATOM     10  C   UNL     1       2.841   7.275  18.771  0.00  0.00    +0.000 C 
ATOM     11  C   UNL     1       3.303   4.762  18.627  0.00  0.00    +0.000 A 
ENDBRANCH   1   2
BRANCH   1  12
ATOM     12  C   UNL     1       6.160   6.224  17.597  0.00  0.00    +0.000 A 
ATOM     13  C   UNL     1       6.869   7.397  17.270  0.00  0.00    +0.000 A 
ATOM     14  C   UNL     1       7.991   7.813  18.002  0.00  0.00    +0.000 A 
ATOM     15  C   UNL     1       8.426   7.073  19.094  0.00  0.00    +0.000 A 
ATOM     16  C   UNL     1       7.779   5.887  19.395  0.00  0.00    +0.000 A 
ATOM     17  F   UNL     1       8.192   5.152  20.436  0.00  0.00    +0.000 F 
ATOM     18  C   UNL     1       6.699   5.443  18.635  0.00  0.00    +0.000 A 
ENDBRANCH   1  12
BRANCH   1  19
ATOM     19  C   UNL     1       5.136   5.309  15.322  0.00  0.00    +0.000 C 
BRANCH  19  20
ATOM     20  O   UNL     1       5.163   6.480  14.467  0.00  0.00    +0.000 OA
ATOM     21  H   UNL     1       4.398   6.425  13.867  0.00  0.00    +0.000 HD
ENDBRANCH  19  20
BRANCH  19  22
ATOM     22  C   UNL     1       6.434   4.501  15.066  0.00  0.00    +0.000 C 
BRANCH  22  24
ATOM     23  C   UNL     1       6.536   3.822  12.755  0.00  0.00    +0.000 C 
ATOM     24  N   UNL     1       6.274   3.385  14.120  0.00  0.00    +0.000 NA
ATOM     25  H   UNL     1       6.914   2.632  14.372  0.00  0.00    +0.000 HD
ENDBRANCH  22  24
ENDBRANCH  19  22
ENDBRANCH   1  19
TORSDOF 6
ENDMDL
MODEL 9
REMARK VINA RESULT:      -6.9      2.391      3.497
REMARK  Name = 
REMARK  8 active torsions:
REMARK  status: ('A' for Active; 'I' for Inactive)
REMARK    1  A    between atoms: C_1  and  N_2
REMARK    2  A    between atoms: N_2  and  C_3
REMARK    3  A    between atoms: C_3  and  C_4
REMARK    4  A    between atoms: C_4  and  O_5
REMARK    5  A    between atoms: C_4  and  C_6
REMARK    6  A    between atoms: C_6  and  C_7
REMARK    7  A    between atoms: C_6  and  N_14
REMARK    8  A    between atoms: C_21  and  C_22
REMARK                            x       y       z     vdW  Elec       q    Type
REMARK                         _______ _______ _______ _____ _____    ______ ____
ROOT
ATOM      1  C   UNL     1       4.039   5.330  17.833  0.00  0.00    +0.000 C 
ENDROOT
BRANCH   1   2
ATOM      2  N   UNL     1       3.102   5.558  18.959  0.00  0.00    +0.000 N 
ATOM      3  C   UNL     1       2.954   4.556  20.031  0.00  0.00    +0.000 C 
ATOM      4  C   UNL     1       2.125   5.175  21.159  0.00  0.00    +0.000 C 
ATOM      5  C   UNL     1       1.828   6.526  20.611  0.00  0.00    +0.000 A 
ATOM      6  C   UNL     1       1.081   7.510  21.254  0.00  0.00    +0.000 A 
ATOM      7  C   UNL     1       0.906   8.718  20.607  0.00  0.00    +0.000 A 
ATOM      8  C   UNL     1       1.475   8.923  19.348  0.00  0.00    +0.000 A 
ATOM      9  C   UNL     1       2.237   7.921  18.697  0.00  0.00    +0.000 A 
ATOM     10  C   UNL     1       2.782   8.245  17.341  0.00  0.00    +0.000 C 
ATOM     11  C   UNL     1       2.420   6.697  19.347  0.00  0.00    +0.000 A 
ENDBRANCH   1   2
BRANCH   1  12
ATOM     12  C   UNL     1       5.475   5.766  18.181  0.00  0.00    +0.000 A 
ATOM     13  C   UNL     1       6.192   5.249  19.278  0.00  0.00    +0.000 A 
ATOM     14  C   UNL     1       7.509   5.642  19.555  0.00  0.00    +0.000 A 
ATOM     15  C   UNL     1       8.154   6.553  18.728  0.00  0.00    +0.000 A 
ATOM     16  C   UNL     1       7.448   7.117  17.680  0.00  0.00    +0.000 A 
ATOM     17  F   UNL     1       8.047   8.009  16.880  0.00  0.00    +0.000 F 
ATOM     18  C   UNL     1       6.120   6.771  17.438  0.00  0.00    +0.000 A 
ENDBRANCH   1  12
BRANCH   1  19
ATOM     19  C   UNL     1       3.872   3.838  17.301  0.00  0.00    +0.000 C 
BRANCH  19  20
ATOM     20  O   UNL     1       4.509   2.920  18.227  0.00  0.00    +0.000 OA
ATOM     21  H   UNL     1       4.049   2.994  19.081  0.00  0.00    +0.000 HD
ENDBRANCH  19  20
BRANCH  19  22
ATOM     22  C   UNL     1       2.408   3.371  17.098  0.00  0.00    +0.000 C 
BRANCH  22  24
ATOM     23  C   UNL     1       1.005   2.161  18.641  0.00  0.00    +0.000 C 
ATOM     24  N   UNL     1       2.105   2.058  17.690  0.00  0.00    +0.000 NA
ATOM     25  H   UNL     1       1.862   1.400  16.950  0.00  0.00    +0.000 HD
ENDBRANCH  22  24
ENDBRANCH  19  22
ENDBRANCH   1  19
TORSDOF 6
ENDMDL
