MODEL 1
REMARK VINA RESULT:      -8.6      0.000      0.000
REMARK  Name = 
REMARK  6 active torsions:
REMARK  status: ('A' for Active; 'I' for Inactive)
REMARK    1  A    between atoms: C_1  and  O_2
REMARK    2  A    between atoms: O_2  and  C_3
REMARK    3  A    between atoms: C_6  and  C_7
REMARK    4  A    between atoms: C_7  and  N_8
REMARK    5  A    between atoms: C_12  and  C_13
REMARK    6  A    between atoms: N_15  and  C_16
REMARK                            x       y       z     vdW  Elec       q    Type
REMARK                         _______ _______ _______ _____ _____    ______ ____
ROOT
ATOM      1  N   UNL     1       2.342   5.077  19.837  0.00  0.00    +0.000 NA
ATOM      2  C   UNL     1       2.195   4.819  21.261  0.00  0.00    +0.000 C 
ATOM      3  C   UNL     1       2.142   3.291  21.509  0.00  0.00    +0.000 C 
ATOM      4  C   UNL     1       3.352   2.564  20.907  0.00  0.00    +0.000 C 
ATOM      5  C   UNL     1       2.907   2.206  19.487  0.00  0.00    +0.000 C 
ATOM      6  C   UNL     1       1.490   2.804  19.399  0.00  0.00    +0.000 C 
ATOM      7  C   UNL     1       1.469   4.303  18.962  0.00  0.00    +0.000 C 
ATOM      8  O   UNL     1       1.026   2.741  20.772  0.00  0.00    +0.000 OA
ENDROOT
BRANCH   5   9
ATOM      9  C   UNL     1       3.682   2.586  18.243  0.00  0.00    +0.000 C 
ATOM     10  O   UNL     1       3.411   1.972  17.203  0.00  0.00    +0.000 OA
ATOM     11  N   UNL     1       4.670   3.541  18.321  0.00  0.00    +0.000 N 
ATOM     12  H   UNL     1       4.939   3.865  19.237  0.00  0.00    +0.000 HD
BRANCH  11  13
ATOM     13  C   UNL     1       5.429   4.043  17.226  0.00  0.00    +0.000 A 
ATOM     14  C   UNL     1       4.910   4.289  15.953  0.00  0.00    +0.000 A 
ATOM     15  C   UNL     1       5.737   4.747  14.925  0.00  0.00    +0.000 A 
ATOM     16  C   UNL     1       7.073   4.961  15.205  0.00  0.00    +0.000 A 
ATOM     17  N   UNL     1       7.619   4.771  16.424  0.00  0.00    +0.000 NA
ATOM     18  C   UNL     1       6.784   4.323  17.400  0.00  0.00    +0.000 A 
ENDBRANCH  11  13
ENDBRANCH   5   9
BRANCH   1  19
ATOM     19  C   UNL     1       3.065   6.228  19.346  0.00  0.00    +0.000 C 
BRANCH  19  23
ATOM     20  C   UNL     1       0.737   9.864  18.999  0.00  0.00    +0.000 A 
ATOM     21  C   UNL     1       0.881   9.233  20.235  0.00  0.00    +0.000 A 
ATOM     22  C   UNL     1       1.648   8.071  20.357  0.00  0.00    +0.000 A 
ATOM     23  C   UNL     1       2.270   7.508  19.232  0.00  0.00    +0.000 A 
ATOM     24  C   UNL     1       2.155   8.167  18.005  0.00  0.00    +0.000 A 
ATOM     25  C   UNL     1       1.394   9.336  17.889  0.00  0.00    +0.000 A 
BRANCH  20  27
ATOM     26  C   UNL     1      -0.729  11.276  20.227  0.00  0.00    +0.000 C 
ATOM     27  O   UNL     1      -0.081  10.961  18.999  0.00  0.00    +0.000 OA
ENDBRANCH  20  27
ENDBRANCH  19  23
ENDBRANCH   1  19
TORSDOF 5
ENDMDL
MODEL 2
REMARK VINA RESULT:      -8.5      0.819      1.293
REMARK  Name = 
REMARK  6 active torsions:
REMARK  status: ('A' for Active; 'I' for Inactive)
REMARK    1  A    between atoms: C_1  and  O_2
REMARK    2  A    between atoms: O_2  and  C_3
REMARK    3  A    between atoms: C_6  and  C_7
REMARK    4  A    between atoms: C_7  and  N_8
REMARK    5  A    between atoms: C_12  and  C_13
REMARK    6  A    between atoms: N_15  and  C_16
REMARK                            x       y       z     vdW  Elec       q    Type
REMARK                         _______ _______ _______ _____ _____    ______ ____
ROOT
ATOM      1  N   UNL     1       2.387   5.043  20.019  0.00  0.00    +0.000 NA
ATOM      2  C   UNL     1       2.480   4.550  21.385  0.00  0.00    +0.000 C 
ATOM      3  C   UNL     1       2.338   3.007  21.390  0.00  0.00    +0.000 C 
ATOM      4  C   UNL     1       3.347   2.329  20.455  0.00  0.00    +0.000 C 
ATOM      5  C   UNL     1       2.620   2.250  19.110  0.00  0.00    +0.000 C 
ATOM      6  C   UNL     1       1.270   2.934  19.398  0.00  0.00    +0.000 C 
ATOM      7  C   UNL     1       1.303   4.484  19.219  0.00  0.00    +0.000 C 
ATOM      8  O   UNL     1       1.062   2.658  20.807  0.00  0.00    +0.000 OA
ENDROOT
BRANCH   5   9
ATOM      9  C   UNL     1       3.186   2.796  17.816  0.00  0.00    +0.000 C 
ATOM     10  O   UNL     1       2.509   2.628  16.793  0.00  0.00    +0.000 OA
ATOM     11  N   UNL     1       4.422   3.402  17.814  0.00  0.00    +0.000 N 
ATOM     12  H   UNL     1       4.974   3.344  18.656  0.00  0.00    +0.000 HD
BRANCH  11  13
ATOM     13  C   UNL     1       5.044   4.016  16.691  0.00  0.00    +0.000 A 
ATOM     14  C   UNL     1       5.753   3.326  15.705  0.00  0.00    +0.000 A 
ATOM     15  C   UNL     1       6.363   4.015  14.655  0.00  0.00    +0.000 A 
ATOM     16  C   UNL     1       6.236   5.390  14.612  0.00  0.00    +0.000 A 
ATOM     17  N   UNL     1       5.536   6.103  15.519  0.00  0.00    +0.000 NA
ATOM     18  C   UNL     1       4.955   5.398  16.528  0.00  0.00    +0.000 A 
ENDBRANCH  11  13
ENDBRANCH   5   9
BRANCH   1  19
ATOM     19  C   UNL     1       3.107   6.219  19.588  0.00  0.00    +0.000 C 
BRANCH  19  23
ATOM     20  C   UNL     1       0.779   9.834  19.064  0.00  0.00    +0.000 A 
ATOM     21  C   UNL     1       1.437   9.254  17.978  0.00  0.00    +0.000 A 
ATOM     22  C   UNL     1       2.172   8.076  18.138  0.00  0.00    +0.000 A 
ATOM     23  C   UNL     1       2.278   7.468  19.397  0.00  0.00    +0.000 A 
ATOM     24  C   UNL     1       1.583   8.031  20.471  0.00  0.00    +0.000 A 
ATOM     25  C   UNL     1       0.840   9.205  20.307  0.00  0.00    +0.000 A 
BRANCH  20  27
ATOM     26  C   UNL     1      -0.535  11.640  19.876  0.00  0.00    +0.000 C 
ATOM     27  O   UNL     1       0.139  11.012  18.792  0.00  0.00    +0.000 OA
ENDBRANCH  20  27
ENDBRANCH  19  23
ENDBRANCH   1  19
TORSDOF 5
ENDMDL
MODEL 3
REMARK VINA RESULT:      -8.4      1.594      2.043
REMARK  Name = 
REMARK  6 active torsions:
REMARK  status: ('A' for Active; 'I' for Inactive)
REMARK    1  A    between atoms: C_1  and  O_2
REMARK    2  A    between atoms: O_2  and  C_3
REMARK    3  A    between atoms: C_6  and  C_7
REMARK    4  A    between atoms: C_7  and  N_8
REMARK    5  A    between atoms: C_12  and  C_13
REMARK    6  A    between atoms: N_15  and  C_16
REMARK                            x       y       z     vdW  Elec       q    Type
REMARK                         _______ _______ _______ _____ _____    ______ ____
ROOT
ATOM      1  N   UNL     1       2.163   4.855  19.469  0.00  0.00    +0.000 NA
ATOM      2  C   UNL     1       1.583   3.802  20.288  0.00  0.00    +0.000 C 
ATOM      3  C   UNL     1       1.753   2.437  19.576  0.00  0.00    +0.000 C 
ATOM      4  C   UNL     1       3.216   2.153  19.211  0.00  0.00    +0.000 C 
ATOM      5  C   UNL     1       3.376   2.745  17.808  0.00  0.00    +0.000 C 
ATOM      6  C   UNL     1       1.989   3.352  17.521  0.00  0.00    +0.000 C 
ATOM      7  C   UNL     1       1.824   4.811  18.051  0.00  0.00    +0.000 C 
ATOM      8  O   UNL     1       1.099   2.502  18.288  0.00  0.00    +0.000 OA
ENDROOT
BRANCH   5   9
ATOM      9  C   UNL     1       4.444   3.752  17.439  0.00  0.00    +0.000 C 
ATOM     10  O   UNL     1       4.736   3.845  16.239  0.00  0.00    +0.000 OA
ATOM     11  N   UNL     1       5.070   4.476  18.428  0.00  0.00    +0.000 N 
ATOM     12  H   UNL     1       4.891   4.215  19.385  0.00  0.00    +0.000 HD
BRANCH  11  13
ATOM     13  C   UNL     1       6.039   5.498  18.222  0.00  0.00    +0.000 A 
ATOM     14  C   UNL     1       7.240   5.600  18.926  0.00  0.00    +0.000 A 
ATOM     15  C   UNL     1       8.118   6.660  18.684  0.00  0.00    +0.000 A 
ATOM     16  C   UNL     1       7.771   7.592  17.725  0.00  0.00    +0.000 A 
ATOM     17  N   UNL     1       6.639   7.523  16.994  0.00  0.00    +0.000 NA
ATOM     18  C   UNL     1       5.808   6.478  17.257  0.00  0.00    +0.000 A 
ENDBRANCH  11  13
ENDBRANCH   5   9
BRANCH   1  19
ATOM     19  C   UNL     1       2.766   6.028  20.059  0.00  0.00    +0.000 C 
BRANCH  19  23
ATOM     20  C   UNL     1       0.997   9.799  18.870  0.00  0.00    +0.000 A 
ATOM     21  C   UNL     1       0.806   9.305  20.161  0.00  0.00    +0.000 A 
ATOM     22  C   UNL     1       1.391   8.099  20.556  0.00  0.00    +0.000 A 
ATOM     23  C   UNL     1       2.165   7.354  19.654  0.00  0.00    +0.000 A 
ATOM     24  C   UNL     1       2.386   7.875  18.375  0.00  0.00    +0.000 A 
ATOM     25  C   UNL     1       1.806   9.087  17.986  0.00  0.00    +0.000 A 
BRANCH  20  27
ATOM     26  C   UNL     1      -0.438  11.529  19.643  0.00  0.00    +0.000 C 
ATOM     27  O   UNL     1       0.328  10.959  18.588  0.00  0.00    +0.000 OA
ENDBRANCH  20  27
ENDBRANCH  19  23
ENDBRANCH   1  19
TORSDOF 5
ENDMDL
MODEL 4
REMARK VINA RESULT:      -8.4      1.689      2.354
REMARK  Name = 
REMARK  6 active torsions:
REMARK  status: ('A' for Active; 'I' for Inactive)
REMARK    1  A    between atoms: C_1  and  O_2
REMARK    2  A    between atoms: O_2  and  C_3
REMARK    3  A    between atoms: C_6  and  C_7
REMARK    4  A    between atoms: C_7  and  N_8
REMARK    5  A    between atoms: C_12  and  C_13
REMARK    6  A    between atoms: N_15  and  C_16
REMARK                            x       y       z     vdW  Elec       q    Type
REMARK                         _______ _______ _______ _____ _____    ______ ____
ROOT
ATOM      1  N   UNL     1       2.201   4.892  19.388  0.00  0.00    +0.000 NA
ATOM      2  C   UNL     1       1.585   3.843  20.187  0.00  0.00    +0.000 C 
ATOM      3  C   UNL     1       1.751   2.480  19.471  0.00  0.00    +0.000 C 
ATOM      4  C   UNL     1       3.218   2.175  19.140  0.00  0.00    +0.000 C 
ATOM      5  C   UNL     1       3.421   2.772  17.745  0.00  0.00    +0.000 C 
ATOM      6  C   UNL     1       2.051   3.402  17.428  0.00  0.00    +0.000 C 
ATOM      7  C   UNL     1       1.895   4.861  17.962  0.00  0.00    +0.000 C 
ATOM      8  O   UNL     1       1.130   2.562  18.168  0.00  0.00    +0.000 OA
ENDROOT
BRANCH   5   9
ATOM      9  C   UNL     1       4.513   3.765  17.407  0.00  0.00    +0.000 C 
ATOM     10  O   UNL     1       4.881   3.814  16.226  0.00  0.00    +0.000 OA
ATOM     11  N   UNL     1       5.077   4.524  18.407  0.00  0.00    +0.000 N 
ATOM     12  H   UNL     1       4.837   4.299  19.360  0.00  0.00    +0.000 HD
BRANCH  11  13
ATOM     13  C   UNL     1       6.059   5.538  18.226  0.00  0.00    +0.000 A 
ATOM     14  C   UNL     1       7.261   5.608  18.933  0.00  0.00    +0.000 A 
ATOM     15  C   UNL     1       8.153   6.661  18.716  0.00  0.00    +0.000 A 
ATOM     16  C   UNL     1       7.820   7.620  17.779  0.00  0.00    +0.000 A 
ATOM     17  N   UNL     1       6.688   7.583  17.045  0.00  0.00    +0.000 NA
ATOM     18  C   UNL     1       5.843   6.544  17.284  0.00  0.00    +0.000 A 
ENDBRANCH  11  13
ENDBRANCH   5   9
BRANCH   1  19
ATOM     19  C   UNL     1       2.807   6.052  19.999  0.00  0.00    +0.000 C 
BRANCH  19  23
ATOM     20  C   UNL     1       1.059   9.897  19.039  0.00  0.00    +0.000 A 
ATOM     21  C   UNL     1       1.838   9.221  18.099  0.00  0.00    +0.000 A 
ATOM     22  C   UNL     1       2.388   7.971  18.396  0.00  0.00    +0.000 A 
ATOM     23  C   UNL     1       2.181   7.384  19.653  0.00  0.00    +0.000 A 
ATOM     24  C   UNL     1       1.366   8.047  20.575  0.00  0.00    +0.000 A 
ATOM     25  C   UNL     1       0.810   9.294  20.271  0.00  0.00    +0.000 A 
BRANCH  20  27
ATOM     26  C   UNL     1       1.583  12.186  18.667  0.00  0.00    +0.000 C 
ATOM     27  O   UNL     1       0.624  11.134  18.649  0.00  0.00    +0.000 OA
ENDBRANCH  20  27
ENDBRANCH  19  23
ENDBRANCH   1  19
TORSDOF 5
ENDMDL
MODEL 5
REMARK VINA RESULT:      -8.2      1.649      2.136
REMARK  Name = 
REMARK  6 active torsions:
REMARK  status: ('A' for Active; 'I' for Inactive)
REMARK    1  A    between atoms: C_1  and  O_2
REMARK    2  A    between atoms: O_2  and  C_3
REMARK    3  A    between atoms: C_6  and  C_7
REMARK    4  A    between atoms: C_7  and  N_8
REMARK    5  A    between atoms: C_12  and  C_13
REMARK    6  A    between atoms: N_15  and  C_16
REMARK                            x       y       z     vdW  Elec       q    Type
REMARK                         _______ _______ _______ _____ _____    ______ ____
ROOT
ATOM      1  N   UNL     1       2.046   4.973  19.407  0.00  0.00    +0.000 NA
ATOM      2  C   UNL     1       1.375   3.955  20.200  0.00  0.00    +0.000 C 
ATOM      3  C   UNL     1       1.526   2.576  19.511  0.00  0.00    +0.000 C 
ATOM      4  C   UNL     1       2.993   2.224  19.233  0.00  0.00    +0.000 C 
ATOM      5  C   UNL     1       3.258   2.793  17.837  0.00  0.00    +0.000 C 
ATOM      6  C   UNL     1       1.918   3.457  17.466  0.00  0.00    +0.000 C 
ATOM      7  C   UNL     1       1.786   4.928  17.972  0.00  0.00    +0.000 C 
ATOM      8  O   UNL     1       0.949   2.655  18.187  0.00  0.00    +0.000 OA
ENDROOT
BRANCH   5   9
ATOM      9  C   UNL     1       4.388   3.749  17.520  0.00  0.00    +0.000 C 
ATOM     10  O   UNL     1       4.812   3.752  16.356  0.00  0.00    +0.000 OA
ATOM     11  N   UNL     1       4.924   4.528  18.521  0.00  0.00    +0.000 N 
ATOM     12  H   UNL     1       4.634   4.339  19.468  0.00  0.00    +0.000 HD
BRANCH  11  13
ATOM     13  C   UNL     1       5.937   5.513  18.355  0.00  0.00    +0.000 A 
ATOM     14  C   UNL     1       5.875   6.564  17.437  0.00  0.00    +0.000 A 
ATOM     15  C   UNL     1       6.934   7.466  17.317  0.00  0.00    +0.000 A 
ATOM     16  C   UNL     1       8.035   7.298  18.135  0.00  0.00    +0.000 A 
ATOM     17  N   UNL     1       8.133   6.321  19.060  0.00  0.00    +0.000 NA
ATOM     18  C   UNL     1       7.083   5.460  19.149  0.00  0.00    +0.000 A 
ENDBRANCH  11  13
ENDBRANCH   5   9
BRANCH   1  19
ATOM     19  C   UNL     1       2.666   6.125  20.020  0.00  0.00    +0.000 C 
BRANCH  19  23
ATOM     20  C   UNL     1       1.022   9.998  18.992  0.00  0.00    +0.000 A 
ATOM     21  C   UNL     1       1.793   9.291  18.069  0.00  0.00    +0.000 A 
ATOM     22  C   UNL     1       2.309   8.032  18.388  0.00  0.00    +0.000 A 
ATOM     23  C   UNL     1       2.076   7.466  19.651  0.00  0.00    +0.000 A 
ATOM     24  C   UNL     1       1.269   8.162  20.555  0.00  0.00    +0.000 A 
ATOM     25  C   UNL     1       0.746   9.418  20.229  0.00  0.00    +0.000 A 
BRANCH  20  27
ATOM     26  C   UNL     1      -0.774  11.516  18.642  0.00  0.00    +0.000 C 
ATOM     27  O   UNL     1       0.622  11.240  18.582  0.00  0.00    +0.000 OA
ENDBRANCH  20  27
ENDBRANCH  19  23
ENDBRANCH   1  19
TORSDOF 5
ENDMDL
MODEL 6
REMARK VINA RESULT:      -8.2      1.580      1.792
REMARK  Name = 
REMARK  6 active torsions:
REMARK  status: ('A' for Active; 'I' for Inactive)
REMARK    1  A    between atoms: C_1  and  O_2
REMARK    2  A    between atoms: O_2  and  C_3
REMARK    3  A    between atoms: C_6  and  C_7
REMARK    4  A    between atoms: C_7  and  N_8
REMARK    5  A    between atoms: C_12  and  C_13
REMARK    6  A    between atoms: N_15  and  C_16
REMARK                            x       y       z     vdW  Elec       q    Type
REMARK                         _______ _______ _______ _____ _____    ______ ____
ROOT
ATOM      1  N   UNL     1       1.994   5.136  19.557  0.00  0.00    +0.000 NA
ATOM      2  C   UNL     1       1.300   4.218  20.448  0.00  0.00    +0.000 C 
ATOM      3  C   UNL     1       1.433   2.772  19.910  0.00  0.00    +0.000 C 
ATOM      4  C   UNL     1       2.897   2.370  19.684  0.00  0.00    +0.000 C 
ATOM      5  C   UNL     1       3.182   2.784  18.239  0.00  0.00    +0.000 C 
ATOM      6  C   UNL     1       1.856   3.425  17.787  0.00  0.00    +0.000 C 
ATOM      7  C   UNL     1       1.744   4.943  18.133  0.00  0.00    +0.000 C 
ATOM      8  O   UNL     1       0.868   2.719  18.580  0.00  0.00    +0.000 OA
ENDROOT
BRANCH   5   9
ATOM      9  C   UNL     1       4.330   3.683  17.833  0.00  0.00    +0.000 C 
ATOM     10  O   UNL     1       4.775   3.543  16.686  0.00  0.00    +0.000 OA
ATOM     11  N   UNL     1       4.857   4.570  18.745  0.00  0.00    +0.000 N 
ATOM     12  H   UNL     1       4.547   4.498  19.702  0.00  0.00    +0.000 HD
BRANCH  11  13
ATOM     13  C   UNL     1       5.886   5.517  18.483  0.00  0.00    +0.000 A 
ATOM     14  C   UNL     1       5.815   6.509  17.503  0.00  0.00    +0.000 A 
ATOM     15  C   UNL     1       6.890   7.376  17.290  0.00  0.00    +0.000 A 
ATOM     16  C   UNL     1       8.014   7.233  18.081  0.00  0.00    +0.000 A 
ATOM     17  N   UNL     1       8.123   6.314  19.062  0.00  0.00    +0.000 NA
ATOM     18  C   UNL     1       7.057   5.486  19.241  0.00  0.00    +0.000 A 
ENDBRANCH  11  13
ENDBRANCH   5   9
BRANCH   1  19
ATOM     19  C   UNL     1       2.627   6.337  20.051  0.00  0.00    +0.000 C 
BRANCH  19  23
ATOM     20  C   UNL     1       0.723  10.040  18.857  0.00  0.00    +0.000 A 
ATOM     21  C   UNL     1       0.533   9.531  20.142  0.00  0.00    +0.000 A 
ATOM     22  C   UNL     1       1.161   8.347  20.539  0.00  0.00    +0.000 A 
ATOM     23  C   UNL     1       1.978   7.640  19.644  0.00  0.00    +0.000 A 
ATOM     24  C   UNL     1       2.197   8.177  18.372  0.00  0.00    +0.000 A 
ATOM     25  C   UNL     1       1.574   9.367  17.981  0.00  0.00    +0.000 A 
BRANCH  20  27
ATOM     26  C   UNL     1      -1.174  11.393  19.327  0.00  0.00    +0.000 C 
ATOM     27  O   UNL     1       0.012  11.174  18.572  0.00  0.00    +0.000 OA
ENDBRANCH  20  27
ENDBRANCH  19  23
ENDBRANCH   1  19
TORSDOF 5
ENDMDL
MODEL 7
REMARK VINA RESULT:      -8.1      1.064      1.108
REMARK  Name = 
REMARK  6 active torsions:
REMARK  status: ('A' for Active; 'I' for Inactive)
REMARK    1  A    between atoms: C_1  and  O_2
REMARK    2  A    between atoms: O_2  and  C_3
REMARK    3  A    between atoms: C_6  and  C_7
REMARK    4  A    between atoms: C_7  and  N_8
REMARK    5  A    between atoms: C_12  and  C_13
REMARK    6  A    between atoms: N_15  and  C_16
REMARK                            x       y       z     vdW  Elec       q    Type
REMARK                         _______ _______ _______ _____ _____    ______ ____
ROOT
ATOM      1  N   UNL     1       2.088   5.263  19.545  0.00  0.00    +0.000 NA
ATOM      2  C   UNL     1       1.359   4.664  20.652  0.00  0.00    +0.000 C 
ATOM      3  C   UNL     1       1.357   3.123  20.499  0.00  0.00    +0.000 C 
ATOM      4  C   UNL     1       2.774   2.552  20.359  0.00  0.00    +0.000 C 
ATOM      5  C   UNL     1       3.034   2.560  18.851  0.00  0.00    +0.000 C 
ATOM      6  C   UNL     1       1.747   3.178  18.273  0.00  0.00    +0.000 C 
ATOM      7  C   UNL     1       1.769   4.738  18.222  0.00  0.00    +0.000 C 
ATOM      8  O   UNL     1       0.738   2.784  19.237  0.00  0.00    +0.000 OA
ENDROOT
BRANCH   5   9
ATOM      9  C   UNL     1       4.234   3.225  18.209  0.00  0.00    +0.000 C 
ATOM     10  O   UNL     1       5.183   3.509  18.952  0.00  0.00    +0.000 OA
ATOM     11  N   UNL     1       4.209   3.528  16.866  0.00  0.00    +0.000 N 
ATOM     12  H   UNL     1       3.334   3.416  16.377  0.00  0.00    +0.000 HD
BRANCH  11  13
ATOM     13  C   UNL     1       5.283   4.088  16.121  0.00  0.00    +0.000 A 
ATOM     14  C   UNL     1       5.607   3.730  14.810  0.00  0.00    +0.000 A 
ATOM     15  C   UNL     1       6.703   4.306  14.166  0.00  0.00    +0.000 A 
ATOM     16  C   UNL     1       7.448   5.246  14.852  0.00  0.00    +0.000 A 
ATOM     17  N   UNL     1       7.161   5.652  16.107  0.00  0.00    +0.000 NA
ATOM     18  C   UNL     1       6.086   5.068  16.703  0.00  0.00    +0.000 A 
ENDBRANCH  11  13
ENDBRANCH   5   9
BRANCH   1  19
ATOM     19  C   UNL     1       2.833   6.490  19.704  0.00  0.00    +0.000 C 
BRANCH  19  23
ATOM     20  C   UNL     1       0.601  10.112  18.889  0.00  0.00    +0.000 A 
ATOM     21  C   UNL     1       0.605   9.558  20.170  0.00  0.00    +0.000 A 
ATOM     22  C   UNL     1       1.339   8.401  20.443  0.00  0.00    +0.000 A 
ATOM     23  C   UNL     1       2.070   7.766  19.428  0.00  0.00    +0.000 A 
ATOM     24  C   UNL     1       2.095   8.349  18.158  0.00  0.00    +0.000 A 
ATOM     25  C   UNL     1       1.366   9.512  17.890  0.00  0.00    +0.000 A 
BRANCH  20  27
ATOM     26  C   UNL     1      -1.587  11.036  18.993  0.00  0.00    +0.000 C 
ATOM     27  O   UNL     1      -0.199  11.212  18.735  0.00  0.00    +0.000 OA
ENDBRANCH  20  27
ENDBRANCH  19  23
ENDBRANCH   1  19
TORSDOF 5
ENDMDL
MODEL 8
REMARK VINA RESULT:      -8.0      1.770      2.167
REMARK  Name = 
REMARK  6 active torsions:
REMARK  status: ('A' for Active; 'I' for Inactive)
REMARK    1  A    between atoms: C_1  and  O_2
REMARK    2  A    between atoms: O_2  and  C_3
REMARK    3  A    between atoms: C_6  and  C_7
REMARK    4  A    between atoms: C_7  and  N_8
REMARK    5  A    between atoms: C_12  and  C_13
REMARK    6  A    between atoms: N_15  and  C_16
REMARK                            x       y       z     vdW  Elec       q    Type
REMARK                         _______ _______ _______ _____ _____    ______ ____
ROOT
ATOM      1  N   UNL     1       1.935   5.516  19.609  0.00  0.00    +0.000 NA
ATOM      2  C   UNL     1       1.243   4.771  20.649  0.00  0.00    +0.000 C 
ATOM      3  C   UNL     1       1.364   3.252  20.367  0.00  0.00    +0.000 C 
ATOM      4  C   UNL     1       2.823   2.807  20.204  0.00  0.00    +0.000 C 
ATOM      5  C   UNL     1       3.099   2.964  18.707  0.00  0.00    +0.000 C 
ATOM      6  C   UNL     1       1.774   3.527  18.161  0.00  0.00    +0.000 C 
ATOM      7  C   UNL     1       1.674   5.083  18.242  0.00  0.00    +0.000 C 
ATOM      8  O   UNL     1       0.788   2.975  19.070  0.00  0.00    +0.000 OA
ENDROOT
BRANCH   5   9
ATOM      9  C   UNL     1       4.249   3.772  18.145  0.00  0.00    +0.000 C 
ATOM     10  O   UNL     1       4.616   3.502  16.994  0.00  0.00    +0.000 OA
ATOM     11  N   UNL     1       4.863   4.722  18.930  0.00  0.00    +0.000 N 
ATOM     12  H   UNL     1       4.612   4.758  19.906  0.00  0.00    +0.000 HD
BRANCH  11  13
ATOM     13  C   UNL     1       5.905   5.597  18.513  0.00  0.00    +0.000 A 
ATOM     14  C   UNL     1       7.170   5.655  19.103  0.00  0.00    +0.000 A 
ATOM     15  C   UNL     1       8.123   6.571  18.652  0.00  0.00    +0.000 A 
ATOM     16  C   UNL     1       7.785   7.406  17.604  0.00  0.00    +0.000 A 
ATOM     17  N   UNL     1       6.590   7.371  16.978  0.00  0.00    +0.000 NA
ATOM     18  C   UNL     1       5.687   6.466  17.444  0.00  0.00    +0.000 A 
ENDBRANCH  11  13
ENDBRANCH   5   9
BRANCH   1  19
ATOM     19  C   UNL     1       2.579   6.780  19.885  0.00  0.00    +0.000 C 
BRANCH  19  23
ATOM     20  C   UNL     1      -0.098  10.015  20.947  0.00  0.00    +0.000 A 
ATOM     21  C   UNL     1       0.342   9.115  21.918  0.00  0.00    +0.000 A 
ATOM     22  C   UNL     1       1.221   8.081  21.585  0.00  0.00    +0.000 A 
ATOM     23  C   UNL     1       1.662   7.920  20.263  0.00  0.00    +0.000 A 
ATOM     24  C   UNL     1       1.251   8.850  19.303  0.00  0.00    +0.000 A 
ATOM     25  C   UNL     1       0.377   9.889  19.642  0.00  0.00    +0.000 A 
BRANCH  20  27
ATOM     26  C   UNL     1      -1.156  11.072  22.794  0.00  0.00    +0.000 C 
ATOM     27  O   UNL     1      -0.998  10.947  21.385  0.00  0.00    +0.000 OA
ENDBRANCH  20  27
ENDBRANCH  19  23
ENDBRANCH   1  19
TORSDOF 5
ENDMDL
MODEL 9
REMARK VINA RESULT:      -7.8      1.129      1.576
REMARK  Name = 
REMARK  6 active torsions:
REMARK  status: ('A' for Active; 'I' for Inactive)
REMARK    1  A    between atoms: C_1  and  O_2
REMARK    2  A    between atoms: O_2  and  C_3
REMARK    3  A    between atoms: C_6  and  C_7
REMARK    4  A    between atoms: C_7  and  N_8
REMARK    5  A    between atoms: C_12  and  C_13
REMARK    6  A    between atoms: N_15  and  C_16
REMARK                            x       y       z     vdW  Elec       q    Type
REMARK                         _______ _______ _______ _____ _____    ______ ____
ROOT
ATOM      1  N   UNL     1       2.030   5.260  19.596  0.00  0.00    +0.000 NA
ATOM      2  C   UNL     1       1.234   4.797  20.723  0.00  0.00    +0.000 C 
ATOM      3  C   UNL     1       1.199   3.248  20.733  0.00  0.00    +0.000 C 
ATOM      4  C   UNL     1       2.607   2.638  20.724  0.00  0.00    +0.000 C 
ATOM      5  C   UNL     1       2.939   2.480  19.238  0.00  0.00    +0.000 C 
ATOM      6  C   UNL     1       1.696   3.059  18.535  0.00  0.00    +0.000 C 
ATOM      7  C   UNL     1       1.760   4.604  18.322  0.00  0.00    +0.000 C 
ATOM      8  O   UNL     1       0.633   2.790  19.484  0.00  0.00    +0.000 OA
ENDROOT
BRANCH   5   9
ATOM      9  C   UNL     1       4.183   3.048  18.590  0.00  0.00    +0.000 C 
ATOM     10  O   UNL     1       5.234   2.989  19.244  0.00  0.00    +0.000 OA
ATOM     11  N   UNL     1       4.098   3.640  17.350  0.00  0.00    +0.000 N 
ATOM     12  H   UNL     1       3.178   3.795  16.968  0.00  0.00    +0.000 HD
BRANCH  11  13
ATOM     13  C   UNL     1       5.191   4.153  16.597  0.00  0.00    +0.000 A 
ATOM     14  C   UNL     1       5.930   5.285  16.949  0.00  0.00    +0.000 A 
ATOM     15  C   UNL     1       6.966   5.740  16.130  0.00  0.00    +0.000 A 
ATOM     16  C   UNL     1       7.247   5.035  14.975  0.00  0.00    +0.000 A 
ATOM     17  N   UNL     1       6.586   3.918  14.605  0.00  0.00    +0.000 NA
ATOM     18  C   UNL     1       5.583   3.504  15.427  0.00  0.00    +0.000 A 
ENDBRANCH  11  13
ENDBRANCH   5   9
BRANCH   1  19
ATOM     19  C   UNL     1       2.797   6.482  19.662  0.00  0.00    +0.000 C 
BRANCH  19  23
ATOM     20  C   UNL     1       0.624  10.180  19.059  0.00  0.00    +0.000 A 
ATOM     21  C   UNL     1       1.261   9.552  17.988  0.00  0.00    +0.000 A 
ATOM     22  C   UNL     1       1.946   8.348  18.173  0.00  0.00    +0.000 A 
ATOM     23  C   UNL     1       2.022   7.761  19.444  0.00  0.00    +0.000 A 
ATOM     24  C   UNL     1       1.348   8.373  20.505  0.00  0.00    +0.000 A 
ATOM     25  C   UNL     1       0.655   9.574  20.314  0.00  0.00    +0.000 A 
BRANCH  20  27
ATOM     26  C   UNL     1      -1.291  11.330  18.246  0.00  0.00    +0.000 C 
ATOM     27  O   UNL     1       0.035  11.378  18.762  0.00  0.00    +0.000 OA
ENDBRANCH  20  27
ENDBRANCH  19  23
ENDBRANCH   1  19
TORSDOF 5
ENDMDL
