MODEL 1
REMARK VINA RESULT:      -8.0      0.000      0.000
REMARK  Name = 
REMARK  14 active torsions:
REMARK  status: ('A' for Active; 'I' for Inactive)
REMARK    1  A    between atoms: C_1  and  N_2
REMARK    2  A    between atoms: N_2  and  C_3
REMARK    3  A    between atoms: C_4  and  C_6
REMARK    4  A    between atoms: N_12  and  C_13
REMARK    5  A    between atoms: C_16  and  C_17
REMARK    6  A    between atoms: C_16  and  C_18
REMARK    7  A    between atoms: C_21  and  O_22
REMARK    8  A    between atoms: O_22  and  C_23
REMARK    9  A    between atoms: C_23  and  C_24
REMARK   10  A    between atoms: C_24  and  O_25
REMARK   11  A    between atoms: C_24  and  C_26
REMARK   12  A    between atoms: C_26  and  O_27
REMARK   13  A    between atoms: C_26  and  C_28
REMARK   14  A    between atoms: C_28  and  O_29
REMARK                            x       y       z     vdW  Elec       q    Type
REMARK                         _______ _______ _______ _____ _____    ______ ____
ROOT
ATOM      1  C   UNL     1      -2.296  13.548  22.589  0.00  0.00    +0.000 A 
ATOM      2  C   UNL     1      -2.093  12.471  23.459  0.00  0.00    +0.000 A 
ATOM      3  C   UNL     1      -1.333  11.352  23.064  0.00  0.00    +0.000 A 
ATOM      4  C   UNL     1      -0.805  11.293  21.756  0.00  0.00    +0.000 A 
ATOM      5  C   UNL     1      -0.048  10.342  21.001  0.00  0.00    +0.000 A 
ATOM      6  C   UNL     1       0.132  10.857  19.727  0.00  0.00    +0.000 A 
ATOM      7  N   UNL     1      -0.476  12.090  19.684  0.00  0.00    +0.000 N 
ATOM      8  C   UNL     1      -0.671  12.981  18.555  0.00  0.00    +0.000 C 
ATOM      9  C   UNL     1      -1.006  12.393  20.922  0.00  0.00    +0.000 A 
ATOM     10  C   UNL     1      -1.673  13.551  21.344  0.00  0.00    +0.000 A 
ATOM     11  C   UNL     1       0.840  10.160  18.587  0.00  0.00    +0.000 C 
ATOM     12  C   UNL     1      -0.191   9.786  17.498  0.00  0.00    +0.000 C 
ATOM     13  C   UNL     1       1.991  11.054  18.063  0.00  0.00    +0.000 C 
ATOM     14  C   UNL     1       1.471   8.834  19.062  0.00  0.00    +0.000 A 
ATOM     15  C   UNL     1       2.267   8.101  18.156  0.00  0.00    +0.000 A 
ATOM     16  C   UNL     1       2.883   6.902  18.502  0.00  0.00    +0.000 A 
ATOM     17  C   UNL     1       2.686   6.380  19.773  0.00  0.00    +0.000 A 
ATOM     18  C   UNL     1       1.891   7.083  20.695  0.00  0.00    +0.000 A 
ATOM     19  C   UNL     1       1.288   8.312  20.356  0.00  0.00    +0.000 A 
ATOM     20  C   UNL     1       0.478   9.036  21.392  0.00  0.00    +0.000 C 
ATOM     21  O   UNL     1       0.299   8.543  22.504  0.00  0.00    +0.000 OA
ENDROOT
BRANCH   1  25
ATOM     22  C   UNL     1      -5.220  15.938  23.162  0.00  0.00    +0.000 C 
ATOM     23  N   UNL     1      -4.506  14.741  22.753  0.00  0.00    +0.000 N 
ATOM     24  C   UNL     1      -5.318  13.611  22.314  0.00  0.00    +0.000 C 
ATOM     25  C   UNL     1      -3.126  14.708  23.021  0.00  0.00    +0.000 C 
ATOM     26  O   UNL     1      -2.556  15.623  23.616  0.00  0.00    +0.000 OA
ENDBRANCH   1  25
BRANCH  16  27
ATOM     27  O   UNL     1       3.646   6.394  17.497  0.00  0.00    +0.000 OA
BRANCH  27  28
ATOM     28  C   UNL     1       4.665   5.450  17.809  0.00  0.00    +0.000 C 
BRANCH  28  29
ATOM     29  C   UNL     1       5.885   5.792  16.938  0.00  0.00    +0.000 C 
BRANCH  29  30
ATOM     30  O   UNL     1       5.527   6.750  15.922  0.00  0.00    +0.000 OA
ATOM     31  H   UNL     1       6.317   7.307  15.769  0.00  0.00    +0.000 HD
ENDBRANCH  29  30
BRANCH  29  32
ATOM     32  C   UNL     1       6.558   4.586  16.252  0.00  0.00    +0.000 C 
BRANCH  32  33
ATOM     33  O   UNL     1       7.902   4.468  16.773  0.00  0.00    +0.000 OA
ATOM     34  H   UNL     1       7.795   4.180  17.704  0.00  0.00    +0.000 HD
ENDBRANCH  32  33
BRANCH  32  35
ATOM     35  C   UNL     1       6.693   4.654  14.727  0.00  0.00    +0.000 C 
BRANCH  35  36
ATOM     36  O   UNL     1       7.814   5.477  14.388  0.00  0.00    +0.000 OA
ATOM     37  H   UNL     1       8.590   5.046  14.798  0.00  0.00    +0.000 HD
ENDBRANCH  35  36
ENDBRANCH  32  35
ENDBRANCH  29  32
ENDBRANCH  28  29
ENDBRANCH  27  28
ENDBRANCH  16  27
TORSDOF 9
ENDMDL
MODEL 2
REMARK VINA RESULT:      -7.7      0.931      1.160
REMARK  Name = 
REMARK  14 active torsions:
REMARK  status: ('A' for Active; 'I' for Inactive)
REMARK    1  A    between atoms: C_1  and  N_2
REMARK    2  A    between atoms: N_2  and  C_3
REMARK    3  A    between atoms: C_4  and  C_6
REMARK    4  A    between atoms: N_12  and  C_13
REMARK    5  A    between atoms: C_16  and  C_17
REMARK    6  A    between atoms: C_16  and  C_18
REMARK    7  A    between atoms: C_21  and  O_22
REMARK    8  A    between atoms: O_22  and  C_23
REMARK    9  A    between atoms: C_23  and  C_24
REMARK   10  A    between atoms: C_24  and  O_25
REMARK   11  A    between atoms: C_24  and  C_26
REMARK   12  A    between atoms: C_26  and  O_27
REMARK   13  A    between atoms: C_26  and  C_28
REMARK   14  A    between atoms: C_28  and  O_29
REMARK                            x       y       z     vdW  Elec       q    Type
REMARK                         _______ _______ _______ _____ _____    ______ ____
ROOT
ATOM      1  C   UNL     1      -2.323  13.423  22.562  0.00  0.00    +0.000 A 
ATOM      2  C   UNL     1      -2.152  12.334  23.423  0.00  0.00    +0.000 A 
ATOM      3  C   UNL     1      -1.386  11.216  23.037  0.00  0.00    +0.000 A 
ATOM      4  C   UNL     1      -0.818  11.170  21.746  0.00  0.00    +0.000 A 
ATOM      5  C   UNL     1      -0.043  10.225  21.002  0.00  0.00    +0.000 A 
ATOM      6  C   UNL     1       0.179  10.755  19.740  0.00  0.00    +0.000 A 
ATOM      7  N   UNL     1      -0.421  11.992  19.695  0.00  0.00    +0.000 N 
ATOM      8  C   UNL     1      -0.577  12.898  18.572  0.00  0.00    +0.000 C 
ATOM      9  C   UNL     1      -0.987  12.282  20.920  0.00  0.00    +0.000 A 
ATOM     10  C   UNL     1      -1.661  13.438  21.337  0.00  0.00    +0.000 A 
ATOM     11  C   UNL     1       0.918  10.068  18.614  0.00  0.00    +0.000 C 
ATOM     12  C   UNL     1      -0.082   9.714  17.489  0.00  0.00    +0.000 C 
ATOM     13  C   UNL     1       2.089  10.963  18.137  0.00  0.00    +0.000 C 
ATOM     14  C   UNL     1       1.526   8.733  19.091  0.00  0.00    +0.000 A 
ATOM     15  C   UNL     1       2.346   8.007  18.200  0.00  0.00    +0.000 A 
ATOM     16  C   UNL     1       2.945   6.801  18.550  0.00  0.00    +0.000 A 
ATOM     17  C   UNL     1       2.706   6.263  19.807  0.00  0.00    +0.000 A 
ATOM     18  C   UNL     1       1.887   6.959  20.713  0.00  0.00    +0.000 A 
ATOM     19  C   UNL     1       1.302   8.196  20.372  0.00  0.00    +0.000 A 
ATOM     20  C   UNL     1       0.464   8.911  21.392  0.00  0.00    +0.000 C 
ATOM     21  O   UNL     1       0.248   8.405  22.491  0.00  0.00    +0.000 OA
ENDROOT
BRANCH   1  25
ATOM     22  C   UNL     1      -5.267  15.785  23.141  0.00  0.00    +0.000 C 
ATOM     23  N   UNL     1      -4.545  14.588  22.746  0.00  0.00    +0.000 N 
ATOM     24  C   UNL     1      -5.351  13.436  22.357  0.00  0.00    +0.000 C 
ATOM     25  C   UNL     1      -3.159  14.582  22.982  0.00  0.00    +0.000 C 
ATOM     26  O   UNL     1      -2.589  15.521  23.539  0.00  0.00    +0.000 OA
ENDBRANCH   1  25
BRANCH  16  27
ATOM     27  O   UNL     1       3.736   6.301  17.563  0.00  0.00    +0.000 OA
BRANCH  27  28
ATOM     28  C   UNL     1       3.966   4.898  17.501  0.00  0.00    +0.000 C 
BRANCH  28  29
ATOM     29  C   UNL     1       5.381   4.692  16.936  0.00  0.00    +0.000 C 
BRANCH  29  30
ATOM     30  O   UNL     1       5.526   3.356  16.412  0.00  0.00    +0.000 OA
ATOM     31  H   UNL     1       5.974   2.829  17.104  0.00  0.00    +0.000 HD
ENDBRANCH  29  30
BRANCH  29  32
ATOM     32  C   UNL     1       6.528   4.949  17.932  0.00  0.00    +0.000 C 
BRANCH  32  33
ATOM     33  O   UNL     1       5.983   4.881  19.271  0.00  0.00    +0.000 OA
ATOM     34  H   UNL     1       6.693   5.219  19.857  0.00  0.00    +0.000 HD
ENDBRANCH  32  33
BRANCH  32  35
ATOM     35  C   UNL     1       7.236   6.304  17.826  0.00  0.00    +0.000 C 
BRANCH  35  36
ATOM     36  O   UNL     1       7.590   6.546  16.460  0.00  0.00    +0.000 OA
ATOM     37  H   UNL     1       8.052   7.408  16.457  0.00  0.00    +0.000 HD
ENDBRANCH  35  36
ENDBRANCH  32  35
ENDBRANCH  29  32
ENDBRANCH  28  29
ENDBRANCH  27  28
ENDBRANCH  16  27
TORSDOF 9
ENDMDL
MODEL 3
REMARK VINA RESULT:      -7.7      0.780      1.096
REMARK  Name = 
REMARK  14 active torsions:
REMARK  status: ('A' for Active; 'I' for Inactive)
REMARK    1  A    between atoms: C_1  and  N_2
REMARK    2  A    between atoms: N_2  and  C_3
REMARK    3  A    between atoms: C_4  and  C_6
REMARK    4  A    between atoms: N_12  and  C_13
REMARK    5  A    between atoms: C_16  and  C_17
REMARK    6  A    between atoms: C_16  and  C_18
REMARK    7  A    between atoms: C_21  and  O_22
REMARK    8  A    between atoms: O_22  and  C_23
REMARK    9  A    between atoms: C_23  and  C_24
REMARK   10  A    between atoms: C_24  and  O_25
REMARK   11  A    between atoms: C_24  and  C_26
REMARK   12  A    between atoms: C_26  and  O_27
REMARK   13  A    between atoms: C_26  and  C_28
REMARK   14  A    between atoms: C_28  and  O_29
REMARK                            x       y       z     vdW  Elec       q    Type
REMARK                         _______ _______ _______ _____ _____    ______ ____
ROOT
ATOM      1  C   UNL     1      -2.420  13.706  22.577  0.00  0.00    +0.000 A 
ATOM      2  C   UNL     1      -2.248  12.626  23.448  0.00  0.00    +0.000 A 
ATOM      3  C   UNL     1      -1.499  11.496  23.066  0.00  0.00    +0.000 A 
ATOM      4  C   UNL     1      -0.949  11.430  21.767  0.00  0.00    +0.000 A 
ATOM      5  C   UNL     1      -0.193  10.469  21.024  0.00  0.00    +0.000 A 
ATOM      6  C   UNL     1       0.016  10.983  19.753  0.00  0.00    +0.000 A 
ATOM      7  N   UNL     1      -0.571  12.225  19.702  0.00  0.00    +0.000 N 
ATOM      8  C   UNL     1      -0.733  13.120  18.571  0.00  0.00    +0.000 C 
ATOM      9  C   UNL     1      -1.118  12.534  20.931  0.00  0.00    +0.000 A 
ATOM     10  C   UNL     1      -1.774  13.701  21.344  0.00  0.00    +0.000 A 
ATOM     11  C   UNL     1       0.733  10.276  18.625  0.00  0.00    +0.000 C 
ATOM     12  C   UNL     1      -0.285   9.919  17.517  0.00  0.00    +0.000 C 
ATOM     13  C   UNL     1       1.906  11.152  18.122  0.00  0.00    +0.000 C 
ATOM     14  C   UNL     1       1.335   8.940  19.109  0.00  0.00    +0.000 A 
ATOM     15  C   UNL     1       2.135   8.195  18.215  0.00  0.00    +0.000 A 
ATOM     16  C   UNL     1       2.726   6.987  18.571  0.00  0.00    +0.000 A 
ATOM     17  C   UNL     1       2.499   6.466  19.837  0.00  0.00    +0.000 A 
ATOM     18  C   UNL     1       1.699   7.180  20.746  0.00  0.00    +0.000 A 
ATOM     19  C   UNL     1       1.122   8.419  20.399  0.00  0.00    +0.000 A 
ATOM     20  C   UNL     1       0.305   9.154  21.421  0.00  0.00    +0.000 C 
ATOM     21  O   UNL     1       0.099   8.662  22.529  0.00  0.00    +0.000 OA
ENDROOT
BRANCH   1  25
ATOM     22  C   UNL     1      -5.306  16.158  23.074  0.00  0.00    +0.000 C 
ATOM     23  N   UNL     1      -4.605  14.951  22.672  0.00  0.00    +0.000 N 
ATOM     24  C   UNL     1      -5.425  13.850  22.178  0.00  0.00    +0.000 C 
ATOM     25  C   UNL     1      -3.238  14.879  22.996  0.00  0.00    +0.000 C 
ATOM     26  O   UNL     1      -2.673  15.769  23.632  0.00  0.00    +0.000 OA
ENDBRANCH   1  25
BRANCH  16  27
ATOM     27  O   UNL     1       3.499   6.468  17.579  0.00  0.00    +0.000 OA
BRANCH  27  28
ATOM     28  C   UNL     1       4.801   5.986  17.893  0.00  0.00    +0.000 C 
BRANCH  28  29
ATOM     29  C   UNL     1       5.803   6.809  17.067  0.00  0.00    +0.000 C 
BRANCH  29  30
ATOM     30  O   UNL     1       5.426   6.816  15.676  0.00  0.00    +0.000 OA
ATOM     31  H   UNL     1       4.451   6.751  15.647  0.00  0.00    +0.000 HD
ENDBRANCH  29  30
BRANCH  29  32
ATOM     32  C   UNL     1       7.271   6.349  17.170  0.00  0.00    +0.000 C 
BRANCH  32  33
ATOM     33  O   UNL     1       7.513   5.387  16.116  0.00  0.00    +0.000 OA
ATOM     34  H   UNL     1       8.418   5.047  16.280  0.00  0.00    +0.000 HD
ENDBRANCH  32  33
BRANCH  32  35
ATOM     35  C   UNL     1       7.684   5.666  18.477  0.00  0.00    +0.000 C 
BRANCH  35  36
ATOM     36  O   UNL     1       7.857   4.264  18.244  0.00  0.00    +0.000 OA
ATOM     37  H   UNL     1       6.977   3.931  17.979  0.00  0.00    +0.000 HD
ENDBRANCH  35  36
ENDBRANCH  32  35
ENDBRANCH  29  32
ENDBRANCH  28  29
ENDBRANCH  27  28
ENDBRANCH  16  27
TORSDOF 9
ENDMDL
MODEL 4
REMARK VINA RESULT:      -7.7      3.019      4.093
REMARK  Name = 
REMARK  14 active torsions:
REMARK  status: ('A' for Active; 'I' for Inactive)
REMARK    1  A    between atoms: C_1  and  N_2
REMARK    2  A    between atoms: N_2  and  C_3
REMARK    3  A    between atoms: C_4  and  C_6
REMARK    4  A    between atoms: N_12  and  C_13
REMARK    5  A    between atoms: C_16  and  C_17
REMARK    6  A    between atoms: C_16  and  C_18
REMARK    7  A    between atoms: C_21  and  O_22
REMARK    8  A    between atoms: O_22  and  C_23
REMARK    9  A    between atoms: C_23  and  C_24
REMARK   10  A    between atoms: C_24  and  O_25
REMARK   11  A    between atoms: C_24  and  C_26
REMARK   12  A    between atoms: C_26  and  O_27
REMARK   13  A    between atoms: C_26  and  C_28
REMARK   14  A    between atoms: C_28  and  O_29
REMARK                            x       y       z     vdW  Elec       q    Type
REMARK                         _______ _______ _______ _____ _____    ______ ____
ROOT
ATOM      1  C   UNL     1      -0.914  14.714  20.164  0.00  0.00    +0.000 A 
ATOM      2  C   UNL     1      -0.193  14.577  18.974  0.00  0.00    +0.000 A 
ATOM      3  C   UNL     1       0.416  13.354  18.630  0.00  0.00    +0.000 A 
ATOM      4  C   UNL     1       0.338  12.261  19.520  0.00  0.00    +0.000 A 
ATOM      5  C   UNL     1       0.844  10.923  19.543  0.00  0.00    +0.000 A 
ATOM      6  C   UNL     1       0.450  10.339  20.737  0.00  0.00    +0.000 A 
ATOM      7  N   UNL     1      -0.287  11.268  21.433  0.00  0.00    +0.000 N 
ATOM      8  C   UNL     1      -0.827  11.194  22.779  0.00  0.00    +0.000 C 
ATOM      9  C   UNL     1      -0.408  12.423  20.687  0.00  0.00    +0.000 A 
ATOM     10  C   UNL     1      -1.101  13.604  20.984  0.00  0.00    +0.000 A 
ATOM     11  C   UNL     1       0.807   8.943  21.194  0.00  0.00    +0.000 C 
ATOM     12  C   UNL     1       1.769   9.031  22.401  0.00  0.00    +0.000 C 
ATOM     13  C   UNL     1      -0.487   8.147  21.497  0.00  0.00    +0.000 C 
ATOM     14  C   UNL     1       1.565   8.180  20.088  0.00  0.00    +0.000 A 
ATOM     15  C   UNL     1       1.882   6.821  20.300  0.00  0.00    +0.000 A 
ATOM     16  C   UNL     1       2.554   6.054  19.352  0.00  0.00    +0.000 A 
ATOM     17  C   UNL     1       2.963   6.645  18.166  0.00  0.00    +0.000 A 
ATOM     18  C   UNL     1       2.670   8.000  17.930  0.00  0.00    +0.000 A 
ATOM     19  C   UNL     1       1.965   8.773  18.876  0.00  0.00    +0.000 A 
ATOM     20  C   UNL     1       1.649  10.205  18.556  0.00  0.00    +0.000 C 
ATOM     21  O   UNL     1       2.042  10.714  17.509  0.00  0.00    +0.000 OA
ENDROOT
BRANCH   1  25
ATOM     22  C   UNL     1      -1.532  18.177  21.651  0.00  0.00    +0.000 C 
ATOM     23  N   UNL     1      -0.830  16.951  21.313  0.00  0.00    +0.000 N 
ATOM     24  C   UNL     1       0.591  16.898  21.639  0.00  0.00    +0.000 C 
ATOM     25  C   UNL     1      -1.528  16.025  20.517  0.00  0.00    +0.000 C 
ATOM     26  O   UNL     1      -2.657  16.259  20.085  0.00  0.00    +0.000 OA
ENDBRANCH   1  25
BRANCH  16  27
ATOM     27  O   UNL     1       2.706   4.758  19.737  0.00  0.00    +0.000 OA
BRANCH  27  28
ATOM     28  C   UNL     1       3.951   4.107  19.507  0.00  0.00    +0.000 C 
BRANCH  28  29
ATOM     29  C   UNL     1       3.765   2.625  19.872  0.00  0.00    +0.000 C 
BRANCH  29  30
ATOM     30  O   UNL     1       5.034   2.020  20.191  0.00  0.00    +0.000 OA
ATOM     31  H   UNL     1       5.485   2.624  20.814  0.00  0.00    +0.000 HD
ENDBRANCH  29  30
BRANCH  29  32
ATOM     32  C   UNL     1       3.076   1.767  18.792  0.00  0.00    +0.000 C 
BRANCH  32  33
ATOM     33  O   UNL     1       4.033   0.789  18.320  0.00  0.00    +0.000 OA
ATOM     34  H   UNL     1       3.998   0.057  18.971  0.00  0.00    +0.000 HD
ENDBRANCH  32  33
BRANCH  32  35
ATOM     35  C   UNL     1       2.570   2.506  17.550  0.00  0.00    +0.000 C 
BRANCH  35  36
ATOM     36  O   UNL     1       1.218   2.926  17.768  0.00  0.00    +0.000 OA
ATOM     37  H   UNL     1       0.940   3.359  16.937  0.00  0.00    +0.000 HD
ENDBRANCH  35  36
ENDBRANCH  32  35
ENDBRANCH  29  32
ENDBRANCH  28  29
ENDBRANCH  27  28
ENDBRANCH  16  27
TORSDOF 9
ENDMDL
MODEL 5
REMARK VINA RESULT:      -7.6      0.910      1.173
REMARK  Name = 
REMARK  14 active torsions:
REMARK  status: ('A' for Active; 'I' for Inactive)
REMARK    1  A    between atoms: C_1  and  N_2
REMARK    2  A    between atoms: N_2  and  C_3
REMARK    3  A    between atoms: C_4  and  C_6
REMARK    4  A    between atoms: N_12  and  C_13
REMARK    5  A    between atoms: C_16  and  C_17
REMARK    6  A    between atoms: C_16  and  C_18
REMARK    7  A    between atoms: C_21  and  O_22
REMARK    8  A    between atoms: O_22  and  C_23
REMARK    9  A    between atoms: C_23  and  C_24
REMARK   10  A    between atoms: C_24  and  O_25
REMARK   11  A    between atoms: C_24  and  C_26
REMARK   12  A    between atoms: C_26  and  O_27
REMARK   13  A    between atoms: C_26  and  C_28
REMARK   14  A    between atoms: C_28  and  O_29
REMARK                            x       y       z     vdW  Elec       q    Type
REMARK                         _______ _______ _______ _____ _____    ______ ____
ROOT
ATOM      1  C   UNL     1      -2.546  13.790  22.601  0.00  0.00    +0.000 A 
ATOM      2  C   UNL     1      -2.392  12.702  23.466  0.00  0.00    +0.000 A 
ATOM      3  C   UNL     1      -1.629  11.578  23.092  0.00  0.00    +0.000 A 
ATOM      4  C   UNL     1      -1.047  11.526  21.807  0.00  0.00    +0.000 A 
ATOM      5  C   UNL     1      -0.270  10.574  21.074  0.00  0.00    +0.000 A 
ATOM      6  C   UNL     1      -0.030  11.101  19.814  0.00  0.00    +0.000 A 
ATOM      7  N   UNL     1      -0.621  12.341  19.759  0.00  0.00    +0.000 N 
ATOM      8  C   UNL     1      -0.759  13.246  18.632  0.00  0.00    +0.000 C 
ATOM      9  C   UNL     1      -1.200  12.637  20.977  0.00  0.00    +0.000 A 
ATOM     10  C   UNL     1      -1.870  13.799  21.383  0.00  0.00    +0.000 A 
ATOM     11  C   UNL     1       0.717  10.406  18.698  0.00  0.00    +0.000 C 
ATOM     12  C   UNL     1      -0.272  10.056  17.562  0.00  0.00    +0.000 C 
ATOM     13  C   UNL     1       1.899  11.292  18.232  0.00  0.00    +0.000 C 
ATOM     14  C   UNL     1       1.311   9.068  19.184  0.00  0.00    +0.000 A 
ATOM     15  C   UNL     1       2.136   8.334  18.304  0.00  0.00    +0.000 A 
ATOM     16  C   UNL     1       2.723   7.125  18.663  0.00  0.00    +0.000 A 
ATOM     17  C   UNL     1       2.467   6.592  19.919  0.00  0.00    +0.000 A 
ATOM     18  C   UNL     1       1.641   7.295  20.814  0.00  0.00    +0.000 A 
ATOM     19  C   UNL     1       1.068   8.535  20.463  0.00  0.00    +0.000 A 
ATOM     20  C   UNL     1       0.224   9.258  21.472  0.00  0.00    +0.000 C 
ATOM     21  O   UNL     1      -0.008   8.756  22.570  0.00  0.00    +0.000 OA
ENDROOT
BRANCH   1  25
ATOM     22  C   UNL     1      -3.761  17.014  24.249  0.00  0.00    +0.000 C 
ATOM     23  N   UNL     1      -2.856  15.947  23.860  0.00  0.00    +0.000 N 
ATOM     24  C   UNL     1      -1.448  16.123  24.202  0.00  0.00    +0.000 C 
ATOM     25  C   UNL     1      -3.379  14.956  23.010  0.00  0.00    +0.000 C 
ATOM     26  O   UNL     1      -4.529  15.013  22.575  0.00  0.00    +0.000 OA
ENDBRANCH   1  25
BRANCH  16  27
ATOM     27  O   UNL     1       3.522   6.618  17.686  0.00  0.00    +0.000 OA
BRANCH  27  28
ATOM     28  C   UNL     1       4.200   5.387  17.913  0.00  0.00    +0.000 C 
BRANCH  28  29
ATOM     29  C   UNL     1       5.701   5.649  17.712  0.00  0.00    +0.000 C 
BRANCH  29  30
ATOM     30  O   UNL     1       5.907   6.874  16.979  0.00  0.00    +0.000 OA
ATOM     31  H   UNL     1       6.626   7.357  17.433  0.00  0.00    +0.000 HD
ENDBRANCH  29  30
BRANCH  29  32
ATOM     32  C   UNL     1       6.473   4.522  16.999  0.00  0.00    +0.000 C 
BRANCH  32  33
ATOM     33  O   UNL     1       7.861   4.606  17.400  0.00  0.00    +0.000 OA
ATOM     34  H   UNL     1       8.138   3.681  17.570  0.00  0.00    +0.000 HD
ENDBRANCH  32  33
BRANCH  32  35
ATOM     35  C   UNL     1       6.467   4.551  15.467  0.00  0.00    +0.000 C 
BRANCH  35  36
ATOM     36  O   UNL     1       7.521   5.405  15.006  0.00  0.00    +0.000 OA
ATOM     37  H   UNL     1       7.166   6.314  15.065  0.00  0.00    +0.000 HD
ENDBRANCH  35  36
ENDBRANCH  32  35
ENDBRANCH  29  32
ENDBRANCH  28  29
ENDBRANCH  27  28
ENDBRANCH  16  27
TORSDOF 9
ENDMDL
MODEL 6
REMARK VINA RESULT:      -7.6      1.107      1.586
REMARK  Name = 
REMARK  14 active torsions:
REMARK  status: ('A' for Active; 'I' for Inactive)
REMARK    1  A    between atoms: C_1  and  N_2
REMARK    2  A    between atoms: N_2  and  C_3
REMARK    3  A    between atoms: C_4  and  C_6
REMARK    4  A    between atoms: N_12  and  C_13
REMARK    5  A    between atoms: C_16  and  C_17
REMARK    6  A    between atoms: C_16  and  C_18
REMARK    7  A    between atoms: C_21  and  O_22
REMARK    8  A    between atoms: O_22  and  C_23
REMARK    9  A    between atoms: C_23  and  C_24
REMARK   10  A    between atoms: C_24  and  O_25
REMARK   11  A    between atoms: C_24  and  C_26
REMARK   12  A    between atoms: C_26  and  O_27
REMARK   13  A    between atoms: C_26  and  C_28
REMARK   14  A    between atoms: C_28  and  O_29
REMARK                            x       y       z     vdW  Elec       q    Type
REMARK                         _______ _______ _______ _____ _____    ______ ____
ROOT
ATOM      1  C   UNL     1      -2.637  13.960  22.674  0.00  0.00    +0.000 A 
ATOM      2  C   UNL     1      -2.493  12.882  23.554  0.00  0.00    +0.000 A 
ATOM      3  C   UNL     1      -1.743  11.745  23.193  0.00  0.00    +0.000 A 
ATOM      4  C   UNL     1      -1.166  11.669  21.907  0.00  0.00    +0.000 A 
ATOM      5  C   UNL     1      -0.402  10.698  21.185  0.00  0.00    +0.000 A 
ATOM      6  C   UNL     1      -0.161  11.204  19.916  0.00  0.00    +0.000 A 
ATOM      7  N   UNL     1      -0.738  12.451  19.847  0.00  0.00    +0.000 N 
ATOM      8  C   UNL     1      -0.869  13.342  18.708  0.00  0.00    +0.000 C 
ATOM      9  C   UNL     1      -1.309  12.770  21.062  0.00  0.00    +0.000 A 
ATOM     10  C   UNL     1      -1.965  13.944  21.455  0.00  0.00    +0.000 A 
ATOM     11  C   UNL     1       0.575  10.487  18.808  0.00  0.00    +0.000 C 
ATOM     12  C   UNL     1      -0.422  10.132  17.680  0.00  0.00    +0.000 C 
ATOM     13  C   UNL     1       1.765  11.352  18.326  0.00  0.00    +0.000 C 
ATOM     14  C   UNL     1       1.156   9.149  19.311  0.00  0.00    +0.000 A 
ATOM     15  C   UNL     1       1.969   8.394  18.438  0.00  0.00    +0.000 A 
ATOM     16  C   UNL     1       2.544   7.183  18.812  0.00  0.00    +0.000 A 
ATOM     17  C   UNL     1       2.286   6.670  20.075  0.00  0.00    +0.000 A 
ATOM     18  C   UNL     1       1.471   7.395  20.964  0.00  0.00    +0.000 A 
ATOM     19  C   UNL     1       0.911   8.636  20.598  0.00  0.00    +0.000 A 
ATOM     20  C   UNL     1       0.078   9.382  21.599  0.00  0.00    +0.000 C 
ATOM     21  O   UNL     1      -0.156   8.897  22.704  0.00  0.00    +0.000 OA
ENDROOT
BRANCH   1  25
ATOM     22  C   UNL     1      -3.870  17.142  24.388  0.00  0.00    +0.000 C 
ATOM     23  N   UNL     1      -2.978  16.055  24.026  0.00  0.00    +0.000 N 
ATOM     24  C   UNL     1      -1.606  16.143  24.514  0.00  0.00    +0.000 C 
ATOM     25  C   UNL     1      -3.456  15.141  23.070  0.00  0.00    +0.000 C 
ATOM     26  O   UNL     1      -4.553  15.279  22.528  0.00  0.00    +0.000 OA
ENDBRANCH   1  25
BRANCH  16  27
ATOM     27  O   UNL     1       3.334   6.653  17.839  0.00  0.00    +0.000 OA
BRANCH  27  28
ATOM     28  C   UNL     1       3.399   5.239  17.691  0.00  0.00    +0.000 C 
BRANCH  28  29
ATOM     29  C   UNL     1       4.721   4.917  16.975  0.00  0.00    +0.000 C 
BRANCH  29  30
ATOM     30  O   UNL     1       5.436   3.880  17.677  0.00  0.00    +0.000 OA
ATOM     31  H   UNL     1       6.388   4.034  17.514  0.00  0.00    +0.000 HD
ENDBRANCH  29  30
BRANCH  29  32
ATOM     32  C   UNL     1       5.671   6.115  16.781  0.00  0.00    +0.000 C 
BRANCH  32  33
ATOM     33  O   UNL     1       5.313   6.775  15.545  0.00  0.00    +0.000 OA
ATOM     34  H   UNL     1       5.662   7.688  15.628  0.00  0.00    +0.000 HD
ENDBRANCH  32  33
BRANCH  32  35
ATOM     35  C   UNL     1       7.165   5.794  16.679  0.00  0.00    +0.000 C 
BRANCH  35  36
ATOM     36  O   UNL     1       7.497   5.517  15.314  0.00  0.00    +0.000 OA
ATOM     37  H   UNL     1       7.844   4.603  15.309  0.00  0.00    +0.000 HD
ENDBRANCH  35  36
ENDBRANCH  32  35
ENDBRANCH  29  32
ENDBRANCH  28  29
ENDBRANCH  27  28
ENDBRANCH  16  27
TORSDOF 9
ENDMDL
MODEL 7
REMARK VINA RESULT:      -7.5      1.692      2.229
REMARK  Name = 
REMARK  14 active torsions:
REMARK  status: ('A' for Active; 'I' for Inactive)
REMARK    1  A    between atoms: C_1  and  N_2
REMARK    2  A    between atoms: N_2  and  C_3
REMARK    3  A    between atoms: C_4  and  C_6
REMARK    4  A    between atoms: N_12  and  C_13
REMARK    5  A    between atoms: C_16  and  C_17
REMARK    6  A    between atoms: C_16  and  C_18
REMARK    7  A    between atoms: C_21  and  O_22
REMARK    8  A    between atoms: O_22  and  C_23
REMARK    9  A    between atoms: C_23  and  C_24
REMARK   10  A    between atoms: C_24  and  O_25
REMARK   11  A    between atoms: C_24  and  C_26
REMARK   12  A    between atoms: C_26  and  O_27
REMARK   13  A    between atoms: C_26  and  C_28
REMARK   14  A    between atoms: C_28  and  O_29
REMARK                            x       y       z     vdW  Elec       q    Type
REMARK                         _______ _______ _______ _____ _____    ______ ____
ROOT
ATOM      1  C   UNL     1      -2.896  13.954  22.634  0.00  0.00    +0.000 A 
ATOM      2  C   UNL     1      -2.834  12.865  23.510  0.00  0.00    +0.000 A 
ATOM      3  C   UNL     1      -2.069  11.724  23.197  0.00  0.00    +0.000 A 
ATOM      4  C   UNL     1      -1.390  11.655  21.961  0.00  0.00    +0.000 A 
ATOM      5  C   UNL     1      -0.579  10.685  21.293  0.00  0.00    +0.000 A 
ATOM      6  C   UNL     1      -0.230  11.202  20.054  0.00  0.00    +0.000 A 
ATOM      7  N   UNL     1      -0.788  12.455  19.953  0.00  0.00    +0.000 N 
ATOM      8  C   UNL     1      -0.817  13.360  18.817  0.00  0.00    +0.000 C 
ATOM      9  C   UNL     1      -1.453  12.767  21.121  0.00  0.00    +0.000 A 
ATOM     10  C   UNL     1      -2.128  13.944  21.473  0.00  0.00    +0.000 A 
ATOM     11  C   UNL     1       0.586  10.489  19.001  0.00  0.00    +0.000 C 
ATOM     12  C   UNL     1      -0.319  10.157  17.791  0.00  0.00    +0.000 C 
ATOM     13  C   UNL     1       1.820  11.347  18.627  0.00  0.00    +0.000 C 
ATOM     14  C   UNL     1       1.111   9.140  19.533  0.00  0.00    +0.000 A 
ATOM     15  C   UNL     1       1.986   8.386  18.721  0.00  0.00    +0.000 A 
ATOM     16  C   UNL     1       2.517   7.165  19.126  0.00  0.00    +0.000 A 
ATOM     17  C   UNL     1       2.152   6.641  20.358  0.00  0.00    +0.000 A 
ATOM     18  C   UNL     1       1.275   7.364  21.186  0.00  0.00    +0.000 A 
ATOM     19  C   UNL     1       0.758   8.615  20.790  0.00  0.00    +0.000 A 
ATOM     20  C   UNL     1      -0.147   9.359  21.729  0.00  0.00    +0.000 C 
ATOM     21  O   UNL     1      -0.474   8.865  22.806  0.00  0.00    +0.000 OA
ENDROOT
BRANCH   1  25
ATOM     22  C   UNL     1      -4.233  17.132  24.277  0.00  0.00    +0.000 C 
ATOM     23  N   UNL     1      -3.325  16.039  23.976  0.00  0.00    +0.000 N 
ATOM     24  C   UNL     1      -1.994  16.109  24.571  0.00  0.00    +0.000 C 
ATOM     25  C   UNL     1      -3.733  15.138  22.975  0.00  0.00    +0.000 C 
ATOM     26  O   UNL     1      -4.782  15.292  22.350  0.00  0.00    +0.000 OA
ENDBRANCH   1  25
BRANCH  16  27
ATOM     27  O   UNL     1       3.378   6.638  18.215  0.00  0.00    +0.000 OA
BRANCH  27  28
ATOM     28  C   UNL     1       3.052   5.404  17.584  0.00  0.00    +0.000 C 
BRANCH  28  29
ATOM     29  C   UNL     1       4.324   4.542  17.584  0.00  0.00    +0.000 C 
BRANCH  29  30
ATOM     30  O   UNL     1       4.071   3.267  16.959  0.00  0.00    +0.000 OA
ATOM     31  H   UNL     1       4.944   2.875  16.754  0.00  0.00    +0.000 HD
ENDBRANCH  29  30
BRANCH  29  32
ATOM     32  C   UNL     1       4.942   4.286  18.973  0.00  0.00    +0.000 C 
BRANCH  32  33
ATOM     33  O   UNL     1       6.329   3.920  18.787  0.00  0.00    +0.000 OA
ATOM     34  H   UNL     1       6.828   4.452  19.441  0.00  0.00    +0.000 HD
ENDBRANCH  32  33
BRANCH  32  35
ATOM     35  C   UNL     1       4.311   3.166  19.807  0.00  0.00    +0.000 C 
BRANCH  35  36
ATOM     36  O   UNL     1       4.981   1.932  19.525  0.00  0.00    +0.000 OA
ATOM     37  H   UNL     1       5.251   1.989  18.587  0.00  0.00    +0.000 HD
ENDBRANCH  35  36
ENDBRANCH  32  35
ENDBRANCH  29  32
ENDBRANCH  28  29
ENDBRANCH  27  28
ENDBRANCH  16  27
TORSDOF 9
ENDMDL
MODEL 8
REMARK VINA RESULT:      -7.5      1.139      1.587
REMARK  Name = 
REMARK  14 active torsions:
REMARK  status: ('A' for Active; 'I' for Inactive)
REMARK    1  A    between atoms: C_1  and  N_2
REMARK    2  A    between atoms: N_2  and  C_3
REMARK    3  A    between atoms: C_4  and  C_6
REMARK    4  A    between atoms: N_12  and  C_13
REMARK    5  A    between atoms: C_16  and  C_17
REMARK    6  A    between atoms: C_16  and  C_18
REMARK    7  A    between atoms: C_21  and  O_22
REMARK    8  A    between atoms: O_22  and  C_23
REMARK    9  A    between atoms: C_23  and  C_24
REMARK   10  A    between atoms: C_24  and  O_25
REMARK   11  A    between atoms: C_24  and  C_26
REMARK   12  A    between atoms: C_26  and  O_27
REMARK   13  A    between atoms: C_26  and  C_28
REMARK   14  A    between atoms: C_28  and  O_29
REMARK                            x       y       z     vdW  Elec       q    Type
REMARK                         _______ _______ _______ _____ _____    ______ ____
ROOT
ATOM      1  C   UNL     1      -2.315  13.185  22.595  0.00  0.00    +0.000 A 
ATOM      2  C   UNL     1      -2.103  12.087  23.435  0.00  0.00    +0.000 A 
ATOM      3  C   UNL     1      -1.310  10.998  23.022  0.00  0.00    +0.000 A 
ATOM      4  C   UNL     1      -0.756  10.991  21.724  0.00  0.00    +0.000 A 
ATOM      5  C   UNL     1       0.037  10.081  20.956  0.00  0.00    +0.000 A 
ATOM      6  C   UNL     1       0.229  10.639  19.701  0.00  0.00    +0.000 A 
ATOM      7  N   UNL     1      -0.406  11.858  19.684  0.00  0.00    +0.000 N 
ATOM      8  C   UNL     1      -0.600  12.779  18.578  0.00  0.00    +0.000 C 
ATOM      9  C   UNL     1      -0.966  12.111  20.919  0.00  0.00    +0.000 A 
ATOM     10  C   UNL     1      -1.668  13.240  21.363  0.00  0.00    +0.000 A 
ATOM     11  C   UNL     1       0.974   9.992  18.555  0.00  0.00    +0.000 C 
ATOM     12  C   UNL     1      -0.027   9.628  17.435  0.00  0.00    +0.000 C 
ATOM     13  C   UNL     1       2.114  10.927  18.081  0.00  0.00    +0.000 C 
ATOM     14  C   UNL     1       1.626   8.667  19.002  0.00  0.00    +0.000 A 
ATOM     15  C   UNL     1       2.456   7.979  18.090  0.00  0.00    +0.000 A 
ATOM     16  C   UNL     1       3.093   6.785  18.413  0.00  0.00    +0.000 A 
ATOM     17  C   UNL     1       2.884   6.220  19.663  0.00  0.00    +0.000 A 
ATOM     18  C   UNL     1       2.055   6.877  20.590  0.00  0.00    +0.000 A 
ATOM     19  C   UNL     1       1.431   8.101  20.276  0.00  0.00    +0.000 A 
ATOM     20  C   UNL     1       0.585   8.775  21.317  0.00  0.00    +0.000 C 
ATOM     21  O   UNL     1       0.396   8.245  22.410  0.00  0.00    +0.000 OA
ENDROOT
BRANCH   1  25
ATOM     22  C   UNL     1      -3.656  16.253  24.433  0.00  0.00    +0.000 C 
ATOM     23  N   UNL     1      -2.722  15.220  24.018  0.00  0.00    +0.000 N 
ATOM     24  C   UNL     1      -1.344  15.359  24.478  0.00  0.00    +0.000 C 
ATOM     25  C   UNL     1      -3.178  14.313  23.045  0.00  0.00    +0.000 C 
ATOM     26  O   UNL     1      -4.293  14.414  22.532  0.00  0.00    +0.000 OA
ENDBRANCH   1  25
BRANCH  16  27
ATOM     27  O   UNL     1       3.887   6.325  17.408  0.00  0.00    +0.000 OA
BRANCH  27  28
ATOM     28  C   UNL     1       4.097   4.923  17.277  0.00  0.00    +0.000 C 
BRANCH  28  29
ATOM     29  C   UNL     1       5.602   4.669  17.463  0.00  0.00    +0.000 C 
BRANCH  29  30
ATOM     30  O   UNL     1       5.939   4.633  18.864  0.00  0.00    +0.000 OA
ATOM     31  H   UNL     1       6.874   4.350  18.922  0.00  0.00    +0.000 HD
ENDBRANCH  29  30
BRANCH  29  32
ATOM     32  C   UNL     1       6.529   5.686  16.768  0.00  0.00    +0.000 C 
BRANCH  32  33
ATOM     33  O   UNL     1       7.493   4.949  15.981  0.00  0.00    +0.000 OA
ATOM     34  H   UNL     1       6.968   4.297  15.472  0.00  0.00    +0.000 HD
ENDBRANCH  32  33
BRANCH  32  35
ATOM     35  C   UNL     1       7.339   6.611  17.683  0.00  0.00    +0.000 C 
BRANCH  35  36
ATOM     36  O   UNL     1       7.288   7.946  17.168  0.00  0.00    +0.000 OA
ATOM     37  H   UNL     1       7.174   8.524  17.949  0.00  0.00    +0.000 HD
ENDBRANCH  35  36
ENDBRANCH  32  35
ENDBRANCH  29  32
ENDBRANCH  28  29
ENDBRANCH  27  28
ENDBRANCH  16  27
TORSDOF 9
ENDMDL
MODEL 9
REMARK VINA RESULT:      -7.5      1.083      1.584
REMARK  Name = 
REMARK  14 active torsions:
REMARK  status: ('A' for Active; 'I' for Inactive)
REMARK    1  A    between atoms: C_1  and  N_2
REMARK    2  A    between atoms: N_2  and  C_3
REMARK    3  A    between atoms: C_4  and  C_6
REMARK    4  A    between atoms: N_12  and  C_13
REMARK    5  A    between atoms: C_16  and  C_17
REMARK    6  A    between atoms: C_16  and  C_18
REMARK    7  A    between atoms: C_21  and  O_22
REMARK    8  A    between atoms: O_22  and  C_23
REMARK    9  A    between atoms: C_23  and  C_24
REMARK   10  A    between atoms: C_24  and  O_25
REMARK   11  A    between atoms: C_24  and  C_26
REMARK   12  A    between atoms: C_26  and  O_27
REMARK   13  A    between atoms: C_26  and  C_28
REMARK   14  A    between atoms: C_28  and  O_29
REMARK                            x       y       z     vdW  Elec       q    Type
REMARK                         _______ _______ _______ _____ _____    ______ ____
ROOT
ATOM      1  C   UNL     1      -1.989  13.148  22.583  0.00  0.00    +0.000 A 
ATOM      2  C   UNL     1      -1.754  12.051  23.419  0.00  0.00    +0.000 A 
ATOM      3  C   UNL     1      -0.997  10.949  22.976  0.00  0.00    +0.000 A 
ATOM      4  C   UNL     1      -0.505  10.926  21.653  0.00  0.00    +0.000 A 
ATOM      5  C   UNL     1       0.238  10.001  20.854  0.00  0.00    +0.000 A 
ATOM      6  C   UNL     1       0.380  10.549  19.588  0.00  0.00    +0.000 A 
ATOM      7  N   UNL     1      -0.237  11.778  19.594  0.00  0.00    +0.000 N 
ATOM      8  C   UNL     1      -0.469  12.696  18.493  0.00  0.00    +0.000 C 
ATOM      9  C   UNL     1      -0.736  12.045  20.853  0.00  0.00    +0.000 A 
ATOM     10  C   UNL     1      -1.399  13.187  21.322  0.00  0.00    +0.000 A 
ATOM     11  C   UNL     1       1.061   9.886  18.413  0.00  0.00    +0.000 C 
ATOM     12  C   UNL     1       0.004   9.531  17.343  0.00  0.00    +0.000 C 
ATOM     13  C   UNL     1       2.191  10.802  17.881  0.00  0.00    +0.000 C 
ATOM     14  C   UNL     1       1.714   8.554  18.837  0.00  0.00    +0.000 A 
ATOM     15  C   UNL     1       2.490   7.849  17.891  0.00  0.00    +0.000 A 
ATOM     16  C   UNL     1       3.124   6.647  18.191  0.00  0.00    +0.000 A 
ATOM     17  C   UNL     1       2.965   6.091  19.452  0.00  0.00    +0.000 A 
ATOM     18  C   UNL     1       2.190   6.765  20.413  0.00  0.00    +0.000 A 
ATOM     19  C   UNL     1       1.570   7.997  20.122  0.00  0.00    +0.000 A 
ATOM     20  C   UNL     1       0.783   8.689  21.197  0.00  0.00    +0.000 C 
ATOM     21  O   UNL     1       0.638   8.167  22.300  0.00  0.00    +0.000 OA
ENDROOT
BRANCH   1  25
ATOM     22  C   UNL     1      -4.826  15.246  24.042  0.00  0.00    +0.000 C 
ATOM     23  N   UNL     1      -4.072  14.068  23.654  0.00  0.00    +0.000 N 
ATOM     24  C   UNL     1      -4.585  12.781  24.111  0.00  0.00    +0.000 C 
ATOM     25  C   UNL     1      -2.814  14.291  23.066  0.00  0.00    +0.000 C 
ATOM     26  O   UNL     1      -2.351  15.424  22.930  0.00  0.00    +0.000 OA
ENDBRANCH   1  25
BRANCH  16  27
ATOM     27  O   UNL     1       3.863   6.170  17.153  0.00  0.00    +0.000 OA
BRANCH  27  28
ATOM     28  C   UNL     1       4.550   4.932  17.302  0.00  0.00    +0.000 C 
BRANCH  28  29
ATOM     29  C   UNL     1       6.006   5.163  16.867  0.00  0.00    +0.000 C 
BRANCH  29  30
ATOM     30  O   UNL     1       6.783   3.962  17.043  0.00  0.00    +0.000 OA
ATOM     31  H   UNL     1       6.603   3.393  16.268  0.00  0.00    +0.000 HD
ENDBRANCH  29  30
BRANCH  29  32
ATOM     32  C   UNL     1       6.729   6.318  17.588  0.00  0.00    +0.000 C 
BRANCH  32  33
ATOM     33  O   UNL     1       7.652   6.922  16.653  0.00  0.00    +0.000 OA
ATOM     34  H   UNL     1       8.241   6.194  16.363  0.00  0.00    +0.000 HD
ENDBRANCH  32  33
BRANCH  32  35
ATOM     35  C   UNL     1       7.553   5.944  18.824  0.00  0.00    +0.000 C 
BRANCH  35  36
ATOM     36  O   UNL     1       6.686   5.393  19.822  0.00  0.00    +0.000 OA
ATOM     37  H   UNL     1       5.779   5.626  19.539  0.00  0.00    +0.000 HD
ENDBRANCH  35  36
ENDBRANCH  32  35
ENDBRANCH  29  32
ENDBRANCH  28  29
ENDBRANCH  27  28
ENDBRANCH  16  27
TORSDOF 9
ENDMDL
