MODEL 1
REMARK VINA RESULT:      -9.1      0.000      0.000
REMARK  Name = 
REMARK  7 active torsions:
REMARK  status: ('A' for Active; 'I' for Inactive)
REMARK    1  A    between atoms: C_4  and  C_5
REMARK    2  A    between atoms: C_6  and  C_7
REMARK    3  A    between atoms: C_17  and  N_18
REMARK    4  A    between atoms: C_21  and  N_22
REMARK    5  A    between atoms: N_22  and  C_23
REMARK    6  A    between atoms: C_23  and  C_24
REMARK    7  A    between atoms: C_24  and  C_25
REMARK                            x       y       z     vdW  Elec       q    Type
REMARK                         _______ _______ _______ _____ _____    ______ ____
ROOT
ATOM      1  O   UNL     1       3.562   2.098  21.015  0.00  0.00    +0.000 OA
ATOM      2  C   UNL     1       3.496   3.115  20.331  0.00  0.00    +0.000 A 
ATOM      3  C   UNL     1       4.142   3.170  19.013  0.00  0.00    +0.000 A 
ATOM      4  C   UNL     1       4.069   4.255  18.235  0.00  0.00    +0.000 A 
ATOM      5  C   UNL     1       3.306   5.403  18.662  0.00  0.00    +0.000 A 
ATOM      6  C   UNL     1       3.148   6.524  17.852  0.00  0.00    +0.000 A 
ATOM      7  C   UNL     1       2.439   7.612  18.331  0.00  0.00    +0.000 A 
ATOM      8  C   UNL     1       1.901   7.609  19.622  0.00  0.00    +0.000 A 
ATOM      9  C   UNL     1       2.026   6.468  20.414  0.00  0.00    +0.000 A 
ATOM     10  C   UNL     1       2.729   5.373  19.921  0.00  0.00    +0.000 A 
ATOM     11  O   UNL     1       2.839   4.256  20.760  0.00  0.00    +0.000 OA
ENDROOT
BRANCH   8  12
ATOM     12  N   UNL     1       1.328   8.752  20.135  0.00  0.00    +0.000 N 
ATOM     13  C   UNL     1       1.201   8.898  21.580  0.00  0.00    +0.000 C 
ATOM     14  C   UNL     1      -0.210   9.377  21.867  0.00  0.00    +0.000 C 
ATOM     15  C   UNL     1      -0.520  10.668  21.101  0.00  0.00    +0.000 C 
ATOM     16  C   UNL     1      -0.290  10.458  19.591  0.00  0.00    +0.000 C 
ATOM     17  C   UNL     1       1.109   9.927  19.302  0.00  0.00    +0.000 C 
BRANCH  15  18
ATOM     18  N   UNL     1       0.261  11.787  21.665  0.00  0.00    +0.000 NA
ATOM     19  H   UNL     1       1.220  11.758  21.319  0.00  0.00    +0.000 HD
BRANCH  18  20
ATOM     20  C   UNL     1      -0.297  13.105  21.346  0.00  0.00    +0.000 C 
BRANCH  20  21
ATOM     21  C   UNL     1      -1.822  13.073  21.218  0.00  0.00    +0.000 C 
BRANCH  21  22
ATOM     22  C   UNL     1      -2.485  13.329  22.540  0.00  0.00    +0.000 A 
ATOM     23  C   UNL     1      -2.232  14.517  23.239  0.00  0.00    +0.000 A 
ATOM     24  C   UNL     1      -2.846  14.749  24.467  0.00  0.00    +0.000 A 
ATOM     25  C   UNL     1      -3.705  13.795  25.004  0.00  0.00    +0.000 A 
ATOM     26  C   UNL     1      -3.951  12.603  24.316  0.00  0.00    +0.000 A 
ATOM     27  C   UNL     1      -3.337  12.369  23.085  0.00  0.00    +0.000 A 
ENDBRANCH  21  22
ENDBRANCH  20  21
ENDBRANCH  18  20
ENDBRANCH  15  18
ENDBRANCH   8  12
BRANCH   4  28
ATOM     28  C   UNL     1       4.773   4.249  16.888  0.00  0.00    +0.000 C 
ATOM     29  C   UNL     1       5.377   4.245  15.733  0.00  0.00    +0.000 C 
BRANCH  29  30
ATOM     30  C   UNL     1       6.046   4.194  14.469  0.00  0.00    +0.000 A 
ATOM     31  C   UNL     1       7.059   5.111  14.174  0.00  0.00    +0.000 A 
ATOM     32  C   UNL     1       7.681   5.089  12.923  0.00  0.00    +0.000 A 
ATOM     33  C   UNL     1       7.290   4.153  11.967  0.00  0.00    +0.000 A 
ATOM     34  C   UNL     1       6.285   3.233  12.269  0.00  0.00    +0.000 A 
ATOM     35 CL   UNL     1       5.799   2.083  11.085  0.00  0.00    +0.000 Cl
ATOM     36  C   UNL     1       5.663   3.246  13.518  0.00  0.00    +0.000 A 
ENDBRANCH  29  30
ENDBRANCH   4  28
TORSDOF 7
ENDMDL
MODEL 2
REMARK VINA RESULT:      -9.0      1.089      1.606
REMARK  Name = 
REMARK  7 active torsions:
REMARK  status: ('A' for Active; 'I' for Inactive)
REMARK    1  A    between atoms: C_4  and  C_5
REMARK    2  A    between atoms: C_6  and  C_7
REMARK    3  A    between atoms: C_17  and  N_18
REMARK    4  A    between atoms: C_21  and  N_22
REMARK    5  A    between atoms: N_22  and  C_23
REMARK    6  A    between atoms: C_23  and  C_24
REMARK    7  A    between atoms: C_24  and  C_25
REMARK                            x       y       z     vdW  Elec       q    Type
REMARK                         _______ _______ _______ _____ _____    ______ ____
ROOT
ATOM      1  O   UNL     1       3.090   2.191  21.126  0.00  0.00    +0.000 OA
ATOM      2  C   UNL     1       3.081   3.226  20.466  0.00  0.00    +0.000 A 
ATOM      3  C   UNL     1       3.743   3.279  19.156  0.00  0.00    +0.000 A 
ATOM      4  C   UNL     1       3.731   4.385  18.403  0.00  0.00    +0.000 A 
ATOM      5  C   UNL     1       3.019   5.559  18.850  0.00  0.00    +0.000 A 
ATOM      6  C   UNL     1       2.925   6.704  18.065  0.00  0.00    +0.000 A 
ATOM      7  C   UNL     1       2.264   7.814  18.563  0.00  0.00    +0.000 A 
ATOM      8  C   UNL     1       1.712   7.807  19.848  0.00  0.00    +0.000 A 
ATOM      9  C   UNL     1       1.773   6.643  20.613  0.00  0.00    +0.000 A 
ATOM     10  C   UNL     1       2.429   5.527  20.101  0.00  0.00    +0.000 A 
ATOM     11  O   UNL     1       2.475   4.387  20.915  0.00  0.00    +0.000 OA
ENDROOT
BRANCH   8  12
ATOM     12  N   UNL     1       1.190   8.965  20.382  0.00  0.00    +0.000 N 
ATOM     13  C   UNL     1       1.225   9.161  21.827  0.00  0.00    +0.000 C 
ATOM     14  C   UNL     1      -0.149   9.641  22.254  0.00  0.00    +0.000 C 
ATOM     15  C   UNL     1      -0.556  10.904  21.484  0.00  0.00    +0.000 C 
ATOM     16  C   UNL     1      -0.495  10.642  19.966  0.00  0.00    +0.000 C 
ATOM     17  C   UNL     1       0.868  10.107  19.539  0.00  0.00    +0.000 C 
BRANCH  15  18
ATOM     18  N   UNL     1       0.273  12.046  21.917  0.00  0.00    +0.000 NA
ATOM     19  H   UNL     1       1.242  11.910  21.626  0.00  0.00    +0.000 HD
BRANCH  18  20
ATOM     20  C   UNL     1      -0.185  13.333  21.384  0.00  0.00    +0.000 C 
BRANCH  20  21
ATOM     21  C   UNL     1      -1.682  13.554  21.614  0.00  0.00    +0.000 C 
BRANCH  21  22
ATOM     22  C   UNL     1      -1.948  14.106  22.984  0.00  0.00    +0.000 A 
ATOM     23  C   UNL     1      -3.183  13.885  23.606  0.00  0.00    +0.000 A 
ATOM     24  C   UNL     1      -3.427  14.401  24.876  0.00  0.00    +0.000 A 
ATOM     25  C   UNL     1      -2.446  15.145  25.523  0.00  0.00    +0.000 A 
ATOM     26  C   UNL     1      -1.215  15.378  24.901  0.00  0.00    +0.000 A 
ATOM     27  C   UNL     1      -0.969  14.861  23.629  0.00  0.00    +0.000 A 
ENDBRANCH  21  22
ENDBRANCH  20  21
ENDBRANCH  18  20
ENDBRANCH  15  18
ENDBRANCH   8  12
BRANCH   4  28
ATOM     28  C   UNL     1       4.448   4.376  17.063  0.00  0.00    +0.000 C 
ATOM     29  C   UNL     1       5.064   4.368  15.914  0.00  0.00    +0.000 C 
BRANCH  29  30
ATOM     30  C   UNL     1       5.716   4.322  14.642  0.00  0.00    +0.000 A 
ATOM     31  C   UNL     1       5.223   3.493  13.630  0.00  0.00    +0.000 A 
ATOM     32  C   UNL     1       5.886   3.414  12.403  0.00  0.00    +0.000 A 
ATOM     33  C   UNL     1       7.043   4.163  12.187  0.00  0.00    +0.000 A 
ATOM     34  C   UNL     1       7.526   4.996  13.195  0.00  0.00    +0.000 A 
ATOM     35 CL   UNL     1       8.957   5.914  12.930  0.00  0.00    +0.000 Cl
ATOM     36  C   UNL     1       6.866   5.084  14.421  0.00  0.00    +0.000 A 
ENDBRANCH  29  30
ENDBRANCH   4  28
TORSDOF 7
ENDMDL
MODEL 3
REMARK VINA RESULT:      -9.0      2.164      3.599
REMARK  Name = 
REMARK  7 active torsions:
REMARK  status: ('A' for Active; 'I' for Inactive)
REMARK    1  A    between atoms: C_4  and  C_5
REMARK    2  A    between atoms: C_6  and  C_7
REMARK    3  A    between atoms: C_17  and  N_18
REMARK    4  A    between atoms: C_21  and  N_22
REMARK    5  A    between atoms: N_22  and  C_23
REMARK    6  A    between atoms: C_23  and  C_24
REMARK    7  A    between atoms: C_24  and  C_25
REMARK                            x       y       z     vdW  Elec       q    Type
REMARK                         _______ _______ _______ _____ _____    ______ ____
ROOT
ATOM      1  O   UNL     1       3.293   2.125  20.973  0.00  0.00    +0.000 OA
ATOM      2  C   UNL     1       3.258   3.163  20.319  0.00  0.00    +0.000 A 
ATOM      3  C   UNL     1       3.900   3.234  19.000  0.00  0.00    +0.000 A 
ATOM      4  C   UNL     1       3.860   4.343  18.253  0.00  0.00    +0.000 A 
ATOM      5  C   UNL     1       3.138   5.503  18.717  0.00  0.00    +0.000 A 
ATOM      6  C   UNL     1       3.014   6.651  17.940  0.00  0.00    +0.000 A 
ATOM      7  C   UNL     1       2.344   7.749  18.454  0.00  0.00    +0.000 A 
ATOM      8  C   UNL     1       1.812   7.726  19.747  0.00  0.00    +0.000 A 
ATOM      9  C   UNL     1       1.902   6.560  20.505  0.00  0.00    +0.000 A 
ATOM     10  C   UNL     1       2.566   5.457  19.977  0.00  0.00    +0.000 A 
ATOM     11  O   UNL     1       2.642   4.313  20.783  0.00  0.00    +0.000 OA
ENDROOT
BRANCH   8  12
ATOM     12  N   UNL     1       1.280   8.873  20.295  0.00  0.00    +0.000 N 
ATOM     13  C   UNL     1       1.383   9.087  21.734  0.00  0.00    +0.000 C 
ATOM     14  C   UNL     1       0.017   9.529  22.226  0.00  0.00    +0.000 C 
ATOM     15  C   UNL     1      -0.469  10.769  21.465  0.00  0.00    +0.000 C 
ATOM     16  C   UNL     1      -0.477  10.491  19.948  0.00  0.00    +0.000 C 
ATOM     17  C   UNL     1       0.879   9.995  19.458  0.00  0.00    +0.000 C 
BRANCH  15  18
ATOM     18  N   UNL     1       0.343  11.941  21.844  0.00  0.00    +0.000 NA
ATOM     19  H   UNL     1       1.290  11.651  22.091  0.00  0.00    +0.000 HD
BRANCH  18  20
ATOM     20  C   UNL     1       0.441  12.949  20.782  0.00  0.00    +0.000 C 
BRANCH  20  21
ATOM     21  C   UNL     1       1.374  14.101  21.162  0.00  0.00    +0.000 C 
BRANCH  21  22
ATOM     22  C   UNL     1       2.017  14.705  19.949  0.00  0.00    +0.000 A 
ATOM     23  C   UNL     1       1.619  15.970  19.494  0.00  0.00    +0.000 A 
ATOM     24  C   UNL     1       2.216  16.525  18.365  0.00  0.00    +0.000 A 
ATOM     25  C   UNL     1       3.201  15.819  17.682  0.00  0.00    +0.000 A 
ATOM     26  C   UNL     1       3.592  14.552  18.126  0.00  0.00    +0.000 A 
ATOM     27  C   UNL     1       2.997  13.994  19.256  0.00  0.00    +0.000 A 
ENDBRANCH  21  22
ENDBRANCH  20  21
ENDBRANCH  18  20
ENDBRANCH  15  18
ENDBRANCH   8  12
BRANCH   4  28
ATOM     28  C   UNL     1       4.557   4.352  16.903  0.00  0.00    +0.000 C 
ATOM     29  C   UNL     1       5.156   4.360  15.745  0.00  0.00    +0.000 C 
BRANCH  29  30
ATOM     30  C   UNL     1       5.822   4.325  14.479  0.00  0.00    +0.000 A 
ATOM     31  C   UNL     1       5.364   3.472  13.469  0.00  0.00    +0.000 A 
ATOM     32  C   UNL     1       6.041   3.406  12.249  0.00  0.00    +0.000 A 
ATOM     33  C   UNL     1       7.176   4.189  12.038  0.00  0.00    +0.000 A 
ATOM     34  C   UNL     1       7.623   5.045  13.044  0.00  0.00    +0.000 A 
ATOM     35 CL   UNL     1       9.026   6.005  12.784  0.00  0.00    +0.000 Cl
ATOM     36  C   UNL     1       6.949   5.121  14.263  0.00  0.00    +0.000 A 
ENDBRANCH  29  30
ENDBRANCH   4  28
TORSDOF 7
ENDMDL
MODEL 4
REMARK VINA RESULT:      -8.8      0.866      1.429
REMARK  Name = 
REMARK  7 active torsions:
REMARK  status: ('A' for Active; 'I' for Inactive)
REMARK    1  A    between atoms: C_4  and  C_5
REMARK    2  A    between atoms: C_6  and  C_7
REMARK    3  A    between atoms: C_17  and  N_18
REMARK    4  A    between atoms: C_21  and  N_22
REMARK    5  A    between atoms: N_22  and  C_23
REMARK    6  A    between atoms: C_23  and  C_24
REMARK    7  A    between atoms: C_24  and  C_25
REMARK                            x       y       z     vdW  Elec       q    Type
REMARK                         _______ _______ _______ _____ _____    ______ ____
ROOT
ATOM      1  O   UNL     1       3.488   2.335  21.234  0.00  0.00    +0.000 OA
ATOM      2  C   UNL     1       3.408   3.313  20.496  0.00  0.00    +0.000 A 
ATOM      3  C   UNL     1       4.084   3.319  19.192  0.00  0.00    +0.000 A 
ATOM      4  C   UNL     1       3.997   4.360  18.357  0.00  0.00    +0.000 A 
ATOM      5  C   UNL     1       3.189   5.505  18.706  0.00  0.00    +0.000 A 
ATOM      6  C   UNL     1       3.018   6.576  17.835  0.00  0.00    +0.000 A 
ATOM      7  C   UNL     1       2.265   7.666  18.241  0.00  0.00    +0.000 A 
ATOM      8  C   UNL     1       1.696   7.712  19.518  0.00  0.00    +0.000 A 
ATOM      9  C   UNL     1       1.836   6.618  20.370  0.00  0.00    +0.000 A 
ATOM     10  C   UNL     1       2.584   5.522  19.951  0.00  0.00    +0.000 A 
ATOM     11  O   UNL     1       2.707   4.453  20.849  0.00  0.00    +0.000 OA
ENDROOT
BRANCH   8  12
ATOM     12  N   UNL     1       1.077   8.862  19.957  0.00  0.00    +0.000 N 
ATOM     13  C   UNL     1       0.799   9.929  19.002  0.00  0.00    +0.000 C 
ATOM     14  C   UNL     1       1.245  11.233  19.637  0.00  0.00    +0.000 C 
ATOM     15  C   UNL     1       0.566  11.447  20.995  0.00  0.00    +0.000 C 
ATOM     16  C   UNL     1       0.841  10.245  21.920  0.00  0.00    +0.000 C 
ATOM     17  C   UNL     1       0.444   8.926  21.266  0.00  0.00    +0.000 C 
BRANCH  15  18
ATOM     18  N   UNL     1      -0.871  11.722  20.800  0.00  0.00    +0.000 NA
ATOM     19  H   UNL     1      -1.426  10.905  21.057  0.00  0.00    +0.000 HD
BRANCH  18  20
ATOM     20  C   UNL     1      -1.356  12.864  21.583  0.00  0.00    +0.000 C 
BRANCH  20  21
ATOM     21  C   UNL     1      -2.765  13.293  21.169  0.00  0.00    +0.000 C 
BRANCH  21  22
ATOM     22  C   UNL     1      -3.755  13.046  22.269  0.00  0.00    +0.000 A 
ATOM     23  C   UNL     1      -5.122  13.267  22.051  0.00  0.00    +0.000 A 
ATOM     24  C   UNL     1      -6.037  13.040  23.076  0.00  0.00    +0.000 A 
ATOM     25  C   UNL     1      -5.593  12.603  24.320  0.00  0.00    +0.000 A 
ATOM     26  C   UNL     1      -4.229  12.393  24.544  0.00  0.00    +0.000 A 
ATOM     27  C   UNL     1      -3.310  12.619  23.520  0.00  0.00    +0.000 A 
ENDBRANCH  21  22
ENDBRANCH  20  21
ENDBRANCH  18  20
ENDBRANCH  15  18
ENDBRANCH   8  12
BRANCH   4  28
ATOM     28  C   UNL     1       4.733   4.307  17.029  0.00  0.00    +0.000 C 
ATOM     29  C   UNL     1       5.365   4.261  15.889  0.00  0.00    +0.000 C 
BRANCH  29  30
ATOM     30  C   UNL     1       6.023   4.234  14.619  0.00  0.00    +0.000 A 
ATOM     31  C   UNL     1       7.059   5.132  14.347  0.00  0.00    +0.000 A 
ATOM     32  C   UNL     1       7.673   5.135  13.091  0.00  0.00    +0.000 A 
ATOM     33  C   UNL     1       7.249   4.242  12.107  0.00  0.00    +0.000 A 
ATOM     34  C   UNL     1       6.221   3.341  12.386  0.00  0.00    +0.000 A 
ATOM     35 CL   UNL     1       5.695   2.245  11.169  0.00  0.00    +0.000 Cl
ATOM     36  C   UNL     1       5.608   3.329  13.639  0.00  0.00    +0.000 A 
ENDBRANCH  29  30
ENDBRANCH   4  28
TORSDOF 7
ENDMDL
MODEL 5
REMARK VINA RESULT:      -8.6      1.362      1.770
REMARK  Name = 
REMARK  7 active torsions:
REMARK  status: ('A' for Active; 'I' for Inactive)
REMARK    1  A    between atoms: C_4  and  C_5
REMARK    2  A    between atoms: C_6  and  C_7
REMARK    3  A    between atoms: C_17  and  N_18
REMARK    4  A    between atoms: C_21  and  N_22
REMARK    5  A    between atoms: N_22  and  C_23
REMARK    6  A    between atoms: C_23  and  C_24
REMARK    7  A    between atoms: C_24  and  C_25
REMARK                            x       y       z     vdW  Elec       q    Type
REMARK                         _______ _______ _______ _____ _____    ______ ____
ROOT
ATOM      1  O   UNL     1       3.137   2.318  21.077  0.00  0.00    +0.000 OA
ATOM      2  C   UNL     1       3.097   3.332  20.388  0.00  0.00    +0.000 A 
ATOM      3  C   UNL     1       3.733   3.359  19.063  0.00  0.00    +0.000 A 
ATOM      4  C   UNL     1       3.687   4.441  18.280  0.00  0.00    +0.000 A 
ATOM      5  C   UNL     1       2.964   5.616  18.706  0.00  0.00    +0.000 A 
ATOM      6  C   UNL     1       2.835   6.736  17.891  0.00  0.00    +0.000 A 
ATOM      7  C   UNL     1       2.165   7.849  18.370  0.00  0.00    +0.000 A 
ATOM      8  C   UNL     1       1.639   7.871  19.666  0.00  0.00    +0.000 A 
ATOM      9  C   UNL     1       1.735   6.731  20.463  0.00  0.00    +0.000 A 
ATOM     10  C   UNL     1       2.399   5.611  19.970  0.00  0.00    +0.000 A 
ATOM     11  O   UNL     1       2.480   4.496  20.815  0.00  0.00    +0.000 OA
ENDROOT
BRANCH   8  12
ATOM     12  N   UNL     1       1.108   9.035  20.177  0.00  0.00    +0.000 N 
ATOM     13  C   UNL     1       1.094   9.236  21.621  0.00  0.00    +0.000 C 
ATOM     14  C   UNL     1      -0.291   9.730  21.997  0.00  0.00    +0.000 C 
ATOM     15  C   UNL     1      -0.660  10.992  21.209  0.00  0.00    +0.000 C 
ATOM     16  C   UNL     1      -0.548  10.723  19.695  0.00  0.00    +0.000 C 
ATOM     17  C   UNL     1       0.825  10.176  19.319  0.00  0.00    +0.000 C 
BRANCH  15  18
ATOM     18  N   UNL     1       0.162  12.129  21.667  0.00  0.00    +0.000 NA
ATOM     19  H   UNL     1       0.508  12.660  20.867  0.00  0.00    +0.000 HD
BRANCH  18  20
ATOM     20  C   UNL     1      -0.561  13.054  22.545  0.00  0.00    +0.000 C 
BRANCH  20  21
ATOM     21  C   UNL     1      -1.999  12.599  22.806  0.00  0.00    +0.000 C 
BRANCH  21  22
ATOM     22  C   UNL     1      -2.984  13.671  22.445  0.00  0.00    +0.000 A 
ATOM     23  C   UNL     1      -3.849  14.192  23.417  0.00  0.00    +0.000 A 
ATOM     24  C   UNL     1      -4.764  15.184  23.078  0.00  0.00    +0.000 A 
ATOM     25  C   UNL     1      -4.826  15.652  21.769  0.00  0.00    +0.000 A 
ATOM     26  C   UNL     1      -3.973  15.127  20.793  0.00  0.00    +0.000 A 
ATOM     27  C   UNL     1      -3.055  14.134  21.132  0.00  0.00    +0.000 A 
ENDBRANCH  21  22
ENDBRANCH  20  21
ENDBRANCH  18  20
ENDBRANCH  15  18
ENDBRANCH   8  12
BRANCH   4  28
ATOM     28  C   UNL     1       4.378   4.405  16.926  0.00  0.00    +0.000 C 
ATOM     29  C   UNL     1       4.970   4.375  15.765  0.00  0.00    +0.000 C 
BRANCH  29  30
ATOM     30  C   UNL     1       5.659   4.356  14.512  0.00  0.00    +0.000 A 
ATOM     31  C   UNL     1       5.167   3.588  13.452  0.00  0.00    +0.000 A 
ATOM     32  C   UNL     1       5.863   3.535  12.242  0.00  0.00    +0.000 A 
ATOM     33  C   UNL     1       7.053   4.247  12.092  0.00  0.00    +0.000 A 
ATOM     34  C   UNL     1       7.535   5.020  13.148  0.00  0.00    +0.000 A 
ATOM     35 CL   UNL     1       9.006   5.892  12.962  0.00  0.00    +0.000 Cl
ATOM     36  C   UNL     1       6.842   5.082  14.357  0.00  0.00    +0.000 A 
ENDBRANCH  29  30
ENDBRANCH   4  28
TORSDOF 7
ENDMDL
MODEL 6
REMARK VINA RESULT:      -8.6      1.790      2.991
REMARK  Name = 
REMARK  7 active torsions:
REMARK  status: ('A' for Active; 'I' for Inactive)
REMARK    1  A    between atoms: C_4  and  C_5
REMARK    2  A    between atoms: C_6  and  C_7
REMARK    3  A    between atoms: C_17  and  N_18
REMARK    4  A    between atoms: C_21  and  N_22
REMARK    5  A    between atoms: N_22  and  C_23
REMARK    6  A    between atoms: C_23  and  C_24
REMARK    7  A    between atoms: C_24  and  C_25
REMARK                            x       y       z     vdW  Elec       q    Type
REMARK                         _______ _______ _______ _____ _____    ______ ____
ROOT
ATOM      1  O   UNL     1       3.519   2.088  20.995  0.00  0.00    +0.000 OA
ATOM      2  C   UNL     1       3.440   3.121  20.337  0.00  0.00    +0.000 A 
ATOM      3  C   UNL     1       4.059   3.207  19.008  0.00  0.00    +0.000 A 
ATOM      4  C   UNL     1       3.970   4.310  18.257  0.00  0.00    +0.000 A 
ATOM      5  C   UNL     1       3.215   5.448  18.726  0.00  0.00    +0.000 A 
ATOM      6  C   UNL     1       3.041   6.587  17.946  0.00  0.00    +0.000 A 
ATOM      7  C   UNL     1       2.341   7.663  18.465  0.00  0.00    +0.000 A 
ATOM      8  C   UNL     1       1.829   7.629  19.766  0.00  0.00    +0.000 A 
ATOM      9  C   UNL     1       1.970   6.470  20.528  0.00  0.00    +0.000 A 
ATOM     10  C   UNL     1       2.664   5.388  19.995  0.00  0.00    +0.000 A 
ATOM     11  O   UNL     1       2.791   4.251  20.805  0.00  0.00    +0.000 OA
ENDROOT
BRANCH   8  12
ATOM     12  N   UNL     1       1.267   8.760  20.317  0.00  0.00    +0.000 N 
ATOM     13  C   UNL     1       1.316   8.947  21.763  0.00  0.00    +0.000 C 
ATOM     14  C   UNL     1      -0.071   9.366  22.214  0.00  0.00    +0.000 C 
ATOM     15  C   UNL     1      -0.542  10.615  21.460  0.00  0.00    +0.000 C 
ATOM     16  C   UNL     1      -0.494  10.367  19.939  0.00  0.00    +0.000 C 
ATOM     17  C   UNL     1       0.884   9.894  19.488  0.00  0.00    +0.000 C 
BRANCH  15  18
ATOM     18  N   UNL     1       0.244  11.788  21.890  0.00  0.00    +0.000 NA
ATOM     19  H   UNL     1       1.066  11.899  21.296  0.00  0.00    +0.000 HD
BRANCH  18  20
ATOM     20  C   UNL     1      -0.515  13.042  21.852  0.00  0.00    +0.000 C 
BRANCH  20  21
ATOM     21  C   UNL     1      -0.457  13.713  20.478  0.00  0.00    +0.000 C 
BRANCH  21  22
ATOM     22  C   UNL     1       0.611  14.766  20.430  0.00  0.00    +0.000 A 
ATOM     23  C   UNL     1       1.001  15.320  19.203  0.00  0.00    +0.000 A 
ATOM     24  C   UNL     1       1.996  16.294  19.162  0.00  0.00    +0.000 A 
ATOM     25  C   UNL     1       2.609  16.710  20.340  0.00  0.00    +0.000 A 
ATOM     26  C   UNL     1       2.231  16.151  21.564  0.00  0.00    +0.000 A 
ATOM     27  C   UNL     1       1.234  15.176  21.608  0.00  0.00    +0.000 A 
ENDBRANCH  21  22
ENDBRANCH  20  21
ENDBRANCH  18  20
ENDBRANCH  15  18
ENDBRANCH   8  12
BRANCH   4  28
ATOM     28  C   UNL     1       4.647   4.337  16.897  0.00  0.00    +0.000 C 
ATOM     29  C   UNL     1       5.228   4.360  15.730  0.00  0.00    +0.000 C 
BRANCH  29  30
ATOM     30  C   UNL     1       5.871   4.339  14.452  0.00  0.00    +0.000 A 
ATOM     31  C   UNL     1       5.375   3.525  13.430  0.00  0.00    +0.000 A 
ATOM     32  C   UNL     1       6.030   3.472  12.196  0.00  0.00    +0.000 A 
ATOM     33  C   UNL     1       7.180   4.231  11.985  0.00  0.00    +0.000 A 
ATOM     34  C   UNL     1       7.666   5.050  13.005  0.00  0.00    +0.000 A 
ATOM     35 CL   UNL     1       9.089   5.981  12.745  0.00  0.00    +0.000 Cl
ATOM     36  C   UNL     1       7.015   5.112  14.237  0.00  0.00    +0.000 A 
ENDBRANCH  29  30
ENDBRANCH   4  28
TORSDOF 7
ENDMDL
MODEL 7
REMARK VINA RESULT:      -8.6      2.733      4.245
REMARK  Name = 
REMARK  7 active torsions:
REMARK  status: ('A' for Active; 'I' for Inactive)
REMARK    1  A    between atoms: C_4  and  C_5
REMARK    2  A    between atoms: C_6  and  C_7
REMARK    3  A    between atoms: C_17  and  N_18
REMARK    4  A    between atoms: C_21  and  N_22
REMARK    5  A    between atoms: N_22  and  C_23
REMARK    6  A    between atoms: C_23  and  C_24
REMARK    7  A    between atoms: C_24  and  C_25
REMARK                            x       y       z     vdW  Elec       q    Type
REMARK                         _______ _______ _______ _____ _____    ______ ____
ROOT
ATOM      1  O   UNL     1       2.093   4.302  21.538  0.00  0.00    +0.000 OA
ATOM      2  C   UNL     1       2.255   5.155  20.671  0.00  0.00    +0.000 A 
ATOM      3  C   UNL     1       3.065   4.862  19.481  0.00  0.00    +0.000 A 
ATOM      4  C   UNL     1       3.241   5.763  18.508  0.00  0.00    +0.000 A 
ATOM      5  C   UNL     1       2.594   7.051  18.586  0.00  0.00    +0.000 A 
ATOM      6  C   UNL     1       2.696   7.989  17.563  0.00  0.00    +0.000 A 
ATOM      7  C   UNL     1       2.087   9.224  17.712  0.00  0.00    +0.000 A 
ATOM      8  C   UNL     1       1.394   9.548  18.883  0.00  0.00    +0.000 A 
ATOM      9  C   UNL     1       1.260   8.591  19.887  0.00  0.00    +0.000 A 
ATOM     10  C   UNL     1       1.864   7.347  19.725  0.00  0.00    +0.000 A 
ATOM     11  O   UNL     1       1.711   6.424  20.768  0.00  0.00    +0.000 OA
ENDROOT
BRANCH   8  12
ATOM     12  N   UNL     1       0.924  10.829  19.074  0.00  0.00    +0.000 N 
ATOM     13  C   UNL     1       1.866  11.942  19.061  0.00  0.00    +0.000 C 
ATOM     14  C   UNL     1       1.548  12.819  20.258  0.00  0.00    +0.000 C 
ATOM     15  C   UNL     1       0.082  13.269  20.239  0.00  0.00    +0.000 C 
ATOM     16  C   UNL     1      -0.849  12.042  20.176  0.00  0.00    +0.000 C 
ATOM     17  C   UNL     1      -0.499  11.129  19.005  0.00  0.00    +0.000 C 
BRANCH  15  18
ATOM     18  N   UNL     1      -0.135  14.230  19.139  0.00  0.00    +0.000 NA
ATOM     19  H   UNL     1      -1.075  14.122  18.757  0.00  0.00    +0.000 HD
BRANCH  18  20
ATOM     20  C   UNL     1       0.033  15.628  19.547  0.00  0.00    +0.000 C 
BRANCH  20  21
ATOM     21  C   UNL     1       0.993  16.388  18.629  0.00  0.00    +0.000 C 
BRANCH  21  22
ATOM     22  C   UNL     1       2.412  15.949  18.841  0.00  0.00    +0.000 A 
ATOM     23  C   UNL     1       3.086  15.232  17.843  0.00  0.00    +0.000 A 
ATOM     24  C   UNL     1       4.402  14.823  18.045  0.00  0.00    +0.000 A 
ATOM     25  C   UNL     1       5.044  15.119  19.243  0.00  0.00    +0.000 A 
ATOM     26  C   UNL     1       4.371  15.823  20.246  0.00  0.00    +0.000 A 
ATOM     27  C   UNL     1       3.054  16.234  20.046  0.00  0.00    +0.000 A 
ENDBRANCH  21  22
ENDBRANCH  20  21
ENDBRANCH  18  20
ENDBRANCH  15  18
ENDBRANCH   8  12
BRANCH   4  28
ATOM     28  C   UNL     1       4.102   5.400  17.310  0.00  0.00    +0.000 C 
ATOM     29  C   UNL     1       4.841   5.088  16.282  0.00  0.00    +0.000 C 
BRANCH  29  30
ATOM     30  C   UNL     1       5.628   4.775  15.129  0.00  0.00    +0.000 A 
ATOM     31  C   UNL     1       6.915   5.304  14.993  0.00  0.00    +0.000 A 
ATOM     32  C   UNL     1       7.666   5.034  13.846  0.00  0.00    +0.000 A 
ATOM     33  C   UNL     1       7.130   4.237  12.834  0.00  0.00    +0.000 A 
ATOM     34  C   UNL     1       5.849   3.704  12.979  0.00  0.00    +0.000 A 
ATOM     35 CL   UNL     1       5.188   2.727  11.726  0.00  0.00    +0.000 Cl
ATOM     36  C   UNL     1       5.096   3.965  14.123  0.00  0.00    +0.000 A 
ENDBRANCH  29  30
ENDBRANCH   4  28
TORSDOF 7
ENDMDL
MODEL 8
REMARK VINA RESULT:      -8.5      2.580      3.707
REMARK  Name = 
REMARK  7 active torsions:
REMARK  status: ('A' for Active; 'I' for Inactive)
REMARK    1  A    between atoms: C_4  and  C_5
REMARK    2  A    between atoms: C_6  and  C_7
REMARK    3  A    between atoms: C_17  and  N_18
REMARK    4  A    between atoms: C_21  and  N_22
REMARK    5  A    between atoms: N_22  and  C_23
REMARK    6  A    between atoms: C_23  and  C_24
REMARK    7  A    between atoms: C_24  and  C_25
REMARK                            x       y       z     vdW  Elec       q    Type
REMARK                         _______ _______ _______ _____ _____    ______ ____
ROOT
ATOM      1  O   UNL     1       2.801   3.204  21.354  0.00  0.00    +0.000 OA
ATOM      2  C   UNL     1       2.827   4.130  20.550  0.00  0.00    +0.000 A 
ATOM      3  C   UNL     1       3.531   3.986  19.269  0.00  0.00    +0.000 A 
ATOM      4  C   UNL     1       3.558   4.969  18.363  0.00  0.00    +0.000 A 
ATOM      5  C   UNL     1       2.847   6.202  18.608  0.00  0.00    +0.000 A 
ATOM      6  C   UNL     1       2.793   7.220  17.662  0.00  0.00    +0.000 A 
ATOM      7  C   UNL     1       2.131   8.397  17.970  0.00  0.00    +0.000 A 
ATOM      8  C   UNL     1       1.538   8.583  19.223  0.00  0.00    +0.000 A 
ATOM      9  C   UNL     1       1.560   7.543  20.152  0.00  0.00    +0.000 A 
ATOM     10  C   UNL     1       2.216   6.359  19.831  0.00  0.00    +0.000 A 
ATOM     11  O   UNL     1       2.222   5.350  20.803  0.00  0.00    +0.000 OA
ENDROOT
BRANCH   8  12
ATOM     12  N   UNL     1       1.014   9.810  19.564  0.00  0.00    +0.000 N 
ATOM     13  C   UNL     1       1.352  10.977  18.757  0.00  0.00    +0.000 C 
ATOM     14  C   UNL     1       1.728  12.096  19.710  0.00  0.00    +0.000 C 
ATOM     15  C   UNL     1       0.602  12.364  20.717  0.00  0.00    +0.000 C 
ATOM     16  C   UNL     1       0.250  11.069  21.476  0.00  0.00    +0.000 C 
ATOM     17  C   UNL     1      -0.077   9.927  20.521  0.00  0.00    +0.000 C 
BRANCH  15  18
ATOM     18  N   UNL     1      -0.552  12.976  20.030  0.00  0.00    +0.000 NA
ATOM     19  H   UNL     1      -1.424  12.659  20.454  0.00  0.00    +0.000 HD
BRANCH  18  20
ATOM     20  C   UNL     1      -0.538  14.442  20.061  0.00  0.00    +0.000 C 
BRANCH  20  21
ATOM     21  C   UNL     1       0.825  15.016  19.670  0.00  0.00    +0.000 C 
BRANCH  21  22
ATOM     22  C   UNL     1       0.677  16.201  18.761  0.00  0.00    +0.000 A 
ATOM     23  C   UNL     1      -0.596  16.690  18.440  0.00  0.00    +0.000 A 
ATOM     24  C   UNL     1      -0.730  17.787  17.593  0.00  0.00    +0.000 A 
ATOM     25  C   UNL     1       0.403  18.393  17.058  0.00  0.00    +0.000 A 
ATOM     26  C   UNL     1       1.675  17.901  17.366  0.00  0.00    +0.000 A 
ATOM     27  C   UNL     1       1.811  16.802  18.215  0.00  0.00    +0.000 A 
ENDBRANCH  21  22
ENDBRANCH  20  21
ENDBRANCH  18  20
ENDBRANCH  15  18
ENDBRANCH   8  12
BRANCH   4  28
ATOM     28  C   UNL     1       4.318   4.758  17.063  0.00  0.00    +0.000 C 
ATOM     29  C   UNL     1       4.969   4.578  15.949  0.00  0.00    +0.000 C 
BRANCH  29  30
ATOM     30  C   UNL     1       5.724   4.384  14.749  0.00  0.00    +0.000 A 
ATOM     31  C   UNL     1       6.909   5.095  14.543  0.00  0.00    +0.000 A 
ATOM     32  C   UNL     1       7.623   4.939  13.352  0.00  0.00    +0.000 A 
ATOM     33  C   UNL     1       7.150   4.074  12.365  0.00  0.00    +0.000 A 
ATOM     34  C   UNL     1       5.972   3.359  12.579  0.00  0.00    +0.000 A 
ATOM     35 CL   UNL     1       5.387   2.297  11.358  0.00  0.00    +0.000 Cl
ATOM     36  C   UNL     1       5.257   3.506  13.768  0.00  0.00    +0.000 A 
ENDBRANCH  29  30
ENDBRANCH   4  28
TORSDOF 7
ENDMDL
MODEL 9
REMARK VINA RESULT:      -8.5      2.291      3.611
REMARK  Name = 
REMARK  7 active torsions:
REMARK  status: ('A' for Active; 'I' for Inactive)
REMARK    1  A    between atoms: C_4  and  C_5
REMARK    2  A    between atoms: C_6  and  C_7
REMARK    3  A    between atoms: C_17  and  N_18
REMARK    4  A    between atoms: C_21  and  N_22
REMARK    5  A    between atoms: N_22  and  C_23
REMARK    6  A    between atoms: C_23  and  C_24
REMARK    7  A    between atoms: C_24  and  C_25
REMARK                            x       y       z     vdW  Elec       q    Type
REMARK                         _______ _______ _______ _____ _____    ______ ____
ROOT
ATOM      1  O   UNL     1       2.943   2.717  21.120  0.00  0.00    +0.000 OA
ATOM      2  C   UNL     1       2.970   3.698  20.383  0.00  0.00    +0.000 A 
ATOM      3  C   UNL     1       3.683   3.645  19.100  0.00  0.00    +0.000 A 
ATOM      4  C   UNL     1       3.711   4.690  18.265  0.00  0.00    +0.000 A 
ATOM      5  C   UNL     1       2.995   5.900  18.592  0.00  0.00    +0.000 A 
ATOM      6  C   UNL     1       2.943   6.982  17.719  0.00  0.00    +0.000 A 
ATOM      7  C   UNL     1       2.275   8.132  18.104  0.00  0.00    +0.000 A 
ATOM      8  C   UNL     1       1.674   8.228  19.364  0.00  0.00    +0.000 A 
ATOM      9  C   UNL     1       1.694   7.126  20.217  0.00  0.00    +0.000 A 
ATOM     10  C   UNL     1       2.356   5.969  19.818  0.00  0.00    +0.000 A 
ATOM     11  O   UNL     1       2.359   4.894  20.718  0.00  0.00    +0.000 OA
ENDROOT
BRANCH   8  12
ATOM     12  N   UNL     1       1.144   9.427  19.787  0.00  0.00    +0.000 N 
ATOM     13  C   UNL     1       0.942  10.497  18.817  0.00  0.00    +0.000 C 
ATOM     14  C   UNL     1       1.487  11.774  19.430  0.00  0.00    +0.000 C 
ATOM     15  C   UNL     1       0.830  12.058  20.787  0.00  0.00    +0.000 C 
ATOM     16  C   UNL     1       1.019  10.853  21.730  0.00  0.00    +0.000 C 
ATOM     17  C   UNL     1       0.522   9.558  21.097  0.00  0.00    +0.000 C 
BRANCH  15  18
ATOM     18  N   UNL     1      -0.583  12.437  20.591  0.00  0.00    +0.000 NA
ATOM     19  H   UNL     1      -0.713  13.430  20.785  0.00  0.00    +0.000 HD
BRANCH  18  20
ATOM     20  C   UNL     1      -1.075  12.171  19.236  0.00  0.00    +0.000 C 
BRANCH  20  21
ATOM     21  C   UNL     1      -2.268  11.212  19.230  0.00  0.00    +0.000 C 
BRANCH  21  22
ATOM     22  C   UNL     1      -2.729  10.923  17.832  0.00  0.00    +0.000 A 
ATOM     23  C   UNL     1      -3.894  11.523  17.335  0.00  0.00    +0.000 A 
ATOM     24  C   UNL     1      -4.321  11.250  16.038  0.00  0.00    +0.000 A 
ATOM     25  C   UNL     1      -3.594  10.374  15.238  0.00  0.00    +0.000 A 
ATOM     26  C   UNL     1      -2.437   9.764  15.734  0.00  0.00    +0.000 A 
ATOM     27  C   UNL     1      -2.008  10.037  17.033  0.00  0.00    +0.000 A 
ENDBRANCH  21  22
ENDBRANCH  20  21
ENDBRANCH  18  20
ENDBRANCH  15  18
ENDBRANCH   8  12
BRANCH   4  28
ATOM     28  C   UNL     1       4.479   4.573  16.959  0.00  0.00    +0.000 C 
ATOM     29  C   UNL     1       5.139   4.473  15.839  0.00  0.00    +0.000 C 
BRANCH  29  30
ATOM     30  C   UNL     1       5.853   4.318  14.609  0.00  0.00    +0.000 A 
ATOM     31  C   UNL     1       6.991   5.090  14.355  0.00  0.00    +0.000 A 
ATOM     32  C   UNL     1       7.662   4.969  13.136  0.00  0.00    +0.000 A 
ATOM     33  C   UNL     1       7.195   4.080  12.169  0.00  0.00    +0.000 A 
ATOM     34  C   UNL     1       6.066   3.304  12.429  0.00  0.00    +0.000 A 
ATOM     35 CL   UNL     1       5.488   2.212  11.232  0.00  0.00    +0.000 Cl
ATOM     36  C   UNL     1       5.394   3.415  13.647  0.00  0.00    +0.000 A 
ENDBRANCH  29  30
ENDBRANCH   4  28
TORSDOF 7
ENDMDL
