MODEL 1
REMARK VINA RESULT:      -7.6      0.000      0.000
REMARK  Name = 
REMARK  3 active torsions:
REMARK  status: ('A' for Active; 'I' for Inactive)
REMARK    1  A    between atoms: N_11  and  O_12
REMARK    2  A    between atoms: O_12  and  C_13
REMARK    3  A    between atoms: C_13  and  C_14
REMARK                            x       y       z     vdW  Elec       q    Type
REMARK                         _______ _______ _______ _____ _____    ______ ____
ROOT
ATOM      1  O   UNL     1       5.884   3.304  15.141  0.00  0.00    +0.000 OA
ATOM      2  C   UNL     1       5.817   4.170  16.003  0.00  0.00    +0.000 C 
ATOM      3  C   UNL     1       6.930   5.145  16.292  0.00  0.00    +0.000 C 
ATOM      4  C   UNL     1       6.403   5.988  17.453  0.00  0.00    +0.000 C 
ATOM      5  C   UNL     1       7.193   5.819  18.752  0.00  0.00    +0.000 C 
ATOM      6  C   UNL     1       8.256   6.908  18.719  0.00  0.00    +0.000 C 
ATOM      7  C   UNL     1       7.779   7.965  17.727  0.00  0.00    +0.000 C 
ATOM      8  C   UNL     1       6.428   7.496  17.206  0.00  0.00    +0.000 C 
ATOM      9  C   UNL     1       4.988   5.512  17.662  0.00  0.00    +0.000 C 
ATOM     10  O   UNL     1       4.230   6.033  18.458  0.00  0.00    +0.000 OA
ATOM     11  N   UNL     1       4.776   4.455  16.833  0.00  0.00    +0.000 N 
ENDROOT
BRANCH  11  12
ATOM     12  O   UNL     1       3.607   3.687  16.737  0.00  0.00    +0.000 OA
BRANCH  12  13
ATOM     13  C   UNL     1       3.591   2.622  17.692  0.00  0.00    +0.000 C 
BRANCH  13  14
ATOM     14  C   UNL     1       2.770   2.908  18.925  0.00  0.00    +0.000 A 
ATOM     15  C   UNL     1       1.512   3.521  18.843  0.00  0.00    +0.000 A 
ATOM     16  C   UNL     1       0.770   3.775  19.997  0.00  0.00    +0.000 A 
ATOM     17  C   UNL     1       1.272   3.419  21.248  0.00  0.00    +0.000 A 
ATOM     18  C   UNL     1       2.518   2.804  21.349  0.00  0.00    +0.000 A 
ATOM     19  C   UNL     1       3.262   2.547  20.196  0.00  0.00    +0.000 A 
ATOM     20 BR   UNL     1       4.946   1.690  20.428  0.00  0.00    +0.000 Br
ENDBRANCH  13  14
ENDBRANCH  12  13
ENDBRANCH  11  12
TORSDOF 3
ENDMDL
MODEL 2
REMARK VINA RESULT:      -7.5      2.142      5.959
REMARK  Name = 
REMARK  3 active torsions:
REMARK  status: ('A' for Active; 'I' for Inactive)
REMARK    1  A    between atoms: N_11  and  O_12
REMARK    2  A    between atoms: O_12  and  C_13
REMARK    3  A    between atoms: C_13  and  C_14
REMARK                            x       y       z     vdW  Elec       q    Type
REMARK                         _______ _______ _______ _____ _____    ______ ____
ROOT
ATOM      1  O   UNL     1       2.146   8.003  19.840  0.00  0.00    +0.000 OA
ATOM      2  C   UNL     1       2.224   6.799  19.636  0.00  0.00    +0.000 C 
ATOM      3  C   UNL     1       1.814   5.756  20.644  0.00  0.00    +0.000 C 
ATOM      4  C   UNL     1       2.126   4.425  19.958  0.00  0.00    +0.000 C 
ATOM      5  C   UNL     1       3.225   3.614  20.647  0.00  0.00    +0.000 C 
ATOM      6  C   UNL     1       2.498   2.701  21.623  0.00  0.00    +0.000 C 
ATOM      7  C   UNL     1       1.049   2.611  21.153  0.00  0.00    +0.000 C 
ATOM      8  C   UNL     1       0.947   3.455  19.890  0.00  0.00    +0.000 C 
ATOM      9  C   UNL     1       2.577   4.804  18.571  0.00  0.00    +0.000 C 
ATOM     10  O   UNL     1       2.822   3.979  17.711  0.00  0.00    +0.000 OA
ATOM     11  N   UNL     1       2.646   6.161  18.510  0.00  0.00    +0.000 N 
ENDROOT
BRANCH  11  12
ATOM     12  O   UNL     1       3.064   6.930  17.415  0.00  0.00    +0.000 OA
BRANCH  12  13
ATOM     13  C   UNL     1       4.472   7.181  17.448  0.00  0.00    +0.000 C 
BRANCH  13  14
ATOM     14  C   UNL     1       5.298   6.179  16.679  0.00  0.00    +0.000 A 
ATOM     15  C   UNL     1       5.206   6.069  15.284  0.00  0.00    +0.000 A 
ATOM     16  C   UNL     1       5.980   5.136  14.594  0.00  0.00    +0.000 A 
ATOM     17  C   UNL     1       6.857   4.302  15.285  0.00  0.00    +0.000 A 
ATOM     18  C   UNL     1       6.966   4.400  16.670  0.00  0.00    +0.000 A 
ATOM     19  C   UNL     1       6.194   5.334  17.364  0.00  0.00    +0.000 A 
ATOM     20 BR   UNL     1       6.418   5.409  19.253  0.00  0.00    +0.000 Br
ENDBRANCH  13  14
ENDBRANCH  12  13
ENDBRANCH  11  12
TORSDOF 3
ENDMDL
MODEL 3
REMARK VINA RESULT:      -7.2      2.002      3.356
REMARK  Name = 
REMARK  3 active torsions:
REMARK  status: ('A' for Active; 'I' for Inactive)
REMARK    1  A    between atoms: N_11  and  O_12
REMARK    2  A    between atoms: O_12  and  C_13
REMARK    3  A    between atoms: C_13  and  C_14
REMARK                            x       y       z     vdW  Elec       q    Type
REMARK                         _______ _______ _______ _____ _____    ______ ____
ROOT
ATOM      1  O   UNL     1       4.035   6.868  17.077  0.00  0.00    +0.000 OA
ATOM      2  C   UNL     1       4.946   6.172  16.649  0.00  0.00    +0.000 C 
ATOM      3  C   UNL     1       5.246   6.005  15.181  0.00  0.00    +0.000 C 
ATOM      4  C   UNL     1       6.426   5.033  15.144  0.00  0.00    +0.000 C 
ATOM      5  C   UNL     1       6.102   3.689  14.489  0.00  0.00    +0.000 C 
ATOM      6  C   UNL     1       6.468   3.860  13.021  0.00  0.00    +0.000 C 
ATOM      7  C   UNL     1       7.431   5.041  12.939  0.00  0.00    +0.000 C 
ATOM      8  C   UNL     1       7.639   5.536  14.363  0.00  0.00    +0.000 C 
ATOM      9  C   UNL     1       6.786   4.811  16.591  0.00  0.00    +0.000 C 
ATOM     10  O   UNL     1       7.749   4.153  16.935  0.00  0.00    +0.000 OA
ATOM     11  N   UNL     1       5.862   5.454  17.355  0.00  0.00    +0.000 N 
ENDROOT
BRANCH  11  12
ATOM     12  O   UNL     1       5.798   5.470  18.755  0.00  0.00    +0.000 OA
BRANCH  12  13
ATOM     13  C   UNL     1       5.251   4.254  19.276  0.00  0.00    +0.000 C 
BRANCH  13  14
ATOM     14  C   UNL     1       3.781   4.329  19.609  0.00  0.00    +0.000 A 
ATOM     15  C   UNL     1       3.221   5.469  20.204  0.00  0.00    +0.000 A 
ATOM     16  C   UNL     1       1.859   5.516  20.502  0.00  0.00    +0.000 A 
ATOM     17  C   UNL     1       1.038   4.428  20.210  0.00  0.00    +0.000 A 
ATOM     18  C   UNL     1       1.576   3.289  19.615  0.00  0.00    +0.000 A 
ATOM     19  C   UNL     1       2.938   3.240  19.313  0.00  0.00    +0.000 A 
ATOM     20 BR   UNL     1       3.583   1.650  18.488  0.00  0.00    +0.000 Br
ENDBRANCH  13  14
ENDBRANCH  12  13
ENDBRANCH  11  12
TORSDOF 3
ENDMDL
MODEL 4
REMARK VINA RESULT:      -7.2      2.298      3.414
REMARK  Name = 
REMARK  3 active torsions:
REMARK  status: ('A' for Active; 'I' for Inactive)
REMARK    1  A    between atoms: N_11  and  O_12
REMARK    2  A    between atoms: O_12  and  C_13
REMARK    3  A    between atoms: C_13  and  C_14
REMARK                            x       y       z     vdW  Elec       q    Type
REMARK                         _______ _______ _______ _____ _____    ______ ____
ROOT
ATOM      1  O   UNL     1       3.607   7.880  17.509  0.00  0.00    +0.000 OA
ATOM      2  C   UNL     1       4.318   6.900  17.332  0.00  0.00    +0.000 C 
ATOM      3  C   UNL     1       4.929   6.545  16.000  0.00  0.00    +0.000 C 
ATOM      4  C   UNL     1       5.688   5.244  16.268  0.00  0.00    +0.000 C 
ATOM      5  C   UNL     1       5.129   4.034  15.516  0.00  0.00    +0.000 C 
ATOM      6  C   UNL     1       5.911   3.977  14.211  0.00  0.00    +0.000 C 
ATOM      7  C   UNL     1       7.192   4.776  14.426  0.00  0.00    +0.000 C 
ATOM      8  C   UNL     1       7.161   5.275  15.863  0.00  0.00    +0.000 C 
ATOM      9  C   UNL     1       5.553   5.019  17.752  0.00  0.00    +0.000 C 
ATOM     10  O   UNL     1       6.118   4.111  18.333  0.00  0.00    +0.000 OA
ATOM     11  N   UNL     1       4.722   5.976  18.246  0.00  0.00    +0.000 N 
ENDROOT
BRANCH  11  12
ATOM     12  O   UNL     1       4.295   6.108  19.574  0.00  0.00    +0.000 OA
BRANCH  12  13
ATOM     13  C   UNL     1       2.869   6.059  19.681  0.00  0.00    +0.000 C 
BRANCH  13  14
ATOM     14  C   UNL     1       2.328   4.730  20.147  0.00  0.00    +0.000 A 
ATOM     15  C   UNL     1       2.401   4.339  21.492  0.00  0.00    +0.000 A 
ATOM     16  C   UNL     1       1.893   3.106  21.901  0.00  0.00    +0.000 A 
ATOM     17  C   UNL     1       1.306   2.246  20.975  0.00  0.00    +0.000 A 
ATOM     18  C   UNL     1       1.220   2.618  19.635  0.00  0.00    +0.000 A 
ATOM     19  C   UNL     1       1.725   3.853  19.223  0.00  0.00    +0.000 A 
ATOM     20 BR   UNL     1       1.551   4.285  17.377  0.00  0.00    +0.000 Br
ENDBRANCH  13  14
ENDBRANCH  12  13
ENDBRANCH  11  12
TORSDOF 3
ENDMDL
MODEL 5
REMARK VINA RESULT:      -7.0      0.982      2.107
REMARK  Name = 
REMARK  3 active torsions:
REMARK  status: ('A' for Active; 'I' for Inactive)
REMARK    1  A    between atoms: N_11  and  O_12
REMARK    2  A    between atoms: O_12  and  C_13
REMARK    3  A    between atoms: C_13  and  C_14
REMARK                            x       y       z     vdW  Elec       q    Type
REMARK                         _______ _______ _______ _____ _____    ______ ____
ROOT
ATOM      1  O   UNL     1       2.226   5.833  18.203  0.00  0.00    +0.000 OA
ATOM      2  C   UNL     1       3.381   5.560  17.910  0.00  0.00    +0.000 C 
ATOM      3  C   UNL     1       4.563   6.409  18.305  0.00  0.00    +0.000 C 
ATOM      4  C   UNL     1       5.766   5.692  17.690  0.00  0.00    +0.000 C 
ATOM      5  C   UNL     1       6.476   6.496  16.599  0.00  0.00    +0.000 C 
ATOM      6  C   UNL     1       7.571   7.270  17.319  0.00  0.00    +0.000 C 
ATOM      7  C   UNL     1       7.818   6.558  18.645  0.00  0.00    +0.000 C 
ATOM      8  C   UNL     1       6.881   5.359  18.680  0.00  0.00    +0.000 C 
ATOM      9  C   UNL     1       5.197   4.430  17.093  0.00  0.00    +0.000 C 
ATOM     10  O   UNL     1       5.894   3.567  16.593  0.00  0.00    +0.000 OA
ATOM     11  N   UNL     1       3.844   4.478  17.225  0.00  0.00    +0.000 N 
ENDROOT
BRANCH  11  12
ATOM     12  O   UNL     1       2.924   3.525  16.767  0.00  0.00    +0.000 OA
BRANCH  12  13
ATOM     13  C   UNL     1       2.910   2.359  17.595  0.00  0.00    +0.000 C 
BRANCH  13  14
ATOM     14  C   UNL     1       2.312   2.578  18.963  0.00  0.00    +0.000 A 
ATOM     15  C   UNL     1       0.956   2.892  19.129  0.00  0.00    +0.000 A 
ATOM     16  C   UNL     1       0.425   3.090  20.404  0.00  0.00    +0.000 A 
ATOM     17  C   UNL     1       1.238   2.975  21.530  0.00  0.00    +0.000 A 
ATOM     18  C   UNL     1       2.587   2.659  21.385  0.00  0.00    +0.000 A 
ATOM     19  C   UNL     1       3.121   2.459  20.111  0.00  0.00    +0.000 A 
ATOM     20 BR   UNL     1       4.970   2.015  20.009  0.00  0.00    +0.000 Br
ENDBRANCH  13  14
ENDBRANCH  12  13
ENDBRANCH  11  12
TORSDOF 3
ENDMDL
MODEL 6
REMARK VINA RESULT:      -7.0      2.410      3.251
REMARK  Name = 
REMARK  3 active torsions:
REMARK  status: ('A' for Active; 'I' for Inactive)
REMARK    1  A    between atoms: N_11  and  O_12
REMARK    2  A    between atoms: O_12  and  C_13
REMARK    3  A    between atoms: C_13  and  C_14
REMARK                            x       y       z     vdW  Elec       q    Type
REMARK                         _______ _______ _______ _____ _____    ______ ____
ROOT
ATOM      1  O   UNL     1       5.311   3.526  19.485  0.00  0.00    +0.000 OA
ATOM      2  C   UNL     1       5.301   4.203  18.466  0.00  0.00    +0.000 C 
ATOM      3  C   UNL     1       5.808   3.711  17.134  0.00  0.00    +0.000 C 
ATOM      4  C   UNL     1       5.624   4.904  16.195  0.00  0.00    +0.000 C 
ATOM      5  C   UNL     1       6.936   5.481  15.662  0.00  0.00    +0.000 C 
ATOM      6  C   UNL     1       7.191   4.755  14.349  0.00  0.00    +0.000 C 
ATOM      7  C   UNL     1       5.852   4.182  13.892  0.00  0.00    +0.000 C 
ATOM      8  C   UNL     1       4.821   4.599  14.931  0.00  0.00    +0.000 C 
ATOM      9  C   UNL     1       4.919   5.943  17.029  0.00  0.00    +0.000 C 
ATOM     10  O   UNL     1       4.531   7.001  16.569  0.00  0.00    +0.000 OA
ATOM     11  N   UNL     1       4.833   5.470  18.301  0.00  0.00    +0.000 N 
ENDROOT
BRANCH  11  12
ATOM     12  O   UNL     1       4.287   6.138  19.406  0.00  0.00    +0.000 OA
BRANCH  12  13
ATOM     13  C   UNL     1       2.858   6.072  19.415  0.00  0.00    +0.000 C 
BRANCH  13  14
ATOM     14  C   UNL     1       2.300   4.792  19.985  0.00  0.00    +0.000 A 
ATOM     15  C   UNL     1       2.397   4.495  21.352  0.00  0.00    +0.000 A 
ATOM     16  C   UNL     1       1.872   3.304  21.858  0.00  0.00    +0.000 A 
ATOM     17  C   UNL     1       1.244   2.396  21.007  0.00  0.00    +0.000 A 
ATOM     18  C   UNL     1       1.135   2.676  19.647  0.00  0.00    +0.000 A 
ATOM     19  C   UNL     1       1.656   3.867  19.138  0.00  0.00    +0.000 A 
ATOM     20 BR   UNL     1       1.448   4.174  17.271  0.00  0.00    +0.000 Br
ENDBRANCH  13  14
ENDBRANCH  12  13
ENDBRANCH  11  12
TORSDOF 3
ENDMDL
MODEL 7
REMARK VINA RESULT:      -6.9      1.244      1.646
REMARK  Name = 
REMARK  3 active torsions:
REMARK  status: ('A' for Active; 'I' for Inactive)
REMARK    1  A    between atoms: N_11  and  O_12
REMARK    2  A    between atoms: O_12  and  C_13
REMARK    3  A    between atoms: C_13  and  C_14
REMARK                            x       y       z     vdW  Elec       q    Type
REMARK                         _______ _______ _______ _____ _____    ______ ____
ROOT
ATOM      1  O   UNL     1       5.971   3.294  15.253  0.00  0.00    +0.000 OA
ATOM      2  C   UNL     1       5.895   4.169  16.105  0.00  0.00    +0.000 C 
ATOM      3  C   UNL     1       6.971   5.201  16.335  0.00  0.00    +0.000 C 
ATOM      4  C   UNL     1       6.448   6.037  17.504  0.00  0.00    +0.000 C 
ATOM      5  C   UNL     1       7.294   5.927  18.773  0.00  0.00    +0.000 C 
ATOM      6  C   UNL     1       8.302   7.064  18.684  0.00  0.00    +0.000 C 
ATOM      7  C   UNL     1       7.737   8.081  17.696  0.00  0.00    +0.000 C 
ATOM      8  C   UNL     1       6.392   7.540  17.233  0.00  0.00    +0.000 C 
ATOM      9  C   UNL     1       5.066   5.498  17.774  0.00  0.00    +0.000 C 
ATOM     10  O   UNL     1       4.315   5.996  18.591  0.00  0.00    +0.000 OA
ATOM     11  N   UNL     1       4.874   4.419  16.969  0.00  0.00    +0.000 N 
ENDROOT
BRANCH  11  12
ATOM     12  O   UNL     1       3.740   3.595  16.930  0.00  0.00    +0.000 OA
BRANCH  12  13
ATOM     13  C   UNL     1       3.814   2.543  17.897  0.00  0.00    +0.000 C 
BRANCH  13  14
ATOM     14  C   UNL     1       3.031   2.807  19.160  0.00  0.00    +0.000 A 
ATOM     15  C   UNL     1       3.476   2.348  20.408  0.00  0.00    +0.000 A 
ATOM     16  C   UNL     1       2.736   2.604  21.563  0.00  0.00    +0.000 A 
ATOM     17  C   UNL     1       1.543   3.321  21.488  0.00  0.00    +0.000 A 
ATOM     18  C   UNL     1       1.087   3.788  20.258  0.00  0.00    +0.000 A 
ATOM     19  C   UNL     1       1.826   3.536  19.101  0.00  0.00    +0.000 A 
ATOM     20 BR   UNL     1       1.136   4.225  17.466  0.00  0.00    +0.000 Br
ENDBRANCH  13  14
ENDBRANCH  12  13
ENDBRANCH  11  12
TORSDOF 3
ENDMDL
MODEL 8
REMARK VINA RESULT:      -6.8      2.498      6.337
REMARK  Name = 
REMARK  3 active torsions:
REMARK  status: ('A' for Active; 'I' for Inactive)
REMARK    1  A    between atoms: N_11  and  O_12
REMARK    2  A    between atoms: O_12  and  C_13
REMARK    3  A    between atoms: C_13  and  C_14
REMARK                            x       y       z     vdW  Elec       q    Type
REMARK                         _______ _______ _______ _____ _____    ______ ____
ROOT
ATOM      1  O   UNL     1       3.934   6.519  18.059  0.00  0.00    +0.000 OA
ATOM      2  C   UNL     1       3.512   5.402  18.328  0.00  0.00    +0.000 C 
ATOM      3  C   UNL     1       2.920   5.035  19.665  0.00  0.00    +0.000 C 
ATOM      4  C   UNL     1       2.578   3.551  19.533  0.00  0.00    +0.000 C 
ATOM      5  C   UNL     1       3.390   2.642  20.458  0.00  0.00    +0.000 C 
ATOM      6  C   UNL     1       2.553   2.507  21.722  0.00  0.00    +0.000 C 
ATOM      7  C   UNL     1       1.121   2.876  21.348  0.00  0.00    +0.000 C 
ATOM      8  C   UNL     1       1.127   3.202  19.861  0.00  0.00    +0.000 C 
ATOM      9  C   UNL     1       2.889   3.212  18.097  0.00  0.00    +0.000 C 
ATOM     10  O   UNL     1       2.649   2.122  17.613  0.00  0.00    +0.000 OA
ATOM     11  N   UNL     1       3.457   4.306  17.523  0.00  0.00    +0.000 N 
ENDROOT
BRANCH  11  12
ATOM     12  O   UNL     1       3.936   4.408  16.210  0.00  0.00    +0.000 OA
BRANCH  12  13
ATOM     13  C   UNL     1       5.110   3.615  16.009  0.00  0.00    +0.000 C 
BRANCH  13  14
ATOM     14  C   UNL     1       5.950   4.038  14.830  0.00  0.00    +0.000 A 
ATOM     15  C   UNL     1       5.790   3.452  13.567  0.00  0.00    +0.000 A 
ATOM     16  C   UNL     1       6.578   3.860  12.490  0.00  0.00    +0.000 A 
ATOM     17  C   UNL     1       7.535   4.859  12.659  0.00  0.00    +0.000 A 
ATOM     18  C   UNL     1       7.706   5.456  13.906  0.00  0.00    +0.000 A 
ATOM     19  C   UNL     1       6.918   5.051  14.984  0.00  0.00    +0.000 A 
ATOM     20 BR   UNL     1       7.210   5.933  16.647  0.00  0.00    +0.000 Br
ENDBRANCH  13  14
ENDBRANCH  12  13
ENDBRANCH  11  12
TORSDOF 3
ENDMDL
MODEL 9
REMARK VINA RESULT:      -6.8      2.388      3.703
REMARK  Name = 
REMARK  3 active torsions:
REMARK  status: ('A' for Active; 'I' for Inactive)
REMARK    1  A    between atoms: N_11  and  O_12
REMARK    2  A    between atoms: O_12  and  C_13
REMARK    3  A    between atoms: C_13  and  C_14
REMARK                            x       y       z     vdW  Elec       q    Type
REMARK                         _______ _______ _______ _____ _____    ______ ____
ROOT
ATOM      1  O   UNL     1       4.006   7.158  16.967  0.00  0.00    +0.000 OA
ATOM      2  C   UNL     1       4.891   6.394  16.604  0.00  0.00    +0.000 C 
ATOM      3  C   UNL     1       5.181   6.085  15.157  0.00  0.00    +0.000 C 
ATOM      4  C   UNL     1       6.325   5.072  15.209  0.00  0.00    +0.000 C 
ATOM      5  C   UNL     1       5.952   3.687  14.677  0.00  0.00    +0.000 C 
ATOM      6  C   UNL     1       6.320   3.711  13.201  0.00  0.00    +0.000 C 
ATOM      7  C   UNL     1       7.324   4.844  13.012  0.00  0.00    +0.000 C 
ATOM      8  C   UNL     1       7.553   5.459  14.386  0.00  0.00    +0.000 C 
ATOM      9  C   UNL     1       6.681   4.969  16.670  0.00  0.00    +0.000 C 
ATOM     10  O   UNL     1       7.622   4.311  17.073  0.00  0.00    +0.000 OA
ATOM     11  N   UNL     1       5.782   5.711  17.372  0.00  0.00    +0.000 N 
ENDROOT
BRANCH  11  12
ATOM     12  O   UNL     1       5.723   5.856  18.765  0.00  0.00    +0.000 OA
BRANCH  12  13
ATOM     13  C   UNL     1       5.336   4.639  19.410  0.00  0.00    +0.000 C 
BRANCH  13  14
ATOM     14  C   UNL     1       4.059   4.035  18.879  0.00  0.00    +0.000 A 
ATOM     15  C   UNL     1       4.062   2.843  18.142  0.00  0.00    +0.000 A 
ATOM     16  C   UNL     1       2.868   2.303  17.661  0.00  0.00    +0.000 A 
ATOM     17  C   UNL     1       1.657   2.944  17.910  0.00  0.00    +0.000 A 
ATOM     18  C   UNL     1       1.633   4.128  18.644  0.00  0.00    +0.000 A 
ATOM     19  C   UNL     1       2.825   4.670  19.128  0.00  0.00    +0.000 A 
ATOM     20 BR   UNL     1       2.697   6.281  20.134  0.00  0.00    +0.000 Br
ENDBRANCH  13  14
ENDBRANCH  12  13
ENDBRANCH  11  12
TORSDOF 3
ENDMDL
