MODEL 1
REMARK VINA RESULT:      -7.8      0.000      0.000
REMARK  Name = 
REMARK  5 active torsions:
REMARK  status: ('A' for Active; 'I' for Inactive)
REMARK    1  A    between atoms: C_2  and  C_7
REMARK    2  A    between atoms: N_3  and  C_4
REMARK    3  A    between atoms: C_4  and  C_5
REMARK    4  A    between atoms: C_18  and  C_19
REMARK    5  A    between atoms: C_19  and  C_20
REMARK                            x       y       z     vdW  Elec       q    Type
REMARK                         _______ _______ _______ _____ _____    ______ ____
ROOT
ATOM      1  C   UNL     1       0.667  15.099  19.477  0.00  0.00    +0.000 A 
ATOM      2  C   UNL     1       1.801  15.216  18.659  0.00  0.00    +0.000 A 
ATOM      3  C   UNL     1       2.548  14.082  18.315  0.00  0.00    +0.000 A 
ATOM      4  C   UNL     1       2.176  12.818  18.778  0.00  0.00    +0.000 A 
ATOM      5  C   UNL     1       1.050  12.691  19.580  0.00  0.00    +0.000 A 
ATOM      6  C   UNL     1       0.324  13.834  19.950  0.00  0.00    +0.000 A 
ATOM      7  C   UNL     1      -0.823  13.426  20.817  0.00  0.00    +0.000 C 
ATOM      8  C   UNL     1      -0.452  11.971  21.159  0.00  0.00    +0.000 C 
ATOM      9  N   UNL     1       0.495  11.516  20.131  0.00  0.00    +0.000 N 
ATOM     10  C   UNL     1       0.932  10.193  20.175  0.00  0.00    +0.000 A 
ATOM     11  C   UNL     1       1.472   9.584  19.040  0.00  0.00    +0.000 A 
ATOM     12  C   UNL     1       1.893   8.247  19.074  0.00  0.00    +0.000 A 
ATOM     13  C   UNL     1       1.773   7.552  20.273  0.00  0.00    +0.000 A 
ATOM     14  C   UNL     1       1.216   8.208  21.355  0.00  0.00    +0.000 A 
ATOM     15  N   UNL     1       0.782   9.487  21.321  0.00  0.00    +0.000 NA
ENDROOT
BRANCH   1  17
ATOM     16  O   UNL     1       0.159  17.012  20.776  0.00  0.00    +0.000 OA
ATOM     17  C   UNL     1      -0.140  16.299  19.828  0.00  0.00    +0.000 C 
ATOM     18  N   UNL     1      -1.238  16.528  19.026  0.00  0.00    +0.000 N 
ATOM     19  H   UNL     1      -1.439  15.911  18.251  0.00  0.00    +0.000 HD
BRANCH  18  20
ATOM     20  C   UNL     1      -2.091  17.691  19.197  0.00  0.00    +0.000 C 
BRANCH  20  21
ATOM     21  C   UNL     1      -2.047  18.631  18.000  0.00  0.00    +0.000 C 
ATOM     22  F   UNL     1      -0.898  18.402  17.301  0.00  0.00    +0.000 F 
ENDBRANCH  20  21
ENDBRANCH  18  20
ENDBRANCH   1  17
BRANCH  12  23
ATOM     23  C   UNL     1       2.491   7.598  17.852  0.00  0.00    +0.000 C 
BRANCH  23  24
ATOM     24  C   UNL     1       2.857   6.150  18.079  0.00  0.00    +0.000 A 
ATOM     25  C   UNL     1       4.182   5.786  18.368  0.00  0.00    +0.000 A 
ATOM     26  C   UNL     1       4.524   4.442  18.512  0.00  0.00    +0.000 A 
ATOM     27  F   UNL     1       5.797   4.118  18.781  0.00  0.00    +0.000 F 
ATOM     28  C   UNL     1       3.567   3.448  18.374  0.00  0.00    +0.000 A 
ATOM     29  F   UNL     1       3.907   2.158  18.501  0.00  0.00    +0.000 F 
ATOM     30  C   UNL     1       2.253   3.801  18.098  0.00  0.00    +0.000 A 
ATOM     31  F   UNL     1       1.316   2.855  17.961  0.00  0.00    +0.000 F 
ATOM     32  C   UNL     1       1.891   5.138  17.949  0.00  0.00    +0.000 A 
ENDBRANCH  23  24
ENDBRANCH  12  23
TORSDOF 5
ENDMDL
MODEL 2
REMARK VINA RESULT:      -7.7      2.290      3.571
REMARK  Name = 
REMARK  5 active torsions:
REMARK  status: ('A' for Active; 'I' for Inactive)
REMARK    1  A    between atoms: C_2  and  C_7
REMARK    2  A    between atoms: N_3  and  C_4
REMARK    3  A    between atoms: C_4  and  C_5
REMARK    4  A    between atoms: C_18  and  C_19
REMARK    5  A    between atoms: C_19  and  C_20
REMARK                            x       y       z     vdW  Elec       q    Type
REMARK                         _______ _______ _______ _____ _____    ______ ____
ROOT
ATOM      1  C   UNL     1      -0.758  13.395  22.542  0.00  0.00    +0.000 A 
ATOM      2  C   UNL     1      -1.543  12.522  23.309  0.00  0.00    +0.000 A 
ATOM      3  C   UNL     1      -1.482  11.138  23.095  0.00  0.00    +0.000 A 
ATOM      4  C   UNL     1      -0.639  10.607  22.117  0.00  0.00    +0.000 A 
ATOM      5  C   UNL     1       0.149  11.462  21.360  0.00  0.00    +0.000 A 
ATOM      6  C   UNL     1       0.060  12.849  21.554  0.00  0.00    +0.000 A 
ATOM      7  C   UNL     1       0.994  13.536  20.611  0.00  0.00    +0.000 C 
ATOM      8  C   UNL     1       1.358  12.393  19.645  0.00  0.00    +0.000 C 
ATOM      9  N   UNL     1       1.074  11.133  20.345  0.00  0.00    +0.000 N 
ATOM     10  C   UNL     1       1.389   9.936  19.704  0.00  0.00    +0.000 A 
ATOM     11  C   UNL     1       1.545   8.756  20.435  0.00  0.00    +0.000 A 
ATOM     12  C   UNL     1       1.883   7.555  19.796  0.00  0.00    +0.000 A 
ATOM     13  C   UNL     1       2.043   7.568  18.414  0.00  0.00    +0.000 A 
ATOM     14  C   UNL     1       1.890   8.773  17.752  0.00  0.00    +0.000 A 
ATOM     15  N   UNL     1       1.592   9.940  18.365  0.00  0.00    +0.000 NA
ENDROOT
BRANCH   1  17
ATOM     16  O   UNL     1      -0.001  15.414  23.519  0.00  0.00    +0.000 OA
ATOM     17  C   UNL     1      -0.805  14.863  22.780  0.00  0.00    +0.000 C 
ATOM     18  N   UNL     1      -1.817  15.535  22.128  0.00  0.00    +0.000 N 
ATOM     19  H   UNL     1      -2.454  15.034  21.524  0.00  0.00    +0.000 HD
BRANCH  18  20
ATOM     20  C   UNL     1      -1.962  16.978  22.206  0.00  0.00    +0.000 C 
BRANCH  20  21
ATOM     21  C   UNL     1      -3.143  17.401  23.069  0.00  0.00    +0.000 C 
ATOM     22  F   UNL     1      -3.592  16.318  23.765  0.00  0.00    +0.000 F 
ENDBRANCH  20  21
ENDBRANCH  18  20
ENDBRANCH   1  17
BRANCH  12  23
ATOM     23  C   UNL     1       2.034   6.279  20.587  0.00  0.00    +0.000 C 
BRANCH  23  24
ATOM     24  C   UNL     1       2.203   5.064  19.707  0.00  0.00    +0.000 A 
ATOM     25  C   UNL     1       1.142   4.163  19.523  0.00  0.00    +0.000 A 
ATOM     26  C   UNL     1       1.326   3.009  18.762  0.00  0.00    +0.000 A 
ATOM     27  F   UNL     1       0.300   2.160  18.606  0.00  0.00    +0.000 F 
ATOM     28  C   UNL     1       2.553   2.733  18.178  0.00  0.00    +0.000 A 
ATOM     29  F   UNL     1       2.725   1.616  17.459  0.00  0.00    +0.000 F 
ATOM     30  C   UNL     1       3.605   3.624  18.348  0.00  0.00    +0.000 A 
ATOM     31  F   UNL     1       4.796   3.373  17.791  0.00  0.00    +0.000 F 
ATOM     32  C   UNL     1       3.441   4.782  19.105  0.00  0.00    +0.000 A 
ENDBRANCH  23  24
ENDBRANCH  12  23
TORSDOF 5
ENDMDL
MODEL 3
REMARK VINA RESULT:      -7.7      2.292      3.278
REMARK  Name = 
REMARK  5 active torsions:
REMARK  status: ('A' for Active; 'I' for Inactive)
REMARK    1  A    between atoms: C_2  and  C_7
REMARK    2  A    between atoms: N_3  and  C_4
REMARK    3  A    between atoms: C_4  and  C_5
REMARK    4  A    between atoms: C_18  and  C_19
REMARK    5  A    between atoms: C_19  and  C_20
REMARK                            x       y       z     vdW  Elec       q    Type
REMARK                         _______ _______ _______ _____ _____    ______ ____
ROOT
ATOM      1  C   UNL     1      -0.736  13.405  22.495  0.00  0.00    +0.000 A 
ATOM      2  C   UNL     1      -1.530  12.554  23.278  0.00  0.00    +0.000 A 
ATOM      3  C   UNL     1      -1.482  11.166  23.091  0.00  0.00    +0.000 A 
ATOM      4  C   UNL     1      -0.643  10.608  22.124  0.00  0.00    +0.000 A 
ATOM      5  C   UNL     1       0.154  11.440  21.351  0.00  0.00    +0.000 A 
ATOM      6  C   UNL     1       0.078  12.832  21.519  0.00  0.00    +0.000 A 
ATOM      7  C   UNL     1       1.020  13.492  20.564  0.00  0.00    +0.000 C 
ATOM      8  C   UNL     1       1.374  12.327  19.620  0.00  0.00    +0.000 C 
ATOM      9  N   UNL     1       1.077  11.083  20.344  0.00  0.00    +0.000 N 
ATOM     10  C   UNL     1       1.381   9.871  19.727  0.00  0.00    +0.000 A 
ATOM     11  C   UNL     1       1.525   8.704  20.481  0.00  0.00    +0.000 A 
ATOM     12  C   UNL     1       1.852   7.488  19.867  0.00  0.00    +0.000 A 
ATOM     13  C   UNL     1       2.013   7.473  18.484  0.00  0.00    +0.000 A 
ATOM     14  C   UNL     1       1.873   8.665  17.799  0.00  0.00    +0.000 A 
ATOM     15  N   UNL     1       1.586   9.847  18.389  0.00  0.00    +0.000 NA
ENDROOT
BRANCH   1  17
ATOM     16  O   UNL     1       0.098  15.448  23.353  0.00  0.00    +0.000 OA
ATOM     17  C   UNL     1      -0.769  14.877  22.704  0.00  0.00    +0.000 C 
ATOM     18  N   UNL     1      -1.842  15.531  22.135  0.00  0.00    +0.000 N 
ATOM     19  H   UNL     1      -2.530  15.015  21.605  0.00  0.00    +0.000 HD
BRANCH  18  20
ATOM     20  C   UNL     1      -1.987  16.975  22.196  0.00  0.00    +0.000 C 
BRANCH  20  21
ATOM     21  C   UNL     1      -3.115  17.411  23.122  0.00  0.00    +0.000 C 
ATOM     22  F   UNL     1      -3.612  16.313  23.759  0.00  0.00    +0.000 F 
ENDBRANCH  20  21
ENDBRANCH  18  20
ENDBRANCH   1  17
BRANCH  12  23
ATOM     23  C   UNL     1       1.989   6.226  20.682  0.00  0.00    +0.000 C 
BRANCH  23  24
ATOM     24  C   UNL     1       2.162   4.994  19.826  0.00  0.00    +0.000 A 
ATOM     25  C   UNL     1       3.372   4.753  19.157  0.00  0.00    +0.000 A 
ATOM     26  C   UNL     1       3.501   3.648  18.317  0.00  0.00    +0.000 A 
ATOM     27  F   UNL     1       4.664   3.443  17.682  0.00  0.00    +0.000 F 
ATOM     28  C   UNL     1       2.442   2.772  18.130  0.00  0.00    +0.000 A 
ATOM     29  F   UNL     1       2.570   1.720  17.311  0.00  0.00    +0.000 F 
ATOM     30  C   UNL     1       1.245   2.998  18.795  0.00  0.00    +0.000 A 
ATOM     31  F   UNL     1       0.212   2.163  18.626  0.00  0.00    +0.000 F 
ATOM     32  C   UNL     1       1.096   4.098  19.638  0.00  0.00    +0.000 A 
ENDBRANCH  23  24
ENDBRANCH  12  23
TORSDOF 5
ENDMDL
MODEL 4
REMARK VINA RESULT:      -7.7      1.761      3.241
REMARK  Name = 
REMARK  5 active torsions:
REMARK  status: ('A' for Active; 'I' for Inactive)
REMARK    1  A    between atoms: C_2  and  C_7
REMARK    2  A    between atoms: N_3  and  C_4
REMARK    3  A    between atoms: C_4  and  C_5
REMARK    4  A    between atoms: C_18  and  C_19
REMARK    5  A    between atoms: C_19  and  C_20
REMARK                            x       y       z     vdW  Elec       q    Type
REMARK                         _______ _______ _______ _____ _____    ______ ____
ROOT
ATOM      1  C   UNL     1      -0.625  13.509  22.425  0.00  0.00    +0.000 A 
ATOM      2  C   UNL     1      -1.488  12.706  23.187  0.00  0.00    +0.000 A 
ATOM      3  C   UNL     1      -1.505  11.316  23.010  0.00  0.00    +0.000 A 
ATOM      4  C   UNL     1      -0.663  10.708  22.076  0.00  0.00    +0.000 A 
ATOM      5  C   UNL     1       0.200  11.493  21.325  0.00  0.00    +0.000 A 
ATOM      6  C   UNL     1       0.190  12.889  21.481  0.00  0.00    +0.000 A 
ATOM      7  C   UNL     1       1.196  13.492  20.555  0.00  0.00    +0.000 C 
ATOM      8  C   UNL     1       1.522  12.303  19.631  0.00  0.00    +0.000 C 
ATOM      9  N   UNL     1       1.138  11.081  20.352  0.00  0.00    +0.000 N 
ATOM     10  C   UNL     1       1.400   9.851  19.753  0.00  0.00    +0.000 A 
ATOM     11  C   UNL     1       1.459   8.684  20.519  0.00  0.00    +0.000 A 
ATOM     12  C   UNL     1       1.745   7.448  19.923  0.00  0.00    +0.000 A 
ATOM     13  C   UNL     1       1.951   7.414  18.548  0.00  0.00    +0.000 A 
ATOM     14  C   UNL     1       1.894   8.606  17.851  0.00  0.00    +0.000 A 
ATOM     15  N   UNL     1       1.648   9.805  18.423  0.00  0.00    +0.000 NA
ENDROOT
BRANCH   1  17
ATOM     16  O   UNL     1       0.086  15.490  23.509  0.00  0.00    +0.000 OA
ATOM     17  C   UNL     1      -0.591  14.983  22.625  0.00  0.00    +0.000 C 
ATOM     18  N   UNL     1      -1.379  15.715  21.762  0.00  0.00    +0.000 N 
ATOM     19  H   UNL     1      -1.918  15.248  21.045  0.00  0.00    +0.000 HD
BRANCH  18  20
ATOM     20  C   UNL     1      -1.409  17.167  21.785  0.00  0.00    +0.000 C 
BRANCH  20  21
ATOM     21  C   UNL     1      -0.729  17.785  20.570  0.00  0.00    +0.000 C 
ATOM     22  F   UNL     1       0.417  17.095  20.307  0.00  0.00    +0.000 F 
ENDBRANCH  20  21
ENDBRANCH  18  20
ENDBRANCH   1  17
BRANCH  12  23
ATOM     23  C   UNL     1       1.790   6.188  20.751  0.00  0.00    +0.000 C 
BRANCH  23  24
ATOM     24  C   UNL     1       2.154   4.968  19.938  0.00  0.00    +0.000 A 
ATOM     25  C   UNL     1       1.173   4.027  19.583  0.00  0.00    +0.000 A 
ATOM     26  C   UNL     1       1.529   2.872  18.889  0.00  0.00    +0.000 A 
ATOM     27  F   UNL     1       0.576   1.985  18.568  0.00  0.00    +0.000 F 
ATOM     28  C   UNL     1       2.850   2.633  18.539  0.00  0.00    +0.000 A 
ATOM     29  F   UNL     1       3.185   1.514  17.883  0.00  0.00    +0.000 F 
ATOM     30  C   UNL     1       3.824   3.563  18.877  0.00  0.00    +0.000 A 
ATOM     31  F   UNL     1       5.103   3.349  18.547  0.00  0.00    +0.000 F 
ATOM     32  C   UNL     1       3.488   4.724  19.572  0.00  0.00    +0.000 A 
ENDBRANCH  23  24
ENDBRANCH  12  23
TORSDOF 5
ENDMDL
MODEL 5
REMARK VINA RESULT:      -7.7      4.455      9.817
REMARK  Name = 
REMARK  5 active torsions:
REMARK  status: ('A' for Active; 'I' for Inactive)
REMARK    1  A    between atoms: C_2  and  C_7
REMARK    2  A    between atoms: N_3  and  C_4
REMARK    3  A    between atoms: C_4  and  C_5
REMARK    4  A    between atoms: C_18  and  C_19
REMARK    5  A    between atoms: C_19  and  C_20
REMARK                            x       y       z     vdW  Elec       q    Type
REMARK                         _______ _______ _______ _____ _____    ______ ____
ROOT
ATOM      1  C   UNL     1       2.117   7.121  19.684  0.00  0.00    +0.000 A 
ATOM      2  C   UNL     1       1.606   6.889  20.970  0.00  0.00    +0.000 A 
ATOM      3  C   UNL     1       0.836   7.866  21.614  0.00  0.00    +0.000 A 
ATOM      4  C   UNL     1       0.562   9.084  20.987  0.00  0.00    +0.000 A 
ATOM      5  C   UNL     1       1.055   9.318  19.712  0.00  0.00    +0.000 A 
ATOM      6  C   UNL     1       1.855   8.350  19.083  0.00  0.00    +0.000 A 
ATOM      7  C   UNL     1       2.262   8.853  17.735  0.00  0.00    +0.000 C 
ATOM      8  C   UNL     1       1.878  10.341  17.828  0.00  0.00    +0.000 C 
ATOM      9  N   UNL     1       0.880  10.461  18.901  0.00  0.00    +0.000 N 
ATOM     10  C   UNL     1       0.313  11.712  19.139  0.00  0.00    +0.000 A 
ATOM     11  C   UNL     1      -0.902  11.825  19.819  0.00  0.00    +0.000 A 
ATOM     12  C   UNL     1      -1.486  13.079  20.040  0.00  0.00    +0.000 A 
ATOM     13  C   UNL     1      -0.815  14.207  19.579  0.00  0.00    +0.000 A 
ATOM     14  C   UNL     1       0.375  14.025  18.900  0.00  0.00    +0.000 A 
ATOM     15  N   UNL     1       0.930  12.817  18.657  0.00  0.00    +0.000 NA
ENDROOT
BRANCH   1  17
ATOM     16  O   UNL     1       2.601   5.662  17.884  0.00  0.00    +0.000 OA
ATOM     17  C   UNL     1       2.919   6.078  18.989  0.00  0.00    +0.000 C 
ATOM     18  N   UNL     1       4.018   5.617  19.683  0.00  0.00    +0.000 N 
ATOM     19  H   UNL     1       4.242   5.997  20.593  0.00  0.00    +0.000 HD
BRANCH  18  20
ATOM     20  C   UNL     1       4.938   4.645  19.118  0.00  0.00    +0.000 C 
BRANCH  20  21
ATOM     21  C   UNL     1       4.581   3.214  19.496  0.00  0.00    +0.000 C 
ATOM     22  F   UNL     1       3.430   2.861  18.856  0.00  0.00    +0.000 F 
ENDBRANCH  20  21
ENDBRANCH  18  20
ENDBRANCH   1  17
BRANCH  12  23
ATOM     23  C   UNL     1      -2.789  13.199  20.791  0.00  0.00    +0.000 C 
BRANCH  23  24
ATOM     24  C   UNL     1      -3.943  12.549  20.064  0.00  0.00    +0.000 A 
ATOM     25  C   UNL     1      -5.199  12.431  20.681  0.00  0.00    +0.000 A 
ATOM     26  C   UNL     1      -6.241  11.771  20.030  0.00  0.00    +0.000 A 
ATOM     27  F   UNL     1      -7.429  11.665  20.642  0.00  0.00    +0.000 F 
ATOM     28  C   UNL     1      -6.054  11.224  18.769  0.00  0.00    +0.000 A 
ATOM     29  F   UNL     1      -7.057  10.581  18.156  0.00  0.00    +0.000 F 
ATOM     30  C   UNL     1      -4.819  11.345  18.149  0.00  0.00    +0.000 A 
ATOM     31  F   UNL     1      -4.622  10.823  16.932  0.00  0.00    +0.000 F 
ATOM     32  C   UNL     1      -3.765  11.999  18.784  0.00  0.00    +0.000 A 
ENDBRANCH  23  24
ENDBRANCH  12  23
TORSDOF 5
ENDMDL
MODEL 6
REMARK VINA RESULT:      -7.7      1.779      2.930
REMARK  Name = 
REMARK  5 active torsions:
REMARK  status: ('A' for Active; 'I' for Inactive)
REMARK    1  A    between atoms: C_2  and  C_7
REMARK    2  A    between atoms: N_3  and  C_4
REMARK    3  A    between atoms: C_4  and  C_5
REMARK    4  A    between atoms: C_18  and  C_19
REMARK    5  A    between atoms: C_19  and  C_20
REMARK                            x       y       z     vdW  Elec       q    Type
REMARK                         _______ _______ _______ _____ _____    ______ ____
ROOT
ATOM      1  C   UNL     1      -0.745  13.370  22.472  0.00  0.00    +0.000 A 
ATOM      2  C   UNL     1      -1.523  12.510  23.262  0.00  0.00    +0.000 A 
ATOM      3  C   UNL     1      -1.456  11.123  23.077  0.00  0.00    +0.000 A 
ATOM      4  C   UNL     1      -0.615  10.574  22.106  0.00  0.00    +0.000 A 
ATOM      5  C   UNL     1       0.165  11.417  21.327  0.00  0.00    +0.000 A 
ATOM      6  C   UNL     1       0.070  12.808  21.493  0.00  0.00    +0.000 A 
ATOM      7  C   UNL     1       0.997  13.479  20.531  0.00  0.00    +0.000 C 
ATOM      8  C   UNL     1       1.362  12.317  19.587  0.00  0.00    +0.000 C 
ATOM      9  N   UNL     1       1.087  11.070  20.315  0.00  0.00    +0.000 N 
ATOM     10  C   UNL     1       1.404   9.862  19.698  0.00  0.00    +0.000 A 
ATOM     11  C   UNL     1       1.569   8.698  20.453  0.00  0.00    +0.000 A 
ATOM     12  C   UNL     1       1.910   7.486  19.839  0.00  0.00    +0.000 A 
ATOM     13  C   UNL     1       2.063   7.470  18.456  0.00  0.00    +0.000 A 
ATOM     14  C   UNL     1       1.901   8.660  17.769  0.00  0.00    +0.000 A 
ATOM     15  N   UNL     1       1.601   9.838  18.358  0.00  0.00    +0.000 NA
ENDROOT
BRANCH   1  17
ATOM     16  O   UNL     1      -0.060  15.400  23.480  0.00  0.00    +0.000 OA
ATOM     17  C   UNL     1      -0.798  14.843  22.679  0.00  0.00    +0.000 C 
ATOM     18  N   UNL     1      -1.738  15.513  21.925  0.00  0.00    +0.000 N 
ATOM     19  H   UNL     1      -2.322  15.006  21.273  0.00  0.00    +0.000 HD
BRANCH  18  20
ATOM     20  C   UNL     1      -1.874  16.958  21.964  0.00  0.00    +0.000 C 
BRANCH  20  21
ATOM     21  C   UNL     1      -1.088  17.650  20.858  0.00  0.00    +0.000 C 
ATOM     22  F   UNL     1      -1.646  17.331  19.655  0.00  0.00    +0.000 F 
ENDBRANCH  20  21
ENDBRANCH  18  20
ENDBRANCH   1  17
BRANCH  12  23
ATOM     23  C   UNL     1       2.070   6.228  20.656  0.00  0.00    +0.000 C 
BRANCH  23  24
ATOM     24  C   UNL     1       2.216   4.991  19.801  0.00  0.00    +0.000 A 
ATOM     25  C   UNL     1       3.419   4.729  19.124  0.00  0.00    +0.000 A 
ATOM     26  C   UNL     1       3.524   3.621  18.285  0.00  0.00    +0.000 A 
ATOM     27  F   UNL     1       4.680   3.396  17.644  0.00  0.00    +0.000 F 
ATOM     28  C   UNL     1       2.449   2.763  18.106  0.00  0.00    +0.000 A 
ATOM     29  F   UNL     1       2.555   1.707  17.288  0.00  0.00    +0.000 F 
ATOM     30  C   UNL     1       1.260   3.009  18.779  0.00  0.00    +0.000 A 
ATOM     31  F   UNL     1       0.213   2.192  18.618  0.00  0.00    +0.000 F 
ATOM     32  C   UNL     1       1.135   4.113  19.621  0.00  0.00    +0.000 A 
ENDBRANCH  23  24
ENDBRANCH  12  23
TORSDOF 5
ENDMDL
MODEL 7
REMARK VINA RESULT:      -7.7      4.349     10.081
REMARK  Name = 
REMARK  5 active torsions:
REMARK  status: ('A' for Active; 'I' for Inactive)
REMARK    1  A    between atoms: C_2  and  C_7
REMARK    2  A    between atoms: N_3  and  C_4
REMARK    3  A    between atoms: C_4  and  C_5
REMARK    4  A    between atoms: C_18  and  C_19
REMARK    5  A    between atoms: C_19  and  C_20
REMARK                            x       y       z     vdW  Elec       q    Type
REMARK                         _______ _______ _______ _____ _____    ______ ____
ROOT
ATOM      1  C   UNL     1       2.431   6.626  19.447  0.00  0.00    +0.000 A 
ATOM      2  C   UNL     1       1.874   6.310  20.694  0.00  0.00    +0.000 A 
ATOM      3  C   UNL     1       1.033   7.220  21.347  0.00  0.00    +0.000 A 
ATOM      4  C   UNL     1       0.735   8.455  20.766  0.00  0.00    +0.000 A 
ATOM      5  C   UNL     1       1.274   8.772  19.528  0.00  0.00    +0.000 A 
ATOM      6  C   UNL     1       2.143   7.871  18.893  0.00  0.00    +0.000 A 
ATOM      7  C   UNL     1       2.587   8.456  17.591  0.00  0.00    +0.000 C 
ATOM      8  C   UNL     1       2.134   9.921  17.736  0.00  0.00    +0.000 C 
ATOM      9  N   UNL     1       1.085   9.946  18.765  0.00  0.00    +0.000 N 
ATOM     10  C   UNL     1       0.453  11.158  19.035  0.00  0.00    +0.000 A 
ATOM     11  C   UNL     1      -0.794  11.187  19.661  0.00  0.00    +0.000 A 
ATOM     12  C   UNL     1      -1.443  12.403  19.915  0.00  0.00    +0.000 A 
ATOM     13  C   UNL     1      -0.802  13.580  19.539  0.00  0.00    +0.000 A 
ATOM     14  C   UNL     1       0.425  13.481  18.908  0.00  0.00    +0.000 A 
ATOM     15  N   UNL     1       1.042  12.311  18.635  0.00  0.00    +0.000 NA
ENDROOT
BRANCH   1  17
ATOM     16  O   UNL     1       4.523   5.662  18.895  0.00  0.00    +0.000 OA
ATOM     17  C   UNL     1       3.309   5.653  18.741  0.00  0.00    +0.000 C 
ATOM     18  N   UNL     1       2.660   4.769  17.905  0.00  0.00    +0.000 N 
ATOM     19  H   UNL     1       1.653   4.800  17.815  0.00  0.00    +0.000 HD
BRANCH  18  20
ATOM     20  C   UNL     1       3.365   3.718  17.193  0.00  0.00    +0.000 C 
BRANCH  20  21
ATOM     21  C   UNL     1       3.323   2.385  17.927  0.00  0.00    +0.000 C 
ATOM     22  F   UNL     1       2.147   2.294  18.611  0.00  0.00    +0.000 F 
ENDBRANCH  20  21
ENDBRANCH  18  20
ENDBRANCH   1  17
BRANCH  12  23
ATOM     23  C   UNL     1      -2.782  12.432  20.608  0.00  0.00    +0.000 C 
BRANCH  23  24
ATOM     24  C   UNL     1      -3.942  12.381  19.640  0.00  0.00    +0.000 A 
ATOM     25  C   UNL     1      -3.821  11.703  18.417  0.00  0.00    +0.000 A 
ATOM     26  C   UNL     1      -4.872  11.716  17.501  0.00  0.00    +0.000 A 
ATOM     27  F   UNL     1      -4.731  11.068  16.336  0.00  0.00    +0.000 F 
ATOM     28  C   UNL     1      -6.048  12.396  17.783  0.00  0.00    +0.000 A 
ATOM     29  F   UNL     1      -7.049  12.414  16.892  0.00  0.00    +0.000 F 
ATOM     30  C   UNL     1      -6.179  13.061  18.994  0.00  0.00    +0.000 A 
ATOM     31  F   UNL     1      -7.307  13.721  19.282  0.00  0.00    +0.000 F 
ATOM     32  C   UNL     1      -5.139  13.060  19.922  0.00  0.00    +0.000 A 
ENDBRANCH  23  24
ENDBRANCH  12  23
TORSDOF 5
ENDMDL
MODEL 8
REMARK VINA RESULT:      -7.6      3.612      9.439
REMARK  Name = 
REMARK  5 active torsions:
REMARK  status: ('A' for Active; 'I' for Inactive)
REMARK    1  A    between atoms: C_2  and  C_7
REMARK    2  A    between atoms: N_3  and  C_4
REMARK    3  A    between atoms: C_4  and  C_5
REMARK    4  A    between atoms: C_18  and  C_19
REMARK    5  A    between atoms: C_19  and  C_20
REMARK                            x       y       z     vdW  Elec       q    Type
REMARK                         _______ _______ _______ _____ _____    ______ ____
ROOT
ATOM      1  C   UNL     1       2.277   7.104  19.404  0.00  0.00    +0.000 A 
ATOM      2  C   UNL     1       2.625   7.411  18.080  0.00  0.00    +0.000 A 
ATOM      3  C   UNL     1       2.290   8.655  17.528  0.00  0.00    +0.000 A 
ATOM      4  C   UNL     1       1.608   9.609  18.287  0.00  0.00    +0.000 A 
ATOM      5  C   UNL     1       1.269   9.318  19.600  0.00  0.00    +0.000 A 
ATOM      6  C   UNL     1       1.576   8.058  20.138  0.00  0.00    +0.000 A 
ATOM      7  C   UNL     1       1.095   8.000  21.553  0.00  0.00    +0.000 C 
ATOM      8  C   UNL     1       0.190   9.245  21.626  0.00  0.00    +0.000 C 
ATOM      9  N   UNL     1       0.603  10.140  20.536  0.00  0.00    +0.000 N 
ATOM     10  C   UNL     1      -0.021  11.382  20.429  0.00  0.00    +0.000 A 
ATOM     11  C   UNL     1       0.581  12.423  19.719  0.00  0.00    +0.000 A 
ATOM     12  C   UNL     1      -0.033  13.679  19.627  0.00  0.00    +0.000 A 
ATOM     13  C   UNL     1      -1.266  13.854  20.249  0.00  0.00    +0.000 A 
ATOM     14  C   UNL     1      -1.799  12.788  20.949  0.00  0.00    +0.000 A 
ATOM     15  N   UNL     1      -1.199  11.583  21.066  0.00  0.00    +0.000 NA
ENDROOT
BRANCH   1  17
ATOM     16  O   UNL     1       3.807   5.398  19.999  0.00  0.00    +0.000 OA
ATOM     17  C   UNL     1       2.648   5.792  19.999  0.00  0.00    +0.000 C 
ATOM     18  N   UNL     1       1.602   5.064  20.524  0.00  0.00    +0.000 N 
ATOM     19  H   UNL     1       0.662   5.436  20.503  0.00  0.00    +0.000 HD
BRANCH  18  20
ATOM     20  C   UNL     1       1.805   3.792  21.196  0.00  0.00    +0.000 C 
BRANCH  20  21
ATOM     21  C   UNL     1       1.558   2.601  20.280  0.00  0.00    +0.000 C 
ATOM     22  F   UNL     1       0.359   2.768  19.653  0.00  0.00    +0.000 F 
ENDBRANCH  20  21
ENDBRANCH  18  20
ENDBRANCH   1  17
BRANCH  12  23
ATOM     23  C   UNL     1       0.612  14.796  18.845  0.00  0.00    +0.000 C 
BRANCH  23  24
ATOM     24  C   UNL     1       2.086  14.940  19.140  0.00  0.00    +0.000 A 
ATOM     25  C   UNL     1       2.522  15.393  20.396  0.00  0.00    +0.000 A 
ATOM     26  C   UNL     1       3.881  15.586  20.639  0.00  0.00    +0.000 A 
ATOM     27  F   UNL     1       4.272  16.026  21.844  0.00  0.00    +0.000 F 
ATOM     28  C   UNL     1       4.820  15.334  19.650  0.00  0.00    +0.000 A 
ATOM     29  F   UNL     1       6.124  15.534  19.889  0.00  0.00    +0.000 F 
ATOM     30  C   UNL     1       4.399  14.877  18.409  0.00  0.00    +0.000 A 
ATOM     31  F   UNL     1       5.292  14.630  17.444  0.00  0.00    +0.000 F 
ATOM     32  C   UNL     1       3.045  14.679  18.146  0.00  0.00    +0.000 A 
ENDBRANCH  23  24
ENDBRANCH  12  23
TORSDOF 5
ENDMDL
MODEL 9
REMARK VINA RESULT:      -7.6      3.460      4.948
REMARK  Name = 
REMARK  5 active torsions:
REMARK  status: ('A' for Active; 'I' for Inactive)
REMARK    1  A    between atoms: C_2  and  C_7
REMARK    2  A    between atoms: N_3  and  C_4
REMARK    3  A    between atoms: C_4  and  C_5
REMARK    4  A    between atoms: C_18  and  C_19
REMARK    5  A    between atoms: C_19  and  C_20
REMARK                            x       y       z     vdW  Elec       q    Type
REMARK                         _______ _______ _______ _____ _____    ______ ____
ROOT
ATOM      1  C   UNL     1       0.842  10.702  19.470  0.00  0.00    +0.000 A 
ATOM      2  C   UNL     1       1.631  10.943  18.336  0.00  0.00    +0.000 A 
ATOM      3  C   UNL     1       2.389   9.911  17.766  0.00  0.00    +0.000 A 
ATOM      4  C   UNL     1       2.370   8.627  18.317  0.00  0.00    +0.000 A 
ATOM      5  C   UNL     1       1.585   8.377  19.433  0.00  0.00    +0.000 A 
ATOM      6  C   UNL     1       0.853   9.422  20.021  0.00  0.00    +0.000 A 
ATOM      7  C   UNL     1       0.110   8.893  21.205  0.00  0.00    +0.000 C 
ATOM      8  C   UNL     1       0.778   7.519  21.404  0.00  0.00    +0.000 C 
ATOM      9  N   UNL     1       1.409   7.159  20.126  0.00  0.00    +0.000 N 
ATOM     10  C   UNL     1       2.026   5.914  20.022  0.00  0.00    +0.000 A 
ATOM     11  C   UNL     1       2.265   5.340  18.772  0.00  0.00    +0.000 A 
ATOM     12  C   UNL     1       2.865   4.079  18.663  0.00  0.00    +0.000 A 
ATOM     13  C   UNL     1       3.232   3.423  19.835  0.00  0.00    +0.000 A 
ATOM     14  C   UNL     1       2.953   4.039  21.041  0.00  0.00    +0.000 A 
ATOM     15  N   UNL     1       2.348   5.242  21.153  0.00  0.00    +0.000 NA
ENDROOT
BRANCH   1  17
ATOM     16  O   UNL     1      -1.044  12.131  19.565  0.00  0.00    +0.000 OA
ATOM     17  C   UNL     1       0.020  11.790  20.065  0.00  0.00    +0.000 C 
ATOM     18  N   UNL     1       0.550  12.383  21.192  0.00  0.00    +0.000 N 
ATOM     19  H   UNL     1       1.431  12.061  21.569  0.00  0.00    +0.000 HD
BRANCH  18  20
ATOM     20  C   UNL     1      -0.157  13.417  21.927  0.00  0.00    +0.000 C 
BRANCH  20  21
ATOM     21  C   UNL     1      -1.099  12.846  22.979  0.00  0.00    +0.000 C 
ATOM     22  F   UNL     1      -0.836  11.516  23.132  0.00  0.00    +0.000 F 
ENDBRANCH  20  21
ENDBRANCH  18  20
ENDBRANCH   1  17
BRANCH  12  23
ATOM     23  C   UNL     1       3.137   3.469  17.310  0.00  0.00    +0.000 C 
BRANCH  23  24
ATOM     24  C   UNL     1       4.433   3.952  16.703  0.00  0.00    +0.000 A 
ATOM     25  C   UNL     1       4.613   3.949  15.310  0.00  0.00    +0.000 A 
ATOM     26  C   UNL     1       5.835   4.333  14.760  0.00  0.00    +0.000 A 
ATOM     27  F   UNL     1       5.986   4.315  13.428  0.00  0.00    +0.000 F 
ATOM     28  C   UNL     1       6.888   4.724  15.575  0.00  0.00    +0.000 A 
ATOM     29  F   UNL     1       8.063   5.080  15.039  0.00  0.00    +0.000 F 
ATOM     30  C   UNL     1       6.714   4.739  16.952  0.00  0.00    +0.000 A 
ATOM     31  F   UNL     1       7.719   5.112  17.754  0.00  0.00    +0.000 F 
ATOM     32  C   UNL     1       5.501   4.357  17.521  0.00  0.00    +0.000 A 
ENDBRANCH  23  24
ENDBRANCH  12  23
TORSDOF 5
ENDMDL
