MODEL 1
REMARK VINA RESULT:      -7.5      0.000      0.000
REMARK  Name = 
REMARK  5 active torsions:
REMARK  status: ('A' for Active; 'I' for Inactive)
REMARK    1  A    between atoms: C_2  and  C_3
REMARK    2  A    between atoms: N_6  and  C_7
REMARK    3  A    between atoms: C_12  and  O_13
REMARK    4  A    between atoms: O_13  and  C_14
REMARK    5  A    between atoms: C_16  and  N_17
REMARK                            x       y       z     vdW  Elec       q    Type
REMARK                         _______ _______ _______ _____ _____    ______ ____
ROOT
ATOM      1  C   UNL     1       0.401   9.981  21.111  0.00  0.00    +0.000 C 
ATOM      2  C   UNL     1      -0.193   8.554  21.092  0.00  0.00    +0.000 C 
ATOM      3  C   UNL     1       1.183   8.017  21.531  0.00  0.00    +0.000 C 
ATOM      4  C   UNL     1       1.505   9.432  22.049  0.00  0.00    +0.000 C 
ENDROOT
BRANCH   3   5
ATOM      5  N   UNL     1       2.037   7.656  20.431  0.00  0.00    +0.000 N 
ATOM      6  C   UNL     1       2.172   6.358  20.057  0.00  0.00    +0.000 A 
ATOM      7  N   UNL     1       1.275   5.425  20.273  0.00  0.00    +0.000 NA
ATOM      8  C   UNL     1       1.719   4.205  19.805  0.00  0.00    +0.000 A 
ATOM      9  C   UNL     1       1.003   2.992  19.853  0.00  0.00    +0.000 A 
ATOM     10  C   UNL     1       1.582   1.822  19.352  0.00  0.00    +0.000 A 
ATOM     11  C   UNL     1       2.866   1.846  18.816  0.00  0.00    +0.000 A 
ATOM     12  C   UNL     1       3.595   3.039  18.753  0.00  0.00    +0.000 A 
ATOM     13  C   UNL     1       2.998   4.210  19.247  0.00  0.00    +0.000 A 
ATOM     14  S   UNL     1       3.614   5.818  19.290  0.00  0.00    +0.000 S 
ATOM     15  H   UNL     1       2.883   8.218  20.363  0.00  0.00    +0.000 HD
ENDBRANCH   3   5
BRANCH   1  16
ATOM     16  O   UNL     1       0.902  10.449  19.841  0.00  0.00    +0.000 OA
BRANCH  16  22
ATOM     17  C   UNL     1      -0.628  12.036  18.921  0.00  0.00    +0.000 A 
ATOM     18  N   UNL     1      -0.968  13.318  18.647  0.00  0.00    +0.000 NA
ATOM     19  C   UNL     1      -0.047  14.267  18.955  0.00  0.00    +0.000 A 
ATOM     20  C   UNL     1       1.171  13.971  19.546  0.00  0.00    +0.000 A 
ATOM     21  N   UNL     1       1.541  12.709  19.842  0.00  0.00    +0.000 NA
ATOM     22  C   UNL     1       0.629  11.763  19.508  0.00  0.00    +0.000 A 
BRANCH  17  26
ATOM     23  C   UNL     1      -2.508   9.677  16.935  0.00  0.00    +0.000 C 
ATOM     24  C   UNL     1      -3.544  10.055  17.990  0.00  0.00    +0.000 C 
ATOM     25  C   UNL     1      -2.953  11.307  18.635  0.00  0.00    +0.000 C 
ATOM     26  N   UNL     1      -1.530  11.012  18.649  0.00  0.00    +0.000 N 
ATOM     27  C   UNL     1      -1.174  10.061  17.588  0.00  0.00    +0.000 C 
BRANCH  23  29
ATOM     28  N   UNL     1      -2.904  10.985  14.688  0.00  0.00    +0.000 NA
ATOM     29  C   UNL     1      -2.721  10.414  15.680  0.00  0.00    +0.000 C 
ENDBRANCH  23  29
ENDBRANCH  17  26
ENDBRANCH  16  22
ENDBRANCH   1  16
TORSDOF 5
ENDMDL
MODEL 2
REMARK VINA RESULT:      -7.2      3.166      5.358
REMARK  Name = 
REMARK  5 active torsions:
REMARK  status: ('A' for Active; 'I' for Inactive)
REMARK    1  A    between atoms: C_2  and  C_3
REMARK    2  A    between atoms: N_6  and  C_7
REMARK    3  A    between atoms: C_12  and  O_13
REMARK    4  A    between atoms: O_13  and  C_14
REMARK    5  A    between atoms: C_16  and  N_17
REMARK                            x       y       z     vdW  Elec       q    Type
REMARK                         _______ _______ _______ _____ _____    ______ ____
ROOT
ATOM      1  C   UNL     1       1.458   5.293  20.586  0.00  0.00    +0.000 C 
ATOM      2  C   UNL     1       1.649   4.706  19.169  0.00  0.00    +0.000 C 
ATOM      3  C   UNL     1       2.859   3.914  19.702  0.00  0.00    +0.000 C 
ATOM      4  C   UNL     1       2.276   4.090  21.118  0.00  0.00    +0.000 C 
ENDROOT
BRANCH   3   5
ATOM      5  N   UNL     1       4.110   4.611  19.562  0.00  0.00    +0.000 N 
ATOM      6  C   UNL     1       4.763   4.624  18.372  0.00  0.00    +0.000 A 
ATOM      7  N   UNL     1       4.185   4.467  17.204  0.00  0.00    +0.000 NA
ATOM      8  C   UNL     1       5.122   4.498  16.190  0.00  0.00    +0.000 A 
ATOM      9  C   UNL     1       4.850   4.382  14.812  0.00  0.00    +0.000 A 
ATOM     10  C   UNL     1       5.901   4.415  13.890  0.00  0.00    +0.000 A 
ATOM     11  C   UNL     1       7.215   4.553  14.327  0.00  0.00    +0.000 A 
ATOM     12  C   UNL     1       7.511   4.674  15.689  0.00  0.00    +0.000 A 
ATOM     13  C   UNL     1       6.445   4.653  16.605  0.00  0.00    +0.000 A 
ATOM     14  S   UNL     1       6.473   4.802  18.320  0.00  0.00    +0.000 S 
ATOM     15  H   UNL     1       4.706   4.560  20.385  0.00  0.00    +0.000 HD
ENDBRANCH   3   5
BRANCH   1  16
ATOM     16  O   UNL     1       2.096   6.569  20.807  0.00  0.00    +0.000 OA
BRANCH  16  22
ATOM     17  C   UNL     1       1.197   8.655  20.072  0.00  0.00    +0.000 A 
ATOM     18  N   UNL     1       1.114   9.637  19.142  0.00  0.00    +0.000 NA
ATOM     19  C   UNL     1       1.799   9.436  17.987  0.00  0.00    +0.000 A 
ATOM     20  C   UNL     1       2.573   8.310  17.757  0.00  0.00    +0.000 A 
ATOM     21  N   UNL     1       2.686   7.315  18.661  0.00  0.00    +0.000 NA
ATOM     22  C   UNL     1       1.979   7.509  19.801  0.00  0.00    +0.000 A 
BRANCH  17  26
ATOM     23  C   UNL     1      -0.838  10.238  22.601  0.00  0.00    +0.000 C 
ATOM     24  C   UNL     1       0.205   9.537  23.468  0.00  0.00    +0.000 C 
ATOM     25  C   UNL     1       1.299   9.159  22.470  0.00  0.00    +0.000 C 
ATOM     26  N   UNL     1       0.535   8.801  21.287  0.00  0.00    +0.000 N 
ATOM     27  C   UNL     1      -0.769   9.478  21.270  0.00  0.00    +0.000 C 
BRANCH  23  29
ATOM     28  N   UNL     1      -0.275  12.784  22.260  0.00  0.00    +0.000 NA
ATOM     29  C   UNL     1      -0.521  11.663  22.421  0.00  0.00    +0.000 C 
ENDBRANCH  23  29
ENDBRANCH  17  26
ENDBRANCH  16  22
ENDBRANCH   1  16
TORSDOF 5
ENDMDL
MODEL 3
REMARK VINA RESULT:      -7.1      3.050      8.331
REMARK  Name = 
REMARK  5 active torsions:
REMARK  status: ('A' for Active; 'I' for Inactive)
REMARK    1  A    between atoms: C_2  and  C_3
REMARK    2  A    between atoms: N_6  and  C_7
REMARK    3  A    between atoms: C_12  and  O_13
REMARK    4  A    between atoms: O_13  and  C_14
REMARK    5  A    between atoms: C_16  and  N_17
REMARK                            x       y       z     vdW  Elec       q    Type
REMARK                         _______ _______ _______ _____ _____    ______ ____
ROOT
ATOM      1  C   UNL     1       2.271   8.614  17.487  0.00  0.00    +0.000 C 
ATOM      2  C   UNL     1       0.763   8.902  17.305  0.00  0.00    +0.000 C 
ATOM      3  C   UNL     1       0.896  10.040  18.335  0.00  0.00    +0.000 C 
ATOM      4  C   UNL     1       2.407  10.056  18.036  0.00  0.00    +0.000 C 
ENDROOT
BRANCH   3   5
ATOM      5  N   UNL     1       0.635   9.626  19.687  0.00  0.00    +0.000 N 
ATOM      6  C   UNL     1      -0.193  10.349  20.484  0.00  0.00    +0.000 A 
ATOM      7  N   UNL     1      -1.149  11.133  20.046  0.00  0.00    +0.000 NA
ATOM      8  C   UNL     1      -1.790  11.754  21.100  0.00  0.00    +0.000 A 
ATOM      9  C   UNL     1      -2.878  12.644  20.996  0.00  0.00    +0.000 A 
ATOM     10  C   UNL     1      -3.424  13.215  22.149  0.00  0.00    +0.000 A 
ATOM     11  C   UNL     1      -2.893  12.915  23.401  0.00  0.00    +0.000 A 
ATOM     12  C   UNL     1      -1.817  12.030  23.531  0.00  0.00    +0.000 A 
ATOM     13  C   UNL     1      -1.286  11.453  22.366  0.00  0.00    +0.000 A 
ATOM     14  S   UNL     1       0.004  10.325  22.193  0.00  0.00    +0.000 S 
ATOM     15  H   UNL     1       1.438   9.213  20.156  0.00  0.00    +0.000 HD
ENDBRANCH   3   5
BRANCH   1  16
ATOM     16  O   UNL     1       2.583   7.593  18.458  0.00  0.00    +0.000 OA
BRANCH  16  22
ATOM     17  C   UNL     1       3.380   5.346  18.330  0.00  0.00    +0.000 A 
ATOM     18  N   UNL     1       4.335   4.457  17.967  0.00  0.00    +0.000 NA
ATOM     19  C   UNL     1       5.479   4.974  17.449  0.00  0.00    +0.000 A 
ATOM     20  C   UNL     1       5.672   6.333  17.262  0.00  0.00    +0.000 A 
ATOM     21  N   UNL     1       4.743   7.248  17.604  0.00  0.00    +0.000 NA
ATOM     22  C   UNL     1       3.614   6.728  18.145  0.00  0.00    +0.000 A 
BRANCH  17  26
ATOM     23  C   UNL     1       1.107   3.955  20.768  0.00  0.00    +0.000 C 
ATOM     24  C   UNL     1       0.577   3.321  19.484  0.00  0.00    +0.000 C 
ATOM     25  C   UNL     1       1.699   3.565  18.477  0.00  0.00    +0.000 C 
ATOM     26  N   UNL     1       2.175   4.886  18.853  0.00  0.00    +0.000 N 
ATOM     27  C   UNL     1       1.899   5.170  20.267  0.00  0.00    +0.000 C 
BRANCH  23  29
ATOM     28  N   UNL     1       2.653   2.307  22.113  0.00  0.00    +0.000 NA
ATOM     29  C   UNL     1       1.968   3.025  21.514  0.00  0.00    +0.000 C 
ENDBRANCH  23  29
ENDBRANCH  17  26
ENDBRANCH  16  22
ENDBRANCH   1  16
TORSDOF 5
ENDMDL
MODEL 4
REMARK VINA RESULT:      -7.1      4.341      8.736
REMARK  Name = 
REMARK  5 active torsions:
REMARK  status: ('A' for Active; 'I' for Inactive)
REMARK    1  A    between atoms: C_2  and  C_3
REMARK    2  A    between atoms: N_6  and  C_7
REMARK    3  A    between atoms: C_12  and  O_13
REMARK    4  A    between atoms: O_13  and  C_14
REMARK    5  A    between atoms: C_16  and  N_17
REMARK                            x       y       z     vdW  Elec       q    Type
REMARK                         _______ _______ _______ _____ _____    ______ ____
ROOT
ATOM      1  C   UNL     1       3.318   4.453  18.838  0.00  0.00    +0.000 C 
ATOM      2  C   UNL     1       3.144   4.865  20.317  0.00  0.00    +0.000 C 
ATOM      3  C   UNL     1       1.893   5.666  19.907  0.00  0.00    +0.000 C 
ATOM      4  C   UNL     1       1.819   4.790  18.641  0.00  0.00    +0.000 C 
ENDROOT
BRANCH   3   5
ATOM      5  N   UNL     1       2.171   7.038  19.577  0.00  0.00    +0.000 N 
ATOM      6  C   UNL     1       1.502   8.046  20.193  0.00  0.00    +0.000 A 
ATOM      7  N   UNL     1       0.951   7.956  21.380  0.00  0.00    +0.000 NA
ATOM      8  C   UNL     1       0.319   9.138  21.713  0.00  0.00    +0.000 A 
ATOM      9  C   UNL     1      -0.356   9.400  22.922  0.00  0.00    +0.000 A 
ATOM     10  C   UNL     1      -0.968  10.641  23.123  0.00  0.00    +0.000 A 
ATOM     11  C   UNL     1      -0.922  11.616  22.131  0.00  0.00    +0.000 A 
ATOM     12  C   UNL     1      -0.254  11.382  20.924  0.00  0.00    +0.000 A 
ATOM     13  C   UNL     1       0.368  10.136  20.740  0.00  0.00    +0.000 A 
ATOM     14  S   UNL     1       1.277   9.555  19.397  0.00  0.00    +0.000 S 
ATOM     15  H   UNL     1       2.381   7.193  18.593  0.00  0.00    +0.000 HD
ENDBRANCH   3   5
BRANCH   1  16
ATOM     16  O   UNL     1       4.205   5.296  18.071  0.00  0.00    +0.000 OA
BRANCH  16  22
ATOM     17  C   UNL     1       6.425   4.859  17.306  0.00  0.00    +0.000 A 
ATOM     18  N   UNL     1       7.761   4.836  17.527  0.00  0.00    +0.000 NA
ATOM     19  C   UNL     1       8.172   5.152  18.783  0.00  0.00    +0.000 A 
ATOM     20  C   UNL     1       7.295   5.511  19.793  0.00  0.00    +0.000 A 
ATOM     21  N   UNL     1       5.960   5.553  19.610  0.00  0.00    +0.000 NA
ATOM     22  C   UNL     1       5.553   5.211  18.362  0.00  0.00    +0.000 A 
BRANCH  17  26
ATOM     23  C   UNL     1       6.509   4.218  13.752  0.00  0.00    +0.000 C 
ATOM     24  C   UNL     1       5.200   4.996  13.875  0.00  0.00    +0.000 C 
ATOM     25  C   UNL     1       5.282   5.612  15.270  0.00  0.00    +0.000 C 
ATOM     26  N   UNL     1       5.932   4.564  16.038  0.00  0.00    +0.000 N 
ATOM     27  C   UNL     1       6.755   3.704  15.177  0.00  0.00    +0.000 C 
BRANCH  23  29
ATOM     28  N   UNL     1       8.488   5.753  12.952  0.00  0.00    +0.000 NA
ATOM     29  C   UNL     1       7.610   5.082  13.298  0.00  0.00    +0.000 C 
ENDBRANCH  23  29
ENDBRANCH  17  26
ENDBRANCH  16  22
ENDBRANCH   1  16
TORSDOF 5
ENDMDL
MODEL 5
REMARK VINA RESULT:      -7.1      4.335      5.776
REMARK  Name = 
REMARK  5 active torsions:
REMARK  status: ('A' for Active; 'I' for Inactive)
REMARK    1  A    between atoms: C_2  and  C_3
REMARK    2  A    between atoms: N_6  and  C_7
REMARK    3  A    between atoms: C_12  and  O_13
REMARK    4  A    between atoms: O_13  and  C_14
REMARK    5  A    between atoms: C_16  and  N_17
REMARK                            x       y       z     vdW  Elec       q    Type
REMARK                         _______ _______ _______ _____ _____    ______ ____
ROOT
ATOM      1  C   UNL     1      -3.020  12.479  23.357  0.00  0.00    +0.000 C 
ATOM      2  C   UNL     1      -1.965  11.351  23.424  0.00  0.00    +0.000 C 
ATOM      3  C   UNL     1      -1.050  12.206  22.527  0.00  0.00    +0.000 C 
ATOM      4  C   UNL     1      -1.866  13.436  22.967  0.00  0.00    +0.000 C 
ENDROOT
BRANCH   3   5
ATOM      5  N   UNL     1      -1.214  11.945  21.122  0.00  0.00    +0.000 N 
ATOM      6  C   UNL     1      -0.448  11.013  20.499  0.00  0.00    +0.000 A 
ATOM      7  N   UNL     1       0.115   9.990  21.099  0.00  0.00    +0.000 NA
ATOM      8  C   UNL     1       0.854   9.246  20.201  0.00  0.00    +0.000 A 
ATOM      9  C   UNL     1       1.572   8.070  20.497  0.00  0.00    +0.000 A 
ATOM     10  C   UNL     1       2.293   7.422  19.490  0.00  0.00    +0.000 A 
ATOM     11  C   UNL     1       2.313   7.937  18.197  0.00  0.00    +0.000 A 
ATOM     12  C   UNL     1       1.605   9.100  17.876  0.00  0.00    +0.000 A 
ATOM     13  C   UNL     1       0.874   9.735  18.894  0.00  0.00    +0.000 A 
ATOM     14  S   UNL     1      -0.107  11.149  18.818  0.00  0.00    +0.000 S 
ATOM     15  H   UNL     1      -1.427  12.772  20.570  0.00  0.00    +0.000 HD
ENDBRANCH   3   5
BRANCH   1  16
ATOM     16  O   UNL     1      -4.015  12.322  22.325  0.00  0.00    +0.000 OA
BRANCH  16  22
ATOM     17  C   UNL     1      -6.183  12.867  21.484  0.00  0.00    +0.000 A 
ATOM     18  N   UNL     1      -7.371  13.504  21.622  0.00  0.00    +0.000 NA
ATOM     19  C   UNL     1      -7.509  14.299  22.715  0.00  0.00    +0.000 A 
ATOM     20  C   UNL     1      -6.515  14.444  23.669  0.00  0.00    +0.000 A 
ATOM     21  N   UNL     1      -5.324  13.821  23.572  0.00  0.00    +0.000 NA
ATOM     22  C   UNL     1      -5.181  13.050  22.465  0.00  0.00    +0.000 A 
BRANCH  17  26
ATOM     23  C   UNL     1      -5.693  11.917  18.034  0.00  0.00    +0.000 C 
ATOM     24  C   UNL     1      -6.551  10.757  18.534  0.00  0.00    +0.000 C 
ATOM     25  C   UNL     1      -7.100  11.269  19.865  0.00  0.00    +0.000 C 
ATOM     26  N   UNL     1      -5.977  12.023  20.397  0.00  0.00    +0.000 N 
ATOM     27  C   UNL     1      -5.102  12.506  19.322  0.00  0.00    +0.000 C 
BRANCH  23  29
ATOM     28  N   UNL     1      -7.144  13.684  16.735  0.00  0.00    +0.000 NA
ATOM     29  C   UNL     1      -6.499  12.913  17.311  0.00  0.00    +0.000 C 
ENDBRANCH  23  29
ENDBRANCH  17  26
ENDBRANCH  16  22
ENDBRANCH   1  16
TORSDOF 5
ENDMDL
MODEL 6
REMARK VINA RESULT:      -7.0      2.733      4.056
REMARK  Name = 
REMARK  5 active torsions:
REMARK  status: ('A' for Active; 'I' for Inactive)
REMARK    1  A    between atoms: C_2  and  C_3
REMARK    2  A    between atoms: N_6  and  C_7
REMARK    3  A    between atoms: C_12  and  O_13
REMARK    4  A    between atoms: O_13  and  C_14
REMARK    5  A    between atoms: C_16  and  N_17
REMARK                            x       y       z     vdW  Elec       q    Type
REMARK                         _______ _______ _______ _____ _____    ______ ____
ROOT
ATOM      1  C   UNL     1       0.424   9.890  21.983  0.00  0.00    +0.000 C 
ATOM      2  C   UNL     1      -0.238   8.575  21.514  0.00  0.00    +0.000 C 
ATOM      3  C   UNL     1       1.168   8.015  21.226  0.00  0.00    +0.000 C 
ATOM      4  C   UNL     1       1.725   9.077  22.193  0.00  0.00    +0.000 C 
ENDROOT
BRANCH   3   5
ATOM      5  N   UNL     1       1.616   8.249  19.879  0.00  0.00    +0.000 N 
ATOM      6  C   UNL     1       2.250   7.271  19.182  0.00  0.00    +0.000 A 
ATOM      7  N   UNL     1       2.110   5.986  19.408  0.00  0.00    +0.000 NA
ATOM      8  C   UNL     1       2.910   5.252  18.556  0.00  0.00    +0.000 A 
ATOM      9  C   UNL     1       2.993   3.846  18.507  0.00  0.00    +0.000 A 
ATOM     10  C   UNL     1       3.860   3.230  17.600  0.00  0.00    +0.000 A 
ATOM     11  C   UNL     1       4.650   4.000  16.750  0.00  0.00    +0.000 A 
ATOM     12  C   UNL     1       4.582   5.397  16.775  0.00  0.00    +0.000 A 
ATOM     13  C   UNL     1       3.697   6.003  17.682  0.00  0.00    +0.000 A 
ATOM     14  S   UNL     1       3.367   7.674  17.938  0.00  0.00    +0.000 S 
ATOM     15  H   UNL     1       1.960   9.192  19.716  0.00  0.00    +0.000 HD
ENDBRANCH   3   5
BRANCH   1  16
ATOM     16  O   UNL     1       0.537  10.911  20.969  0.00  0.00    +0.000 OA
BRANCH  16  22
ATOM     17  C   UNL     1      -1.582  11.966  20.656  0.00  0.00    +0.000 A 
ATOM     18  N   UNL     1      -2.646  12.254  19.869  0.00  0.00    +0.000 NA
ATOM     19  C   UNL     1      -2.663  11.679  18.639  0.00  0.00    +0.000 A 
ATOM     20  C   UNL     1      -1.643  10.863  18.176  0.00  0.00    +0.000 A 
ATOM     21  N   UNL     1      -0.564  10.560  18.926  0.00  0.00    +0.000 NA
ATOM     22  C   UNL     1      -0.566  11.115  20.163  0.00  0.00    +0.000 A 
BRANCH  17  26
ATOM     23  C   UNL     1      -2.721  13.454  23.744  0.00  0.00    +0.000 C 
ATOM     24  C   UNL     1      -1.432  14.237  23.504  0.00  0.00    +0.000 C 
ATOM     25  C   UNL     1      -1.093  13.926  22.047  0.00  0.00    +0.000 C 
ATOM     26  N   UNL     1      -1.489  12.534  21.923  0.00  0.00    +0.000 N 
ATOM     27  C   UNL     1      -2.534  12.188  22.896  0.00  0.00    +0.000 C 
BRANCH  23  29
ATOM     28  N   UNL     1      -4.838  14.821  22.994  0.00  0.00    +0.000 NA
ATOM     29  C   UNL     1      -3.904  14.215  23.314  0.00  0.00    +0.000 C 
ENDBRANCH  23  29
ENDBRANCH  17  26
ENDBRANCH  16  22
ENDBRANCH   1  16
TORSDOF 5
ENDMDL
MODEL 7
REMARK VINA RESULT:      -7.0      1.874      2.114
REMARK  Name = 
REMARK  5 active torsions:
REMARK  status: ('A' for Active; 'I' for Inactive)
REMARK    1  A    between atoms: C_2  and  C_3
REMARK    2  A    between atoms: N_6  and  C_7
REMARK    3  A    between atoms: C_12  and  O_13
REMARK    4  A    between atoms: O_13  and  C_14
REMARK    5  A    between atoms: C_16  and  N_17
REMARK                            x       y       z     vdW  Elec       q    Type
REMARK                         _______ _______ _______ _____ _____    ______ ____
ROOT
ATOM      1  C   UNL     1       0.269   9.712  21.868  0.00  0.00    +0.000 C 
ATOM      2  C   UNL     1      -0.267   8.354  21.360  0.00  0.00    +0.000 C 
ATOM      3  C   UNL     1       1.191   7.892  21.173  0.00  0.00    +0.000 C 
ATOM      4  C   UNL     1       1.605   8.989  22.172  0.00  0.00    +0.000 C 
ENDROOT
BRANCH   3   5
ATOM      5  N   UNL     1       1.715   8.156  19.860  0.00  0.00    +0.000 N 
ATOM      6  C   UNL     1       2.311   7.170  19.143  0.00  0.00    +0.000 A 
ATOM      7  N   UNL     1       2.073   5.889  19.298  0.00  0.00    +0.000 NA
ATOM      8  C   UNL     1       2.860   5.141  18.445  0.00  0.00    +0.000 A 
ATOM      9  C   UNL     1       2.848   3.736  18.330  0.00  0.00    +0.000 A 
ATOM     10  C   UNL     1       3.711   3.104  17.431  0.00  0.00    +0.000 A 
ATOM     11  C   UNL     1       4.590   3.854  16.654  0.00  0.00    +0.000 A 
ATOM     12  C   UNL     1       4.617   5.250  16.746  0.00  0.00    +0.000 A 
ATOM     13  C   UNL     1       3.735   5.874  17.644  0.00  0.00    +0.000 A 
ATOM     14  S   UNL     1       3.510   7.550  17.969  0.00  0.00    +0.000 S 
ATOM     15  H   UNL     1       2.130   9.080  19.758  0.00  0.00    +0.000 HD
ENDBRANCH   3   5
BRANCH   1  16
ATOM     16  O   UNL     1       0.383  10.738  20.860  0.00  0.00    +0.000 OA
BRANCH  16  22
ATOM     17  C   UNL     1      -1.273  12.218  19.982  0.00  0.00    +0.000 A 
ATOM     18  N   UNL     1      -2.103  13.277  20.137  0.00  0.00    +0.000 NA
ATOM     19  C   UNL     1      -2.015  13.948  21.314  0.00  0.00    +0.000 A 
ATOM     20  C   UNL     1      -1.152  13.573  22.331  0.00  0.00    +0.000 A 
ATOM     21  N   UNL     1      -0.317  12.521  22.218  0.00  0.00    +0.000 NA
ATOM     22  C   UNL     1      -0.391  11.870  21.031  0.00  0.00    +0.000 A 
BRANCH  17  26
ATOM     23  C   UNL     1      -2.442  11.180  16.726  0.00  0.00    +0.000 C 
ATOM     24  C   UNL     1      -2.081   9.832  17.346  0.00  0.00    +0.000 C 
ATOM     25  C   UNL     1      -1.931  10.154  18.832  0.00  0.00    +0.000 C 
ATOM     26  N   UNL     1      -1.321  11.472  18.808  0.00  0.00    +0.000 N 
ATOM     27  C   UNL     1      -1.644  12.187  17.566  0.00  0.00    +0.000 C 
BRANCH  23  29
ATOM     28  N   UNL     1      -5.028  11.635  16.857  0.00  0.00    +0.000 NA
ATOM     29  C   UNL     1      -3.887  11.442  16.807  0.00  0.00    +0.000 C 
ENDBRANCH  23  29
ENDBRANCH  17  26
ENDBRANCH  16  22
ENDBRANCH   1  16
TORSDOF 5
ENDMDL
MODEL 8
REMARK VINA RESULT:      -6.9      1.220      3.614
REMARK  Name = 
REMARK  5 active torsions:
REMARK  status: ('A' for Active; 'I' for Inactive)
REMARK    1  A    between atoms: C_2  and  C_3
REMARK    2  A    between atoms: N_6  and  C_7
REMARK    3  A    between atoms: C_12  and  O_13
REMARK    4  A    between atoms: O_13  and  C_14
REMARK    5  A    between atoms: C_16  and  N_17
REMARK                            x       y       z     vdW  Elec       q    Type
REMARK                         _______ _______ _______ _____ _____    ______ ____
ROOT
ATOM      1  C   UNL     1       0.446   9.919  21.501  0.00  0.00    +0.000 C 
ATOM      2  C   UNL     1      -0.196   8.518  21.380  0.00  0.00    +0.000 C 
ATOM      3  C   UNL     1       1.189   7.902  21.661  0.00  0.00    +0.000 C 
ATOM      4  C   UNL     1       1.593   9.247  22.296  0.00  0.00    +0.000 C 
ENDROOT
BRANCH   3   5
ATOM      5  N   UNL     1       1.953   7.636  20.472  0.00  0.00    +0.000 N 
ATOM      6  C   UNL     1       2.132   6.363  20.036  0.00  0.00    +0.000 A 
ATOM      7  N   UNL     1       1.321   5.365  20.300  0.00  0.00    +0.000 NA
ATOM      8  C   UNL     1       1.794   4.193  19.744  0.00  0.00    +0.000 A 
ATOM      9  C   UNL     1       1.164   2.935  19.812  0.00  0.00    +0.000 A 
ATOM     10  C   UNL     1       1.764   1.823  19.213  0.00  0.00    +0.000 A 
ATOM     11  C   UNL     1       2.985   1.951  18.558  0.00  0.00    +0.000 A 
ATOM     12  C   UNL     1       3.628   3.190  18.472  0.00  0.00    +0.000 A 
ATOM     13  C   UNL     1       3.009   4.303  19.067  0.00  0.00    +0.000 A 
ATOM     14  S   UNL     1       3.523   5.945  19.115  0.00  0.00    +0.000 S 
ATOM     15  H   UNL     1       2.751   8.255  20.345  0.00  0.00    +0.000 HD
ENDBRANCH   3   5
BRANCH   1  16
ATOM     16  O   UNL     1       0.873  10.504  20.253  0.00  0.00    +0.000 OA
BRANCH  16  22
ATOM     17  C   UNL     1       0.039  12.296  18.912  0.00  0.00    +0.000 A 
ATOM     18  N   UNL     1      -0.868  12.780  18.031  0.00  0.00    +0.000 NA
ATOM     19  C   UNL     1      -1.891  11.950  17.698  0.00  0.00    +0.000 A 
ATOM     20  C   UNL     1      -2.008  10.662  18.195  0.00  0.00    +0.000 A 
ATOM     21  N   UNL     1      -1.121  10.142  19.067  0.00  0.00    +0.000 NA
ATOM     22  C   UNL     1      -0.117  10.984  19.417  0.00  0.00    +0.000 A 
BRANCH  17  26
ATOM     23  C   UNL     1       1.858  15.304  19.741  0.00  0.00    +0.000 C 
ATOM     24  C   UNL     1       2.928  14.519  18.986  0.00  0.00    +0.000 C 
ATOM     25  C   UNL     1       2.134  13.412  18.294  0.00  0.00    +0.000 C 
ATOM     26  N   UNL     1       1.124  13.084  19.286  0.00  0.00    +0.000 N 
ATOM     27  C   UNL     1       0.857  14.223  20.173  0.00  0.00    +0.000 C 
BRANCH  23  29
ATOM     28  N   UNL     1       0.699  17.094  18.203  0.00  0.00    +0.000 NA
ATOM     29  C   UNL     1       1.218  16.311  18.880  0.00  0.00    +0.000 C 
ENDBRANCH  23  29
ENDBRANCH  17  26
ENDBRANCH  16  22
ENDBRANCH   1  16
TORSDOF 5
ENDMDL
MODEL 9
REMARK VINA RESULT:      -6.9      1.289      1.344
REMARK  Name = 
REMARK  5 active torsions:
REMARK  status: ('A' for Active; 'I' for Inactive)
REMARK    1  A    between atoms: C_2  and  C_3
REMARK    2  A    between atoms: N_6  and  C_7
REMARK    3  A    between atoms: C_12  and  O_13
REMARK    4  A    between atoms: O_13  and  C_14
REMARK    5  A    between atoms: C_16  and  N_17
REMARK                            x       y       z     vdW  Elec       q    Type
REMARK                         _______ _______ _______ _____ _____    ______ ____
ROOT
ATOM      1  C   UNL     1       0.366   9.818  21.775  0.00  0.00    +0.000 C 
ATOM      2  C   UNL     1      -0.201   8.392  21.591  0.00  0.00    +0.000 C 
ATOM      3  C   UNL     1       1.245   7.859  21.594  0.00  0.00    +0.000 C 
ATOM      4  C   UNL     1       1.660   9.158  22.311  0.00  0.00    +0.000 C 
ENDROOT
BRANCH   3   5
ATOM      5  N   UNL     1       1.830   7.776  20.283  0.00  0.00    +0.000 N 
ATOM      6  C   UNL     1       2.139   6.571  19.740  0.00  0.00    +0.000 A 
ATOM      7  N   UNL     1       1.558   5.439  20.061  0.00  0.00    +0.000 NA
ATOM      8  C   UNL     1       2.116   4.389  19.359  0.00  0.00    +0.000 A 
ATOM      9  C   UNL     1       1.721   3.039  19.441  0.00  0.00    +0.000 A 
ATOM     10  C   UNL     1       2.384   2.072  18.681  0.00  0.00    +0.000 A 
ATOM     11  C   UNL     1       3.441   2.434  17.849  0.00  0.00    +0.000 A 
ATOM     12  C   UNL     1       3.849   3.768  17.746  0.00  0.00    +0.000 A 
ATOM     13  C   UNL     1       3.165   4.733  18.506  0.00  0.00    +0.000 A 
ATOM     14  S   UNL     1       3.405   6.436  18.582  0.00  0.00    +0.000 S 
ATOM     15  H   UNL     1       2.484   8.528  20.073  0.00  0.00    +0.000 HD
ENDBRANCH   3   5
BRANCH   1  16
ATOM     16  O   UNL     1       0.559  10.560  20.552  0.00  0.00    +0.000 OA
BRANCH  16  22
ATOM     17  C   UNL     1      -0.753  12.271  19.525  0.00  0.00    +0.000 A 
ATOM     18  N   UNL     1      -1.247  13.532  19.525  0.00  0.00    +0.000 NA
ATOM     19  C   UNL     1      -0.825  14.347  20.526  0.00  0.00    +0.000 A 
ATOM     20  C   UNL     1       0.039  13.928  21.524  0.00  0.00    +0.000 A 
ATOM     21  N   UNL     1       0.545  12.679  21.563  0.00  0.00    +0.000 NA
ATOM     22  C   UNL     1       0.142  11.877  20.547  0.00  0.00    +0.000 A 
BRANCH  17  26
ATOM     23  C   UNL     1      -2.691  10.992  16.758  0.00  0.00    +0.000 C 
ATOM     24  C   UNL     1      -2.456   9.715  17.561  0.00  0.00    +0.000 C 
ATOM     25  C   UNL     1      -1.968  10.229  18.914  0.00  0.00    +0.000 C 
ATOM     26  N   UNL     1      -1.156  11.374  18.540  0.00  0.00    +0.000 N 
ATOM     27  C   UNL     1      -1.584  11.934  17.251  0.00  0.00    +0.000 C 
BRANCH  23  29
ATOM     28  N   UNL     1      -5.081  11.982  17.231  0.00  0.00    +0.000 NA
ATOM     29  C   UNL     1      -4.026  11.554  17.017  0.00  0.00    +0.000 C 
ENDBRANCH  23  29
ENDBRANCH  17  26
ENDBRANCH  16  22
ENDBRANCH   1  16
TORSDOF 5
ENDMDL
