MODEL 1
REMARK VINA RESULT:      -8.3      0.000      0.000
REMARK  Name = 
REMARK  13 active torsions:
REMARK  status: ('A' for Active; 'I' for Inactive)
REMARK    1  A    between atoms: C_1  and  C_2
REMARK    2  A    between atoms: C_4  and  N_5
REMARK    3  A    between atoms: N_5  and  C_6
REMARK    4  A    between atoms: C_8  and  N_9
REMARK    5  A    between atoms: C_14  and  C_15
REMARK    6  A    between atoms: C_22  and  C_23
REMARK    7  A    between atoms: N_25  and  C_26
REMARK    8  A    between atoms: C_26  and  C_27
REMARK    9  A    between atoms: C_27  and  C_29
REMARK   10  A    between atoms: C_29  and  C_30
REMARK   11  A    between atoms: C_29  and  C_31
REMARK   12  A    between atoms: C_29  and  O_32
REMARK   13  A    between atoms: N_33  and  C_34
REMARK                            x       y       z     vdW  Elec       q    Type
REMARK                         _______ _______ _______ _____ _____    ______ ____
ROOT
ATOM      1  C   UNL     1       0.410  10.391  20.152  0.00  0.00    +0.000 A 
ATOM      2  C   UNL     1       1.109   9.231  19.736  0.00  0.00    +0.000 A 
ATOM      3  C   UNL     1       1.489   8.230  20.635  0.00  0.00    +0.000 A 
ATOM      4  N   UNL     1       1.237   8.375  21.956  0.00  0.00    +0.000 NA
ATOM      5  C   UNL     1       0.616   9.542  22.355  0.00  0.00    +0.000 A 
ATOM      6  C   UNL     1       0.185  10.576  21.515  0.00  0.00    +0.000 A 
ENDROOT
BRANCH   3   7
ATOM      7  N   UNL     1       1.984   6.995  20.065  0.00  0.00    +0.000 N 
ATOM      8  N   UNL     1       1.627   5.798  20.657  0.00  0.00    +0.000 NA
ATOM      9  C   UNL     1       2.608   4.964  20.323  0.00  0.00    +0.000 A 
ATOM     10  C   UNL     1       3.501   5.523  19.399  0.00  0.00    +0.000 A 
ATOM     11  C   UNL     1       4.683   5.117  18.760  0.00  0.00    +0.000 A 
ATOM     12  C   UNL     1       5.096   5.869  17.661  0.00  0.00    +0.000 A 
ATOM     13  C   UNL     1       4.334   6.974  17.290  0.00  0.00    +0.000 A 
ATOM     14  N   UNL     1       3.295   7.506  17.994  0.00  0.00    +0.000 NA
ATOM     15  C   UNL     1       2.935   6.755  19.062  0.00  0.00    +0.000 A 
BRANCH  12  16
ATOM     16  C   UNL     1       6.266   5.503  16.924  0.00  0.00    +0.000 C 
ATOM     17  N   UNL     1       7.200   5.207  16.302  0.00  0.00    +0.000 NA
ENDBRANCH  12  16
ENDBRANCH   3   7
BRANCH   6  18
ATOM     18  C   UNL     1      -0.453  11.802  22.109  0.00  0.00    +0.000 C 
ATOM     19  O   UNL     1       0.126  12.879  22.031  0.00  0.00    +0.000 OA
ATOM     20  N   UNL     1      -1.693  11.667  22.715  0.00  0.00    +0.000 N 
ATOM     21  H   UNL     1      -2.045  10.724  22.869  0.00  0.00    +0.000 HD
BRANCH  20  22
ATOM     22  C   UNL     1      -2.469  12.789  23.275  0.00  0.00    +0.000 C 
BRANCH  22  23
ATOM     23  C   UNL     1      -3.809  12.356  23.900  0.00  0.00    +0.000 C 
ATOM     24  F   UNL     1      -3.797  12.760  25.218  0.00  0.00    +0.000 F 
BRANCH  23  25
ATOM     25  C   UNL     1      -5.105  12.937  23.260  0.00  0.00    +0.000 C 
ATOM     26  C   UNL     1      -6.367  12.677  24.091  0.00  0.00    +0.000 C 
ATOM     27  C   UNL     1      -4.994  14.431  22.943  0.00  0.00    +0.000 C 
BRANCH  25  28
ATOM     28  O   UNL     1      -5.313  12.287  21.990  0.00  0.00    +0.000 OA
ATOM     29  H   UNL     1      -5.092  12.934  21.294  0.00  0.00    +0.000 HD
ENDBRANCH  25  28
ENDBRANCH  23  25
ENDBRANCH  22  23
ENDBRANCH  20  22
ENDBRANCH   6  18
BRANCH   1  30
ATOM     30  N   UNL     1      -0.100  11.293  19.169  0.00  0.00    +0.000 N 
ATOM     31  H   UNL     1       0.606  11.959  18.861  0.00  0.00    +0.000 HD
BRANCH  30  35
ATOM     32  C   UNL     1      -3.139   9.737  15.587  0.00  0.00    +0.000 C 
ATOM     33  C   UNL     1      -2.595  10.311  16.839  0.00  0.00    +0.000 A 
ATOM     34  C   UNL     1      -1.309  10.105  17.368  0.00  0.00    +0.000 A 
ATOM     35  C   UNL     1      -1.190  10.976  18.421  0.00  0.00    +0.000 A 
ATOM     36  N   UNL     1      -2.442  11.534  18.571  0.00  0.00    +0.000 N 
ATOM     37  C   UNL     1      -2.893  12.499  19.543  0.00  0.00    +0.000 C 
ATOM     38  N   UNL     1      -3.302  11.164  17.589  0.00  0.00    +0.000 NA
ENDBRANCH  30  35
ENDBRANCH   1  30
TORSDOF 9
ENDMDL
MODEL 2
REMARK VINA RESULT:      -8.0      1.196      1.251
REMARK  Name = 
REMARK  13 active torsions:
REMARK  status: ('A' for Active; 'I' for Inactive)
REMARK    1  A    between atoms: C_1  and  C_2
REMARK    2  A    between atoms: C_4  and  N_5
REMARK    3  A    between atoms: N_5  and  C_6
REMARK    4  A    between atoms: C_8  and  N_9
REMARK    5  A    between atoms: C_14  and  C_15
REMARK    6  A    between atoms: C_22  and  C_23
REMARK    7  A    between atoms: N_25  and  C_26
REMARK    8  A    between atoms: C_26  and  C_27
REMARK    9  A    between atoms: C_27  and  C_29
REMARK   10  A    between atoms: C_29  and  C_30
REMARK   11  A    between atoms: C_29  and  C_31
REMARK   12  A    between atoms: C_29  and  O_32
REMARK   13  A    between atoms: N_33  and  C_34
REMARK                            x       y       z     vdW  Elec       q    Type
REMARK                         _______ _______ _______ _____ _____    ______ ____
ROOT
ATOM      1  C   UNL     1       1.044   9.862  19.787  0.00  0.00    +0.000 A 
ATOM      2  C   UNL     1       1.689   8.705  19.287  0.00  0.00    +0.000 A 
ATOM      3  C   UNL     1       1.923   7.581  20.086  0.00  0.00    +0.000 A 
ATOM      4  N   UNL     1       1.576   7.595  21.393  0.00  0.00    +0.000 NA
ATOM      5  C   UNL     1       1.010   8.755  21.882  0.00  0.00    +0.000 A 
ATOM      6  C   UNL     1       0.723   9.909  21.142  0.00  0.00    +0.000 A 
ENDROOT
BRANCH   3   7
ATOM      7  N   UNL     1       2.373   6.382  19.409  0.00  0.00    +0.000 N 
ATOM      8  N   UNL     1       1.904   5.157  19.843  0.00  0.00    +0.000 NA
ATOM      9  C   UNL     1       2.850   4.297  19.473  0.00  0.00    +0.000 A 
ATOM     10  C   UNL     1       3.832   4.889  18.668  0.00  0.00    +0.000 A 
ATOM     11  C   UNL     1       5.023   4.472  18.054  0.00  0.00    +0.000 A 
ATOM     12  C   UNL     1       5.551   5.307  17.071  0.00  0.00    +0.000 A 
ATOM     13  C   UNL     1       4.886   6.496  16.783  0.00  0.00    +0.000 A 
ATOM     14  N   UNL     1       3.840   7.021  17.484  0.00  0.00    +0.000 NA
ATOM     15  C   UNL     1       3.367   6.186  18.440  0.00  0.00    +0.000 A 
BRANCH  12  16
ATOM     16  C   UNL     1       6.739   4.941  16.363  0.00  0.00    +0.000 C 
ATOM     17  N   UNL     1       7.710   4.625  15.809  0.00  0.00    +0.000 NA
ENDBRANCH  12  16
ENDBRANCH   3   7
BRANCH   6  18
ATOM     18  C   UNL     1       0.128  11.107  21.830  0.00  0.00    +0.000 C 
ATOM     19  O   UNL     1       0.667  12.200  21.708  0.00  0.00    +0.000 OA
ATOM     20  N   UNL     1      -1.029  10.928  22.574  0.00  0.00    +0.000 N 
ATOM     21  H   UNL     1      -1.337   9.973  22.748  0.00  0.00    +0.000 HD
BRANCH  20  22
ATOM     22  C   UNL     1      -1.763  12.019  23.242  0.00  0.00    +0.000 C 
BRANCH  22  23
ATOM     23  C   UNL     1      -2.756  12.747  22.315  0.00  0.00    +0.000 C 
ATOM     24  F   UNL     1      -2.923  11.963  21.194  0.00  0.00    +0.000 F 
BRANCH  23  25
ATOM     25  C   UNL     1      -4.178  13.026  22.888  0.00  0.00    +0.000 C 
ATOM     26  C   UNL     1      -4.329  12.636  24.363  0.00  0.00    +0.000 C 
ATOM     27  C   UNL     1      -4.625  14.477  22.688  0.00  0.00    +0.000 C 
BRANCH  25  28
ATOM     28  O   UNL     1      -5.126  12.224  22.155  0.00  0.00    +0.000 OA
ATOM     29  H   UNL     1      -5.212  11.375  22.627  0.00  0.00    +0.000 HD
ENDBRANCH  25  28
ENDBRANCH  23  25
ENDBRANCH  22  23
ENDBRANCH  20  22
ENDBRANCH   6  18
BRANCH   1  30
ATOM     30  N   UNL     1       0.680  10.908  18.884  0.00  0.00    +0.000 N 
ATOM     31  H   UNL     1       1.496  11.380  18.500  0.00  0.00    +0.000 HD
BRANCH  30  35
ATOM     32  C   UNL     1      -3.199   9.937  15.969  0.00  0.00    +0.000 C 
ATOM     33  C   UNL     1      -2.293  10.536  16.976  0.00  0.00    +0.000 A 
ATOM     34  C   UNL     1      -1.160   9.933  17.550  0.00  0.00    +0.000 A 
ATOM     35  C   UNL     1      -0.533  10.917  18.270  0.00  0.00    +0.000 A 
ATOM     36  N   UNL     1      -1.389  11.998  18.227  0.00  0.00    +0.000 N 
ATOM     37  C   UNL     1      -1.241  13.295  18.838  0.00  0.00    +0.000 C 
ATOM     38  N   UNL     1      -2.452  11.791  17.410  0.00  0.00    +0.000 NA
ENDBRANCH  30  35
ENDBRANCH   1  30
TORSDOF 9
ENDMDL
MODEL 3
REMARK VINA RESULT:      -7.9      1.872      2.155
REMARK  Name = 
REMARK  13 active torsions:
REMARK  status: ('A' for Active; 'I' for Inactive)
REMARK    1  A    between atoms: C_1  and  C_2
REMARK    2  A    between atoms: C_4  and  N_5
REMARK    3  A    between atoms: N_5  and  C_6
REMARK    4  A    between atoms: C_8  and  N_9
REMARK    5  A    between atoms: C_14  and  C_15
REMARK    6  A    between atoms: C_22  and  C_23
REMARK    7  A    between atoms: N_25  and  C_26
REMARK    8  A    between atoms: C_26  and  C_27
REMARK    9  A    between atoms: C_27  and  C_29
REMARK   10  A    between atoms: C_29  and  C_30
REMARK   11  A    between atoms: C_29  and  C_31
REMARK   12  A    between atoms: C_29  and  O_32
REMARK   13  A    between atoms: N_33  and  C_34
REMARK                            x       y       z     vdW  Elec       q    Type
REMARK                         _______ _______ _______ _____ _____    ______ ____
ROOT
ATOM      1  C   UNL     1       1.235   9.560  19.433  0.00  0.00    +0.000 A 
ATOM      2  C   UNL     1       1.870   8.486  18.762  0.00  0.00    +0.000 A 
ATOM      3  C   UNL     1       2.128   7.265  19.392  0.00  0.00    +0.000 A 
ATOM      4  N   UNL     1       1.818   7.098  20.698  0.00  0.00    +0.000 NA
ATOM      5  C   UNL     1       1.263   8.177  21.356  0.00  0.00    +0.000 A 
ATOM      6  C   UNL     1       0.952   9.420  20.790  0.00  0.00    +0.000 A 
ENDROOT
BRANCH   3   7
ATOM      7  N   UNL     1       2.562   6.173  18.546  0.00  0.00    +0.000 N 
ATOM      8  N   UNL     1       2.088   4.901  18.805  0.00  0.00    +0.000 NA
ATOM      9  C   UNL     1       3.023   4.097  18.305  0.00  0.00    +0.000 A 
ATOM     10  C   UNL     1       4.003   4.792  17.583  0.00  0.00    +0.000 A 
ATOM     11  C   UNL     1       5.184   4.460  16.902  0.00  0.00    +0.000 A 
ATOM     12  C   UNL     1       5.709   5.424  16.044  0.00  0.00    +0.000 A 
ATOM     13  C   UNL     1       5.051   6.646  15.937  0.00  0.00    +0.000 A 
ATOM     14  N   UNL     1       4.016   7.072  16.717  0.00  0.00    +0.000 NA
ATOM     15  C   UNL     1       3.546   6.111  17.549  0.00  0.00    +0.000 A 
BRANCH  12  16
ATOM     16  C   UNL     1       6.888   5.155  15.279  0.00  0.00    +0.000 C 
ATOM     17  N   UNL     1       7.854   4.964  14.664  0.00  0.00    +0.000 NA
ENDBRANCH  12  16
ENDBRANCH   3   7
BRANCH   6  18
ATOM     18  C   UNL     1       0.374  10.508  21.652  0.00  0.00    +0.000 C 
ATOM     19  O   UNL     1       0.882  11.623  21.634  0.00  0.00    +0.000 OA
ATOM     20  N   UNL     1      -0.734  10.208  22.431  0.00  0.00    +0.000 N 
ATOM     21  H   UNL     1      -1.011   9.231  22.504  0.00  0.00    +0.000 HD
BRANCH  20  22
ATOM     22  C   UNL     1      -1.449  11.190  23.267  0.00  0.00    +0.000 C 
BRANCH  22  23
ATOM     23  C   UNL     1      -2.180  12.274  22.450  0.00  0.00    +0.000 C 
ATOM     24  F   UNL     1      -3.533  12.060  22.600  0.00  0.00    +0.000 F 
BRANCH  23  25
ATOM     25  C   UNL     1      -1.909  13.756  22.848  0.00  0.00    +0.000 C 
ATOM     26  C   UNL     1      -2.226  14.755  21.729  0.00  0.00    +0.000 C 
ATOM     27  C   UNL     1      -2.635  14.170  24.130  0.00  0.00    +0.000 C 
BRANCH  25  28
ATOM     28  O   UNL     1      -0.503  13.898  23.135  0.00  0.00    +0.000 OA
ATOM     29  H   UNL     1      -0.041  13.983  22.281  0.00  0.00    +0.000 HD
ENDBRANCH  25  28
ENDBRANCH  23  25
ENDBRANCH  22  23
ENDBRANCH  20  22
ENDBRANCH   6  18
BRANCH   1  30
ATOM     30  N   UNL     1       0.844  10.717  18.692  0.00  0.00    +0.000 N 
ATOM     31  H   UNL     1       1.645  11.199  18.288  0.00  0.00    +0.000 HD
BRANCH  30  35
ATOM     32  C   UNL     1      -3.385  10.119  16.194  0.00  0.00    +0.000 C 
ATOM     33  C   UNL     1      -2.327  10.632  17.094  0.00  0.00    +0.000 A 
ATOM     34  C   UNL     1      -1.210   9.922  17.566  0.00  0.00    +0.000 A 
ATOM     35  C   UNL     1      -0.417  10.845  18.201  0.00  0.00    +0.000 A 
ATOM     36  N   UNL     1      -1.160  12.007  18.219  0.00  0.00    +0.000 N 
ATOM     37  C   UNL     1      -0.821  13.289  18.785  0.00  0.00    +0.000 C 
ATOM     38  N   UNL     1      -2.314  11.902  17.515  0.00  0.00    +0.000 NA
ENDBRANCH  30  35
ENDBRANCH   1  30
TORSDOF 9
ENDMDL
MODEL 4
REMARK VINA RESULT:      -7.9      1.273      1.441
REMARK  Name = 
REMARK  13 active torsions:
REMARK  status: ('A' for Active; 'I' for Inactive)
REMARK    1  A    between atoms: C_1  and  C_2
REMARK    2  A    between atoms: C_4  and  N_5
REMARK    3  A    between atoms: N_5  and  C_6
REMARK    4  A    between atoms: C_8  and  N_9
REMARK    5  A    between atoms: C_14  and  C_15
REMARK    6  A    between atoms: C_22  and  C_23
REMARK    7  A    between atoms: N_25  and  C_26
REMARK    8  A    between atoms: C_26  and  C_27
REMARK    9  A    between atoms: C_27  and  C_29
REMARK   10  A    between atoms: C_29  and  C_30
REMARK   11  A    between atoms: C_29  and  C_31
REMARK   12  A    between atoms: C_29  and  O_32
REMARK   13  A    between atoms: N_33  and  C_34
REMARK                            x       y       z     vdW  Elec       q    Type
REMARK                         _______ _______ _______ _____ _____    ______ ____
ROOT
ATOM      1  C   UNL     1       1.003   9.833  19.588  0.00  0.00    +0.000 A 
ATOM      2  C   UNL     1       1.693   8.631  19.299  0.00  0.00    +0.000 A 
ATOM      3  C   UNL     1       1.881   7.633  20.261  0.00  0.00    +0.000 A 
ATOM      4  N   UNL     1       1.444   7.822  21.527  0.00  0.00    +0.000 NA
ATOM      5  C   UNL     1       0.835   9.028  21.810  0.00  0.00    +0.000 A 
ATOM      6  C   UNL     1       0.589  10.063  20.898  0.00  0.00    +0.000 A 
ENDROOT
BRANCH   3   7
ATOM      7  N   UNL     1       2.388   6.361  19.791  0.00  0.00    +0.000 N 
ATOM      8  N   UNL     1       1.907   5.199  20.364  0.00  0.00    +0.000 NA
ATOM      9  C   UNL     1       2.885   4.316  20.179  0.00  0.00    +0.000 A 
ATOM     10  C   UNL     1       3.911   4.809  19.362  0.00  0.00    +0.000 A 
ATOM     11  C   UNL     1       5.144   4.335  18.889  0.00  0.00    +0.000 A 
ATOM     12  C   UNL     1       5.725   5.035  17.832  0.00  0.00    +0.000 A 
ATOM     13  C   UNL     1       5.065   6.157  17.338  0.00  0.00    +0.000 A 
ATOM     14  N   UNL     1       3.971   6.753  17.890  0.00  0.00    +0.000 NA
ATOM     15  C   UNL     1       3.446   6.051  18.924  0.00  0.00    +0.000 A 
BRANCH  12  16
ATOM     16  C   UNL     1       6.961   4.598  17.259  0.00  0.00    +0.000 C 
ATOM     17  N   UNL     1       7.978   4.259  16.814  0.00  0.00    +0.000 NA
ENDBRANCH  12  16
ENDBRANCH   3   7
BRANCH   6  18
ATOM     18  C   UNL     1      -0.064  11.333  21.371  0.00  0.00    +0.000 C 
ATOM     19  O   UNL     1       0.632  12.306  21.630  0.00  0.00    +0.000 OA
ATOM     20  N   UNL     1      -1.447  11.357  21.482  0.00  0.00    +0.000 N 
ATOM     21  H   UNL     1      -1.945  10.474  21.389  0.00  0.00    +0.000 HD
BRANCH  20  22
ATOM     22  C   UNL     1      -2.227  12.549  21.861  0.00  0.00    +0.000 C 
BRANCH  22  23
ATOM     23  C   UNL     1      -2.412  12.702  23.383  0.00  0.00    +0.000 C 
ATOM     24  F   UNL     1      -1.427  13.555  23.834  0.00  0.00    +0.000 F 
BRANCH  23  25
ATOM     25  C   UNL     1      -3.772  13.284  23.872  0.00  0.00    +0.000 C 
ATOM     26  C   UNL     1      -4.708  13.691  22.729  0.00  0.00    +0.000 C 
ATOM     27  C   UNL     1      -4.508  12.347  24.834  0.00  0.00    +0.000 C 
BRANCH  25  28
ATOM     28  O   UNL     1      -3.506  14.483  24.628  0.00  0.00    +0.000 OA
ATOM     29  H   UNL     1      -2.561  14.694  24.511  0.00  0.00    +0.000 HD
ENDBRANCH  25  28
ENDBRANCH  23  25
ENDBRANCH  22  23
ENDBRANCH  20  22
ENDBRANCH   6  18
BRANCH   1  30
ATOM     30  N   UNL     1       0.693  10.737  18.525  0.00  0.00    +0.000 N 
ATOM     31  H   UNL     1       1.524  11.009  18.003  0.00  0.00    +0.000 HD
BRANCH  30  35
ATOM     32  C   UNL     1      -3.471   9.900  15.987  0.00  0.00    +0.000 C 
ATOM     33  C   UNL     1      -2.443  10.487  16.876  0.00  0.00    +0.000 A 
ATOM     34  C   UNL     1      -1.319   9.831  17.407  0.00  0.00    +0.000 A 
ATOM     35  C   UNL     1      -0.561  10.806  18.004  0.00  0.00    +0.000 A 
ATOM     36  N   UNL     1      -1.330  11.949  17.944  0.00  0.00    +0.000 N 
ATOM     37  C   UNL     1      -1.032  13.269  18.444  0.00  0.00    +0.000 C 
ATOM     38  N   UNL     1      -2.468  11.778  17.226  0.00  0.00    +0.000 NA
ENDBRANCH  30  35
ENDBRANCH   1  30
TORSDOF 9
ENDMDL
MODEL 5
REMARK VINA RESULT:      -7.9      4.357      9.792
REMARK  Name = 
REMARK  13 active torsions:
REMARK  status: ('A' for Active; 'I' for Inactive)
REMARK    1  A    between atoms: C_1  and  C_2
REMARK    2  A    between atoms: C_4  and  N_5
REMARK    3  A    between atoms: N_5  and  C_6
REMARK    4  A    between atoms: C_8  and  N_9
REMARK    5  A    between atoms: C_14  and  C_15
REMARK    6  A    between atoms: C_22  and  C_23
REMARK    7  A    between atoms: N_25  and  C_26
REMARK    8  A    between atoms: C_26  and  C_27
REMARK    9  A    between atoms: C_27  and  C_29
REMARK   10  A    between atoms: C_29  and  C_30
REMARK   11  A    between atoms: C_29  and  C_31
REMARK   12  A    between atoms: C_29  and  O_32
REMARK   13  A    between atoms: N_33  and  C_34
REMARK                            x       y       z     vdW  Elec       q    Type
REMARK                         _______ _______ _______ _____ _____    ______ ____
ROOT
ATOM      1  C   UNL     1       2.683   7.364  18.170  0.00  0.00    +0.000 A 
ATOM      2  C   UNL     1       2.263   8.685  17.882  0.00  0.00    +0.000 A 
ATOM      3  C   UNL     1       1.633   9.489  18.837  0.00  0.00    +0.000 A 
ATOM      4  N   UNL     1       1.360   8.994  20.066  0.00  0.00    +0.000 NA
ATOM      5  C   UNL     1       1.714   7.682  20.309  0.00  0.00    +0.000 A 
ATOM      6  C   UNL     1       2.367   6.823  19.416  0.00  0.00    +0.000 A 
ENDROOT
BRANCH   3   7
ATOM      7  N   UNL     1       1.465  10.888  18.503  0.00  0.00    +0.000 N 
ATOM      8  N   UNL     1       2.493  11.547  17.856  0.00  0.00    +0.000 NA
ATOM      9  C   UNL     1       2.320  12.824  18.185  0.00  0.00    +0.000 A 
ATOM     10  C   UNL     1       1.124  13.045  18.881  0.00  0.00    +0.000 A 
ATOM     11  C   UNL     1       0.485  14.146  19.471  0.00  0.00    +0.000 A 
ATOM     12  C   UNL     1      -0.861  13.992  19.800  0.00  0.00    +0.000 A 
ATOM     13  C   UNL     1      -1.469  12.765  19.548  0.00  0.00    +0.000 A 
ATOM     14  N   UNL     1      -0.838  11.622  19.154  0.00  0.00    +0.000 NA
ATOM     15  C   UNL     1       0.471  11.810  18.860  0.00  0.00    +0.000 A 
BRANCH  12  16
ATOM     16  C   UNL     1      -1.602  15.076  20.367  0.00  0.00    +0.000 C 
ATOM     17  N   UNL     1      -2.208  15.940  20.851  0.00  0.00    +0.000 NA
ENDBRANCH  12  16
ENDBRANCH   3   7
BRANCH   6  18
ATOM     18  C   UNL     1       2.660   5.406  19.823  0.00  0.00    +0.000 C 
ATOM     19  O   UNL     1       3.794   5.102  20.171  0.00  0.00    +0.000 OA
ATOM     20  N   UNL     1       1.618   4.489  19.801  0.00  0.00    +0.000 N 
ATOM     21  H   UNL     1       0.744   4.776  19.366  0.00  0.00    +0.000 HD
BRANCH  20  22
ATOM     22  C   UNL     1       1.739   3.087  20.241  0.00  0.00    +0.000 C 
BRANCH  22  23
ATOM     23  C   UNL     1       2.103   2.116  19.101  0.00  0.00    +0.000 C 
ATOM     24  F   UNL     1       1.486   2.575  17.957  0.00  0.00    +0.000 F 
BRANCH  23  25
ATOM     25  C   UNL     1       3.617   1.957  18.767  0.00  0.00    +0.000 C 
ATOM     26  C   UNL     1       4.093   2.881  17.641  0.00  0.00    +0.000 C 
ATOM     27  C   UNL     1       4.517   2.130  19.993  0.00  0.00    +0.000 C 
BRANCH  25  28
ATOM     28  O   UNL     1       3.840   0.608  18.310  0.00  0.00    +0.000 OA
ATOM     29  H   UNL     1       4.642   0.620  17.756  0.00  0.00    +0.000 HD
ENDBRANCH  25  28
ENDBRANCH  23  25
ENDBRANCH  22  23
ENDBRANCH  20  22
ENDBRANCH   6  18
BRANCH   1  30
ATOM     30  N   UNL     1       3.471   6.653  17.213  0.00  0.00    +0.000 N 
ATOM     31  H   UNL     1       2.925   6.382  16.397  0.00  0.00    +0.000 HD
BRANCH  30  35
ATOM     32  C   UNL     1       8.134   8.190  17.824  0.00  0.00    +0.000 C 
ATOM     33  C   UNL     1       6.931   7.431  17.415  0.00  0.00    +0.000 A 
ATOM     34  C   UNL     1       5.657   7.493  18.007  0.00  0.00    +0.000 A 
ATOM     35  C   UNL     1       4.825   6.775  17.186  0.00  0.00    +0.000 A 
ATOM     36  N   UNL     1       5.653   6.195  16.250  0.00  0.00    +0.000 N 
ATOM     37  C   UNL     1       5.311   5.315  15.160  0.00  0.00    +0.000 C 
ATOM     38  N   UNL     1       6.939   6.614  16.355  0.00  0.00    +0.000 NA
ENDBRANCH  30  35
ENDBRANCH   1  30
TORSDOF 9
ENDMDL
MODEL 6
REMARK VINA RESULT:      -7.8      1.354      1.406
REMARK  Name = 
REMARK  13 active torsions:
REMARK  status: ('A' for Active; 'I' for Inactive)
REMARK    1  A    between atoms: C_1  and  C_2
REMARK    2  A    between atoms: C_4  and  N_5
REMARK    3  A    between atoms: N_5  and  C_6
REMARK    4  A    between atoms: C_8  and  N_9
REMARK    5  A    between atoms: C_14  and  C_15
REMARK    6  A    between atoms: C_22  and  C_23
REMARK    7  A    between atoms: N_25  and  C_26
REMARK    8  A    between atoms: C_26  and  C_27
REMARK    9  A    between atoms: C_27  and  C_29
REMARK   10  A    between atoms: C_29  and  C_30
REMARK   11  A    between atoms: C_29  and  C_31
REMARK   12  A    between atoms: C_29  and  O_32
REMARK   13  A    between atoms: N_33  and  C_34
REMARK                            x       y       z     vdW  Elec       q    Type
REMARK                         _______ _______ _______ _____ _____    ______ ____
ROOT
ATOM      1  C   UNL     1       1.028   9.930  19.612  0.00  0.00    +0.000 A 
ATOM      2  C   UNL     1       1.702   8.715  19.341  0.00  0.00    +0.000 A 
ATOM      3  C   UNL     1       1.863   7.722  20.312  0.00  0.00    +0.000 A 
ATOM      4  N   UNL     1       1.416   7.928  21.572  0.00  0.00    +0.000 NA
ATOM      5  C   UNL     1       0.822   9.146  21.838  0.00  0.00    +0.000 A 
ATOM      6  C   UNL     1       0.603  10.177  20.916  0.00  0.00    +0.000 A 
ENDROOT
BRANCH   3   7
ATOM      7  N   UNL     1       2.355   6.438  19.858  0.00  0.00    +0.000 N 
ATOM      8  N   UNL     1       1.862   5.290  20.447  0.00  0.00    +0.000 NA
ATOM      9  C   UNL     1       2.829   4.393  20.273  0.00  0.00    +0.000 A 
ATOM     10  C   UNL     1       3.859   4.863  19.447  0.00  0.00    +0.000 A 
ATOM     11  C   UNL     1       5.086   4.369  18.979  0.00  0.00    +0.000 A 
ATOM     12  C   UNL     1       5.673   5.048  17.913  0.00  0.00    +0.000 A 
ATOM     13  C   UNL     1       5.026   6.172  17.405  0.00  0.00    +0.000 A 
ATOM     14  N   UNL     1       3.939   6.787  17.951  0.00  0.00    +0.000 NA
ATOM     15  C   UNL     1       3.408   6.105  18.994  0.00  0.00    +0.000 A 
BRANCH  12  16
ATOM     16  C   UNL     1       6.903   4.590  17.344  0.00  0.00    +0.000 C 
ATOM     17  N   UNL     1       7.902   4.241  16.865  0.00  0.00    +0.000 NA
ENDBRANCH  12  16
ENDBRANCH   3   7
BRANCH   6  18
ATOM     18  C   UNL     1      -0.034  11.461  21.370  0.00  0.00    +0.000 C 
ATOM     19  O   UNL     1       0.677  12.407  21.685  0.00  0.00    +0.000 OA
ATOM     20  N   UNL     1      -1.420  11.530  21.403  0.00  0.00    +0.000 N 
ATOM     21  H   UNL     1      -1.940  10.665  21.267  0.00  0.00    +0.000 HD
BRANCH  20  22
ATOM     22  C   UNL     1      -2.181  12.742  21.756  0.00  0.00    +0.000 C 
BRANCH  22  23
ATOM     23  C   UNL     1      -3.685  12.481  21.971  0.00  0.00    +0.000 C 
ATOM     24  F   UNL     1      -4.064  13.166  23.105  0.00  0.00    +0.000 F 
BRANCH  23  25
ATOM     25  C   UNL     1      -4.647  12.927  20.829  0.00  0.00    +0.000 C 
ATOM     26  C   UNL     1      -5.979  12.169  20.822  0.00  0.00    +0.000 C 
ATOM     27  C   UNL     1      -4.911  14.435  20.830  0.00  0.00    +0.000 C 
BRANCH  25  28
ATOM     28  O   UNL     1      -4.011  12.646  19.566  0.00  0.00    +0.000 OA
ATOM     29  H   UNL     1      -3.395  13.380  19.383  0.00  0.00    +0.000 HD
ENDBRANCH  25  28
ENDBRANCH  23  25
ENDBRANCH  22  23
ENDBRANCH  20  22
ENDBRANCH   6  18
BRANCH   1  30
ATOM     30  N   UNL     1       0.744  10.830  18.538  0.00  0.00    +0.000 N 
ATOM     31  H   UNL     1       1.586  11.090  18.027  0.00  0.00    +0.000 HD
BRANCH  30  35
ATOM     32  C   UNL     1      -3.408   9.990  15.981  0.00  0.00    +0.000 C 
ATOM     33  C   UNL     1      -2.376  10.589  16.858  0.00  0.00    +0.000 A 
ATOM     34  C   UNL     1      -1.277   9.929  17.433  0.00  0.00    +0.000 A 
ATOM     35  C   UNL     1      -0.501  10.909  17.997  0.00  0.00    +0.000 A 
ATOM     36  N   UNL     1      -1.238  12.068  17.876  0.00  0.00    +0.000 N 
ATOM     37  C   UNL     1      -0.912  13.400  18.321  0.00  0.00    +0.000 C 
ATOM     38  N   UNL     1      -2.371  11.894  17.150  0.00  0.00    +0.000 NA
ENDBRANCH  30  35
ENDBRANCH   1  30
TORSDOF 9
ENDMDL
MODEL 7
REMARK VINA RESULT:      -7.7      0.646      1.299
REMARK  Name = 
REMARK  13 active torsions:
REMARK  status: ('A' for Active; 'I' for Inactive)
REMARK    1  A    between atoms: C_1  and  C_2
REMARK    2  A    between atoms: C_4  and  N_5
REMARK    3  A    between atoms: N_5  and  C_6
REMARK    4  A    between atoms: C_8  and  N_9
REMARK    5  A    between atoms: C_14  and  C_15
REMARK    6  A    between atoms: C_22  and  C_23
REMARK    7  A    between atoms: N_25  and  C_26
REMARK    8  A    between atoms: C_26  and  C_27
REMARK    9  A    between atoms: C_27  and  C_29
REMARK   10  A    between atoms: C_29  and  C_30
REMARK   11  A    between atoms: C_29  and  C_31
REMARK   12  A    between atoms: C_29  and  O_32
REMARK   13  A    between atoms: N_33  and  C_34
REMARK                            x       y       z     vdW  Elec       q    Type
REMARK                         _______ _______ _______ _____ _____    ______ ____
ROOT
ATOM      1  C   UNL     1       0.261  10.592  20.336  0.00  0.00    +0.000 A 
ATOM      2  C   UNL     1       0.981   9.465  19.873  0.00  0.00    +0.000 A 
ATOM      3  C   UNL     1       1.334   8.409  20.720  0.00  0.00    +0.000 A 
ATOM      4  N   UNL     1       1.033   8.469  22.038  0.00  0.00    +0.000 NA
ATOM      5  C   UNL     1       0.392   9.606  22.486  0.00  0.00    +0.000 A 
ATOM      6  C   UNL     1      -0.015  10.690  21.699  0.00  0.00    +0.000 A 
ENDROOT
BRANCH   3   7
ATOM      7  N   UNL     1       1.856   7.215  20.090  0.00  0.00    +0.000 N 
ATOM      8  N   UNL     1       1.574   5.986  20.657  0.00  0.00    +0.000 NA
ATOM      9  C   UNL     1       2.575   5.206  20.257  0.00  0.00    +0.000 A 
ATOM     10  C   UNL     1       3.405   5.832  19.317  0.00  0.00    +0.000 A 
ATOM     11  C   UNL     1       4.575   5.496  18.619  0.00  0.00    +0.000 A 
ATOM     12  C   UNL     1       4.911   6.299  17.530  0.00  0.00    +0.000 A 
ATOM     13  C   UNL     1       4.089   7.381  17.225  0.00  0.00    +0.000 A 
ATOM     14  N   UNL     1       3.058   7.846  17.987  0.00  0.00    +0.000 NA
ATOM     15  C   UNL     1       2.774   7.047  19.044  0.00  0.00    +0.000 A 
BRANCH  12  16
ATOM     16  C   UNL     1       6.064   6.007  16.736  0.00  0.00    +0.000 C 
ATOM     17  N   UNL     1       6.993   5.742  16.091  0.00  0.00    +0.000 NA
ENDBRANCH  12  16
ENDBRANCH   3   7
BRANCH   6  18
ATOM     18  C   UNL     1      -0.681  11.873  22.346  0.00  0.00    +0.000 C 
ATOM     19  O   UNL     1      -0.129  12.966  22.313  0.00  0.00    +0.000 OA
ATOM     20  N   UNL     1      -1.915  11.681  22.949  0.00  0.00    +0.000 N 
ATOM     21  H   UNL     1      -2.243  10.724  23.063  0.00  0.00    +0.000 HD
BRANCH  20  22
ATOM     22  C   UNL     1      -2.717  12.759  23.557  0.00  0.00    +0.000 C 
BRANCH  22  23
ATOM     23  C   UNL     1      -4.092  12.287  24.070  0.00  0.00    +0.000 C 
ATOM     24  F   UNL     1      -4.147  12.568  25.418  0.00  0.00    +0.000 F 
BRANCH  23  25
ATOM     25  C   UNL     1      -5.348  12.939  23.419  0.00  0.00    +0.000 C 
ATOM     26  C   UNL     1      -6.632  12.732  24.229  0.00  0.00    +0.000 C 
ATOM     27  C   UNL     1      -5.158  14.429  23.123  0.00  0.00    +0.000 C 
BRANCH  25  28
ATOM     28  O   UNL     1      -5.569  12.315  22.138  0.00  0.00    +0.000 OA
ATOM     29  H   UNL     1      -5.171  11.426  22.177  0.00  0.00    +0.000 HD
ENDBRANCH  25  28
ENDBRANCH  23  25
ENDBRANCH  22  23
ENDBRANCH  20  22
ENDBRANCH   6  18
BRANCH   1  30
ATOM     30  N   UNL     1      -0.220  11.554  19.394  0.00  0.00    +0.000 N 
ATOM     31  H   UNL     1       0.539  11.978  18.864  0.00  0.00    +0.000 HD
BRANCH  30  35
ATOM     32  C   UNL     1      -5.128  11.991  18.950  0.00  0.00    +0.000 C 
ATOM     33  C   UNL     1      -3.702  11.677  18.706  0.00  0.00    +0.000 A 
ATOM     34  C   UNL     1      -2.593  12.247  19.356  0.00  0.00    +0.000 A 
ATOM     35  C   UNL     1      -1.503  11.521  18.947  0.00  0.00    +0.000 A 
ATOM     36  N   UNL     1      -1.979  10.673  17.969  0.00  0.00    +0.000 N 
ATOM     37  C   UNL     1      -1.258   9.705  17.181  0.00  0.00    +0.000 C 
ATOM     38  N   UNL     1      -3.327  10.732  17.835  0.00  0.00    +0.000 NA
ENDBRANCH  30  35
ENDBRANCH   1  30
TORSDOF 9
ENDMDL
MODEL 8
REMARK VINA RESULT:      -7.7      2.185      3.010
REMARK  Name = 
REMARK  13 active torsions:
REMARK  status: ('A' for Active; 'I' for Inactive)
REMARK    1  A    between atoms: C_1  and  C_2
REMARK    2  A    between atoms: C_4  and  N_5
REMARK    3  A    between atoms: N_5  and  C_6
REMARK    4  A    between atoms: C_8  and  N_9
REMARK    5  A    between atoms: C_14  and  C_15
REMARK    6  A    between atoms: C_22  and  C_23
REMARK    7  A    between atoms: N_25  and  C_26
REMARK    8  A    between atoms: C_26  and  C_27
REMARK    9  A    between atoms: C_27  and  C_29
REMARK   10  A    between atoms: C_29  and  C_30
REMARK   11  A    between atoms: C_29  and  C_31
REMARK   12  A    between atoms: C_29  and  O_32
REMARK   13  A    between atoms: N_33  and  C_34
REMARK                            x       y       z     vdW  Elec       q    Type
REMARK                         _______ _______ _______ _____ _____    ______ ____
ROOT
ATOM      1  C   UNL     1       0.874  10.181  19.574  0.00  0.00    +0.000 A 
ATOM      2  C   UNL     1       1.565   8.969  19.329  0.00  0.00    +0.000 A 
ATOM      3  C   UNL     1       1.687   7.973  20.303  0.00  0.00    +0.000 A 
ATOM      4  N   UNL     1       1.182   8.172  21.542  0.00  0.00    +0.000 NA
ATOM      5  C   UNL     1       0.571   9.386  21.786  0.00  0.00    +0.000 A 
ATOM      6  C   UNL     1       0.389  10.420  20.859  0.00  0.00    +0.000 A 
ENDROOT
BRANCH   3   7
ATOM      7  N   UNL     1       2.205   6.694  19.866  0.00  0.00    +0.000 N 
ATOM      8  N   UNL     1       1.752   5.545  20.486  0.00  0.00    +0.000 NA
ATOM      9  C   UNL     1       2.739   4.670  20.314  0.00  0.00    +0.000 A 
ATOM     10  C   UNL     1       3.743   5.150  19.462  0.00  0.00    +0.000 A 
ATOM     11  C   UNL     1       4.974   4.678  18.983  0.00  0.00    +0.000 A 
ATOM     12  C   UNL     1       5.526   5.350  17.893  0.00  0.00    +0.000 A 
ATOM     13  C   UNL     1       4.841   6.446  17.374  0.00  0.00    +0.000 A 
ATOM     14  N   UNL     1       3.747   7.045  17.926  0.00  0.00    +0.000 NA
ATOM     15  C   UNL     1       3.252   6.370  18.991  0.00  0.00    +0.000 A 
BRANCH  12  16
ATOM     16  C   UNL     1       6.758   4.913  17.313  0.00  0.00    +0.000 C 
ATOM     17  N   UNL     1       7.753   4.531  16.853  0.00  0.00    +0.000 NA
ENDBRANCH  12  16
ENDBRANCH   3   7
BRANCH   6  18
ATOM     18  C   UNL     1      -0.274  11.699  21.289  0.00  0.00    +0.000 C 
ATOM     19  O   UNL     1       0.409  12.607  21.746  0.00  0.00    +0.000 OA
ATOM     20  N   UNL     1      -1.649  11.808  21.136  0.00  0.00    +0.000 N 
ATOM     21  H   UNL     1      -2.166  10.968  20.886  0.00  0.00    +0.000 HD
BRANCH  20  22
ATOM     22  C   UNL     1      -2.423  13.025  21.446  0.00  0.00    +0.000 C 
BRANCH  22  23
ATOM     23  C   UNL     1      -2.820  13.138  22.931  0.00  0.00    +0.000 C 
ATOM     24  F   UNL     1      -2.368  12.000  23.565  0.00  0.00    +0.000 F 
BRANCH  23  25
ATOM     25  C   UNL     1      -2.250  14.354  23.721  0.00  0.00    +0.000 C 
ATOM     26  C   UNL     1      -2.217  15.651  22.904  0.00  0.00    +0.000 C 
ATOM     27  C   UNL     1      -2.978  14.595  25.046  0.00  0.00    +0.000 C 
BRANCH  25  28
ATOM     28  O   UNL     1      -0.884  14.062  24.077  0.00  0.00    +0.000 OA
ATOM     29  H   UNL     1      -0.384  14.896  24.013  0.00  0.00    +0.000 HD
ENDBRANCH  25  28
ENDBRANCH  23  25
ENDBRANCH  22  23
ENDBRANCH  20  22
ENDBRANCH   6  18
BRANCH   1  30
ATOM     30  N   UNL     1       0.634  11.083  18.492  0.00  0.00    +0.000 N 
ATOM     31  H   UNL     1      -0.306  10.983  18.115  0.00  0.00    +0.000 HD
BRANCH  30  35
ATOM     32  C   UNL     1       4.302  14.401  18.334  0.00  0.00    +0.000 C 
ATOM     33  C   UNL     1       2.975  13.746  18.277  0.00  0.00    +0.000 A 
ATOM     34  C   UNL     1       2.723  12.367  18.170  0.00  0.00    +0.000 A 
ATOM     35  C   UNL     1       1.371  12.216  18.345  0.00  0.00    +0.000 A 
ATOM     36  N   UNL     1       0.867  13.499  18.387  0.00  0.00    +0.000 N 
ATOM     37  C   UNL     1      -0.502  13.929  18.531  0.00  0.00    +0.000 C 
ATOM     38  N   UNL     1       1.839  14.445  18.381  0.00  0.00    +0.000 NA
ENDBRANCH  30  35
ENDBRANCH   1  30
TORSDOF 9
ENDMDL
MODEL 9
REMARK VINA RESULT:      -7.6      1.865      2.597
REMARK  Name = 
REMARK  13 active torsions:
REMARK  status: ('A' for Active; 'I' for Inactive)
REMARK    1  A    between atoms: C_1  and  C_2
REMARK    2  A    between atoms: C_4  and  N_5
REMARK    3  A    between atoms: N_5  and  C_6
REMARK    4  A    between atoms: C_8  and  N_9
REMARK    5  A    between atoms: C_14  and  C_15
REMARK    6  A    between atoms: C_22  and  C_23
REMARK    7  A    between atoms: N_25  and  C_26
REMARK    8  A    between atoms: C_26  and  C_27
REMARK    9  A    between atoms: C_27  and  C_29
REMARK   10  A    between atoms: C_29  and  C_30
REMARK   11  A    between atoms: C_29  and  C_31
REMARK   12  A    between atoms: C_29  and  O_32
REMARK   13  A    between atoms: N_33  and  C_34
REMARK                            x       y       z     vdW  Elec       q    Type
REMARK                         _______ _______ _______ _____ _____    ______ ____
ROOT
ATOM      1  C   UNL     1       0.912  10.135  19.631  0.00  0.00    +0.000 A 
ATOM      2  C   UNL     1       1.575   8.936  19.271  0.00  0.00    +0.000 A 
ATOM      3  C   UNL     1       1.806   7.910  20.191  0.00  0.00    +0.000 A 
ATOM      4  N   UNL     1       1.441   8.065  21.485  0.00  0.00    +0.000 NA
ATOM      5  C   UNL     1       0.859   9.267  21.835  0.00  0.00    +0.000 A 
ATOM      6  C   UNL     1       0.572  10.329  20.969  0.00  0.00    +0.000 A 
ENDROOT
BRANCH   3   7
ATOM      7  N   UNL     1       2.275   6.649  19.657  0.00  0.00    +0.000 N 
ATOM      8  N   UNL     1       1.796   5.474  20.206  0.00  0.00    +0.000 NA
ATOM      9  C   UNL     1       2.752   4.583  19.954  0.00  0.00    +0.000 A 
ATOM     10  C   UNL     1       3.756   5.090  19.118  0.00  0.00    +0.000 A 
ATOM     11  C   UNL     1       4.963   4.615  18.584  0.00  0.00    +0.000 A 
ATOM     12  C   UNL     1       5.517   5.344  17.533  0.00  0.00    +0.000 A 
ATOM     13  C   UNL     1       4.860   6.494  17.104  0.00  0.00    +0.000 A 
ATOM     14  N   UNL     1       3.795   7.086  17.717  0.00  0.00    +0.000 NA
ATOM     15  C   UNL     1       3.296   6.354  18.743  0.00  0.00    +0.000 A 
BRANCH  12  16
ATOM     16  C   UNL     1       6.725   4.910  16.901  0.00  0.00    +0.000 C 
ATOM     17  N   UNL     1       7.720   4.567  16.410  0.00  0.00    +0.000 NA
ENDBRANCH  12  16
ENDBRANCH   3   7
BRANCH   6  18
ATOM     18  C   UNL     1      -0.042  11.590  21.512  0.00  0.00    +0.000 C 
ATOM     19  O   UNL     1       0.670  12.564  21.721  0.00  0.00    +0.000 OA
ATOM     20  N   UNL     1      -1.409  11.605  21.745  0.00  0.00    +0.000 N 
ATOM     21  H   UNL     1      -1.910  10.720  21.685  0.00  0.00    +0.000 HD
BRANCH  20  22
ATOM     22  C   UNL     1      -2.158  12.789  22.206  0.00  0.00    +0.000 C 
BRANCH  22  23
ATOM     23  C   UNL     1      -3.496  12.440  22.888  0.00  0.00    +0.000 C 
ATOM     24  F   UNL     1      -3.373  12.761  24.223  0.00  0.00    +0.000 F 
BRANCH  23  25
ATOM     25  C   UNL     1      -4.766  13.173  22.362  0.00  0.00    +0.000 C 
ATOM     26  C   UNL     1      -5.351  14.176  23.362  0.00  0.00    +0.000 C 
ATOM     27  C   UNL     1      -4.540  13.860  21.013  0.00  0.00    +0.000 C 
BRANCH  25  28
ATOM     28  O   UNL     1      -5.792  12.187  22.126  0.00  0.00    +0.000 OA
ATOM     29  H   UNL     1      -5.357  11.405  21.739  0.00  0.00    +0.000 HD
ENDBRANCH  25  28
ENDBRANCH  23  25
ENDBRANCH  22  23
ENDBRANCH  20  22
ENDBRANCH   6  18
BRANCH   1  30
ATOM     30  N   UNL     1       0.552  11.071  18.613  0.00  0.00    +0.000 N 
ATOM     31  H   UNL     1      -0.420  10.970  18.330  0.00  0.00    +0.000 HD
BRANCH  30  35
ATOM     32  C   UNL     1       4.136  14.466  18.276  0.00  0.00    +0.000 C 
ATOM     33  C   UNL     1       2.822  13.784  18.287  0.00  0.00    +0.000 A 
ATOM     34  C   UNL     1       2.593  12.401  18.186  0.00  0.00    +0.000 A 
ATOM     35  C   UNL     1       1.256  12.220  18.433  0.00  0.00    +0.000 A 
ATOM     36  N   UNL     1       0.728  13.492  18.509  0.00  0.00    +0.000 N 
ATOM     37  C   UNL     1      -0.639  13.893  18.729  0.00  0.00    +0.000 C 
ATOM     38  N   UNL     1       1.679  14.458  18.457  0.00  0.00    +0.000 NA
ENDBRANCH  30  35
ENDBRANCH   1  30
TORSDOF 9
ENDMDL
