MODEL 1
REMARK VINA RESULT:      -7.9      0.000      0.000
REMARK  Name = 
REMARK  13 active torsions:
REMARK  status: ('A' for Active; 'I' for Inactive)
REMARK    1  A    between atoms: C_1  and  O_2
REMARK    2  A    between atoms: O_2  and  C_3
REMARK    3  A    between atoms: C_5  and  C_6
REMARK    4  A    between atoms: C_6  and  C_7
REMARK    5  A    between atoms: C_11  and  O_12
REMARK    6  A    between atoms: O_12  and  C_13
REMARK    7  A    between atoms: C_13  and  C_14
REMARK    8  A    between atoms: C_14  and  C_15
REMARK    9  A    between atoms: C_15  and  N_16
REMARK   10  A    between atoms: C_19  and  C_20
REMARK   11  A    between atoms: C_20  and  O_21
REMARK   12  A    between atoms: C_20  and  C_22
REMARK   13  A    between atoms: C_20  and  C_28
REMARK                            x       y       z     vdW  Elec       q    Type
REMARK                         _______ _______ _______ _____ _____    ______ ____
ROOT
ATOM      1  N   UNL     1       9.606  10.198  18.603  0.00  0.00    +0.000 NA
ATOM      2  C   UNL     1      10.199  11.199  17.705  0.00  0.00    +0.000 C 
ATOM      3  C   UNL     1      11.305  12.024  18.346  0.00  0.00    +0.000 C 
ATOM      4  C   UNL     1      10.863  12.696  19.656  0.00  0.00    +0.000 C 
ATOM      5  C   UNL     1      10.413  11.540  20.578  0.00  0.00    +0.000 C 
ATOM      6  C   UNL     1       9.334  10.644  19.970  0.00  0.00    +0.000 C 
ENDROOT
BRANCH   1   7
ATOM      7  C   UNL     1       8.384   9.624  18.001  0.00  0.00    +0.000 C 
BRANCH   7   8
ATOM      8  C   UNL     1       8.056   8.227  18.537  0.00  0.00    +0.000 C 
BRANCH   8   9
ATOM      9  C   UNL     1       7.815   7.292  17.358  0.00  0.00    +0.000 C 
BRANCH   9  10
ATOM     10  O   UNL     1       6.537   7.506  16.777  0.00  0.00    +0.000 OA
BRANCH  10  16
ATOM     11  C   UNL     1       5.793   5.132  16.425  0.00  0.00    +0.000 A 
ATOM     12  C   UNL     1       4.794   4.193  16.693  0.00  0.00    +0.000 A 
ATOM     13  C   UNL     1       3.610   4.574  17.330  0.00  0.00    +0.000 A 
ATOM     14  C   UNL     1       3.450   5.890  17.760  0.00  0.00    +0.000 A 
ATOM     15  C   UNL     1       4.480   6.819  17.560  0.00  0.00    +0.000 A 
ATOM     16  C   UNL     1       5.657   6.452  16.891  0.00  0.00    +0.000 A 
BRANCH  13  17
ATOM     17  C   UNL     1       2.488   3.616  17.506  0.00  0.00    +0.000 C 
ATOM     18  C   UNL     1       2.779   2.165  17.792  0.00  0.00    +0.000 C 
ATOM     19  O   UNL     1       1.333   4.018  17.381  0.00  0.00    +0.000 OA
ENDBRANCH  13  17
BRANCH  11  21
ATOM     20  C   UNL     1       6.913   4.890  14.352  0.00  0.00    +0.000 C 
ATOM     21  O   UNL     1       6.926   4.720  15.770  0.00  0.00    +0.000 OA
ENDBRANCH  11  21
ENDBRANCH  10  16
ENDBRANCH   9  10
ENDBRANCH   8   9
ENDBRANCH   7   8
ENDBRANCH   1   7
BRANCH   4  22
ATOM     22  C   UNL     1       9.800  13.866  19.498  0.00  0.00    +0.000 C 
BRANCH  22  23
ATOM     23  C   UNL     1      10.402  15.111  18.818  0.00  0.00    +0.000 A 
ATOM     24  C   UNL     1       9.577  16.078  18.198  0.00  0.00    +0.000 A 
ATOM     25  C   UNL     1      10.116  17.203  17.569  0.00  0.00    +0.000 A 
ATOM     26  C   UNL     1      11.490  17.379  17.554  0.00  0.00    +0.000 A 
ATOM     27  F   UNL     1      12.011  18.457  16.952  0.00  0.00    +0.000 F 
ATOM     28  C   UNL     1      12.332  16.451  18.151  0.00  0.00    +0.000 A 
ATOM     29  C   UNL     1      11.793  15.324  18.783  0.00  0.00    +0.000 A 
ENDBRANCH  22  23
BRANCH  22  30
ATOM     30  C   UNL     1       9.131  14.235  20.847  0.00  0.00    +0.000 A 
ATOM     31  C   UNL     1       9.860  14.773  21.924  0.00  0.00    +0.000 A 
ATOM     32  C   UNL     1       9.272  14.967  23.176  0.00  0.00    +0.000 A 
ATOM     33  C   UNL     1       7.932  14.657  23.372  0.00  0.00    +0.000 A 
ATOM     34  C   UNL     1       7.169  14.186  22.308  0.00  0.00    +0.000 A 
ATOM     35  C   UNL     1       7.756  14.000  21.054  0.00  0.00    +0.000 A 
ENDBRANCH  22  30
BRANCH  22  36
ATOM     36  O   UNL     1       8.762  13.390  18.625  0.00  0.00    +0.000 OA
ATOM     37  H   UNL     1       9.034  13.569  17.713  0.00  0.00    +0.000 HD
ENDBRANCH  22  36
ENDBRANCH   4  22
TORSDOF 11
ENDMDL
MODEL 2
REMARK VINA RESULT:      -7.4      6.373     10.378
REMARK  Name = 
REMARK  13 active torsions:
REMARK  status: ('A' for Active; 'I' for Inactive)
REMARK    1  A    between atoms: C_1  and  O_2
REMARK    2  A    between atoms: O_2  and  C_3
REMARK    3  A    between atoms: C_5  and  C_6
REMARK    4  A    between atoms: C_6  and  C_7
REMARK    5  A    between atoms: C_11  and  O_12
REMARK    6  A    between atoms: O_12  and  C_13
REMARK    7  A    between atoms: C_13  and  C_14
REMARK    8  A    between atoms: C_14  and  C_15
REMARK    9  A    between atoms: C_15  and  N_16
REMARK   10  A    between atoms: C_19  and  C_20
REMARK   11  A    between atoms: C_20  and  O_21
REMARK   12  A    between atoms: C_20  and  C_22
REMARK   13  A    between atoms: C_20  and  C_28
REMARK                            x       y       z     vdW  Elec       q    Type
REMARK                         _______ _______ _______ _____ _____    ______ ____
ROOT
ATOM      1  N   UNL     1       2.724   4.598  19.176  0.00  0.00    +0.000 NA
ATOM      2  C   UNL     1       2.579   4.241  17.758  0.00  0.00    +0.000 C 
ATOM      3  C   UNL     1       3.658   3.299  17.246  0.00  0.00    +0.000 C 
ATOM      4  C   UNL     1       5.079   3.823  17.507  0.00  0.00    +0.000 C 
ATOM      5  C   UNL     1       5.172   4.008  19.039  0.00  0.00    +0.000 C 
ATOM      6  C   UNL     1       4.083   4.909  19.623  0.00  0.00    +0.000 C 
ENDROOT
BRANCH   1   7
ATOM      7  C   UNL     1       1.807   5.702  19.528  0.00  0.00    +0.000 C 
BRANCH   7   8
ATOM      8  C   UNL     1       2.502   7.066  19.560  0.00  0.00    +0.000 C 
BRANCH   8   9
ATOM      9  C   UNL     1       1.693   8.010  20.441  0.00  0.00    +0.000 C 
BRANCH   9  10
ATOM     10  O   UNL     1       0.965   8.951  19.666  0.00  0.00    +0.000 OA
BRANCH  10  16
ATOM     11  C   UNL     1       0.000  11.250  19.982  0.00  0.00    +0.000 A 
ATOM     12  C   UNL     1      -0.686  12.094  20.859  0.00  0.00    +0.000 A 
ATOM     13  C   UNL     1      -0.950  11.695  22.172  0.00  0.00    +0.000 A 
ATOM     14  C   UNL     1      -0.582  10.418  22.593  0.00  0.00    +0.000 A 
ATOM     15  C   UNL     1       0.040   9.540  21.695  0.00  0.00    +0.000 A 
ATOM     16  C   UNL     1       0.339   9.945  20.385  0.00  0.00    +0.000 A 
BRANCH  13  17
ATOM     17  C   UNL     1      -1.562  12.629  23.152  0.00  0.00    +0.000 C 
ATOM     18  C   UNL     1      -3.040  12.551  23.439  0.00  0.00    +0.000 C 
ATOM     19  O   UNL     1      -0.856  13.477  23.692  0.00  0.00    +0.000 OA
ENDBRANCH  13  17
BRANCH  11  21
ATOM     20  C   UNL     1       1.646  11.880  18.399  0.00  0.00    +0.000 C 
ATOM     21  O   UNL     1       0.264  11.695  18.711  0.00  0.00    +0.000 OA
ENDBRANCH  11  21
ENDBRANCH  10  16
ENDBRANCH   9  10
ENDBRANCH   8   9
ENDBRANCH   7   8
ENDBRANCH   1   7
BRANCH   4  22
ATOM     22  C   UNL     1       5.503   5.099  16.661  0.00  0.00    +0.000 C 
BRANCH  22  23
ATOM     23  C   UNL     1       5.930   4.730  15.227  0.00  0.00    +0.000 A 
ATOM     24  C   UNL     1       5.074   3.999  14.372  0.00  0.00    +0.000 A 
ATOM     25  C   UNL     1       5.459   3.651  13.075  0.00  0.00    +0.000 A 
ATOM     26  C   UNL     1       6.708   4.034  12.613  0.00  0.00    +0.000 A 
ATOM     27  F   UNL     1       7.081   3.703  11.369  0.00  0.00    +0.000 F 
ATOM     28  C   UNL     1       7.576   4.752  13.423  0.00  0.00    +0.000 A 
ATOM     29  C   UNL     1       7.191   5.102  14.722  0.00  0.00    +0.000 A 
ENDBRANCH  22  23
BRANCH  22  30
ATOM     30  C   UNL     1       6.596   5.937  17.373  0.00  0.00    +0.000 A 
ATOM     31  C   UNL     1       7.441   5.387  18.355  0.00  0.00    +0.000 A 
ATOM     32  C   UNL     1       8.324   6.186  19.085  0.00  0.00    +0.000 A 
ATOM     33  C   UNL     1       8.402   7.550  18.830  0.00  0.00    +0.000 A 
ATOM     34  C   UNL     1       7.626   8.110  17.820  0.00  0.00    +0.000 A 
ATOM     35  C   UNL     1       6.750   7.308  17.084  0.00  0.00    +0.000 A 
ENDBRANCH  22  30
BRANCH  22  36
ATOM     36  O   UNL     1       4.341   5.936  16.534  0.00  0.00    +0.000 OA
ATOM     37  H   UNL     1       4.214   6.129  15.594  0.00  0.00    +0.000 HD
ENDBRANCH  22  36
ENDBRANCH   4  22
TORSDOF 11
ENDMDL
MODEL 3
REMARK VINA RESULT:      -7.4      0.977      1.778
REMARK  Name = 
REMARK  13 active torsions:
REMARK  status: ('A' for Active; 'I' for Inactive)
REMARK    1  A    between atoms: C_1  and  O_2
REMARK    2  A    between atoms: O_2  and  C_3
REMARK    3  A    between atoms: C_5  and  C_6
REMARK    4  A    between atoms: C_6  and  C_7
REMARK    5  A    between atoms: C_11  and  O_12
REMARK    6  A    between atoms: O_12  and  C_13
REMARK    7  A    between atoms: C_13  and  C_14
REMARK    8  A    between atoms: C_14  and  C_15
REMARK    9  A    between atoms: C_15  and  N_16
REMARK   10  A    between atoms: C_19  and  C_20
REMARK   11  A    between atoms: C_20  and  O_21
REMARK   12  A    between atoms: C_20  and  C_22
REMARK   13  A    between atoms: C_20  and  C_28
REMARK                            x       y       z     vdW  Elec       q    Type
REMARK                         _______ _______ _______ _____ _____    ______ ____
ROOT
ATOM      1  N   UNL     1       9.507  10.095  18.647  0.00  0.00    +0.000 NA
ATOM      2  C   UNL     1      10.165  11.101  17.802  0.00  0.00    +0.000 C 
ATOM      3  C   UNL     1      11.226  11.916  18.526  0.00  0.00    +0.000 C 
ATOM      4  C   UNL     1      10.696  12.578  19.808  0.00  0.00    +0.000 C 
ATOM      5  C   UNL     1      10.180  11.416  20.686  0.00  0.00    +0.000 C 
ATOM      6  C   UNL     1       9.143  10.529  19.996  0.00  0.00    +0.000 C 
ENDROOT
BRANCH   1   7
ATOM      7  C   UNL     1       8.329   9.531  17.956  0.00  0.00    +0.000 C 
BRANCH   7   8
ATOM      8  C   UNL     1       8.002   8.104  18.407  0.00  0.00    +0.000 C 
BRANCH   8   9
ATOM      9  C   UNL     1       7.715   7.253  17.175  0.00  0.00    +0.000 C 
BRANCH   9  10
ATOM     10  O   UNL     1       6.424   7.517  16.648  0.00  0.00    +0.000 OA
BRANCH  10  16
ATOM     11  C   UNL     1       4.179   6.762  17.489  0.00  0.00    +0.000 A 
ATOM     12  C   UNL     1       3.333   5.666  17.669  0.00  0.00    +0.000 A 
ATOM     13  C   UNL     1       3.785   4.368  17.415  0.00  0.00    +0.000 A 
ATOM     14  C   UNL     1       5.070   4.169  16.916  0.00  0.00    +0.000 A 
ATOM     15  C   UNL     1       5.898   5.272  16.662  0.00  0.00    +0.000 A 
ATOM     16  C   UNL     1       5.464   6.575  16.947  0.00  0.00    +0.000 A 
BRANCH  13  17
ATOM     17  C   UNL     1       2.940   3.184  17.725  0.00  0.00    +0.000 C 
ATOM     18  C   UNL     1       1.494   3.375  18.104  0.00  0.00    +0.000 C 
ATOM     19  O   UNL     1       3.447   2.065  17.701  0.00  0.00    +0.000 OA
ENDBRANCH  13  17
BRANCH  11  21
ATOM     20  C   UNL     1       2.302   8.097  18.041  0.00  0.00    +0.000 C 
ATOM     21  O   UNL     1       3.703   8.017  17.780  0.00  0.00    +0.000 OA
ENDBRANCH  11  21
ENDBRANCH  10  16
ENDBRANCH   9  10
ENDBRANCH   8   9
ENDBRANCH   7   8
ENDBRANCH   1   7
BRANCH   4  22
ATOM     22  C   UNL     1       9.651  13.754  19.587  0.00  0.00    +0.000 C 
BRANCH  22  23
ATOM     23  C   UNL     1      10.288  14.978  18.900  0.00  0.00    +0.000 A 
ATOM     24  C   UNL     1      10.069  15.246  17.529  0.00  0.00    +0.000 A 
ATOM     25  C   UNL     1      10.652  16.347  16.897  0.00  0.00    +0.000 A 
ATOM     26  C   UNL     1      11.462  17.199  17.630  0.00  0.00    +0.000 A 
ATOM     27  F   UNL     1      12.024  18.257  17.028  0.00  0.00    +0.000 F 
ATOM     28  C   UNL     1      11.702  16.968  18.978  0.00  0.00    +0.000 A 
ATOM     29  C   UNL     1      11.117  15.866  19.612  0.00  0.00    +0.000 A 
ENDBRANCH  22  23
BRANCH  22  30
ATOM     30  C   UNL     1       8.938  14.159  20.903  0.00  0.00    +0.000 A 
ATOM     31  C   UNL     1       9.606  14.178  22.142  0.00  0.00    +0.000 A 
ATOM     32  C   UNL     1       8.918  14.408  23.335  0.00  0.00    +0.000 A 
ATOM     33  C   UNL     1       7.550  14.653  23.314  0.00  0.00    +0.000 A 
ATOM     34  C   UNL     1       6.876  14.706  22.099  0.00  0.00    +0.000 A 
ATOM     35  C   UNL     1       7.566  14.485  20.905  0.00  0.00    +0.000 A 
ENDBRANCH  22  30
BRANCH  22  36
ATOM     36  O   UNL     1       8.640  13.267  18.689  0.00  0.00    +0.000 OA
ATOM     37  H   UNL     1       7.927  12.884  19.221  0.00  0.00    +0.000 HD
ENDBRANCH  22  36
ENDBRANCH   4  22
TORSDOF 11
ENDMDL
MODEL 4
REMARK VINA RESULT:      -7.4      6.227     10.046
REMARK  Name = 
REMARK  13 active torsions:
REMARK  status: ('A' for Active; 'I' for Inactive)
REMARK    1  A    between atoms: C_1  and  O_2
REMARK    2  A    between atoms: O_2  and  C_3
REMARK    3  A    between atoms: C_5  and  C_6
REMARK    4  A    between atoms: C_6  and  C_7
REMARK    5  A    between atoms: C_11  and  O_12
REMARK    6  A    between atoms: O_12  and  C_13
REMARK    7  A    between atoms: C_13  and  C_14
REMARK    8  A    between atoms: C_14  and  C_15
REMARK    9  A    between atoms: C_15  and  N_16
REMARK   10  A    between atoms: C_19  and  C_20
REMARK   11  A    between atoms: C_20  and  O_21
REMARK   12  A    between atoms: C_20  and  C_22
REMARK   13  A    between atoms: C_20  and  C_28
REMARK                            x       y       z     vdW  Elec       q    Type
REMARK                         _______ _______ _______ _____ _____    ______ ____
ROOT
ATOM      1  N   UNL     1       2.871   5.304  19.120  0.00  0.00    +0.000 NA
ATOM      2  C   UNL     1       2.615   4.946  17.718  0.00  0.00    +0.000 C 
ATOM      3  C   UNL     1       3.530   3.853  17.185  0.00  0.00    +0.000 C 
ATOM      4  C   UNL     1       5.020   4.179  17.375  0.00  0.00    +0.000 C 
ATOM      5  C   UNL     1       5.204   4.377  18.897  0.00  0.00    +0.000 C 
ATOM      6  C   UNL     1       4.277   5.431  19.504  0.00  0.00    +0.000 C 
ENDROOT
BRANCH   1   7
ATOM      7  C   UNL     1       2.131   6.531  19.483  0.00  0.00    +0.000 C 
BRANCH   7   8
ATOM      8  C   UNL     1       1.656   7.323  18.261  0.00  0.00    +0.000 C 
BRANCH   8   9
ATOM      9  C   UNL     1       2.439   8.629  18.187  0.00  0.00    +0.000 C 
BRANCH   9  10
ATOM     10  O   UNL     1       1.661   9.670  17.614  0.00  0.00    +0.000 OA
BRANCH  10  16
ATOM     11  C   UNL     1      -0.674  10.287  18.305  0.00  0.00    +0.000 A 
ATOM     12  C   UNL     1      -1.458  10.864  19.307  0.00  0.00    +0.000 A 
ATOM     13  C   UNL     1      -0.862  11.483  20.409  0.00  0.00    +0.000 A 
ATOM     14  C   UNL     1       0.525  11.469  20.543  0.00  0.00    +0.000 A 
ATOM     15  C   UNL     1       1.313  10.826  19.579  0.00  0.00    +0.000 A 
ATOM     16  C   UNL     1       0.724  10.232  18.452  0.00  0.00    +0.000 A 
BRANCH  13  17
ATOM     17  C   UNL     1      -1.676  12.214  21.415  0.00  0.00    +0.000 C 
ATOM     18  C   UNL     1      -1.740  11.712  22.835  0.00  0.00    +0.000 C 
ATOM     19  O   UNL     1      -2.316  13.202  21.064  0.00  0.00    +0.000 OA
ENDBRANCH  13  17
BRANCH  11  21
ATOM     20  C   UNL     1      -2.705   9.959  17.131  0.00  0.00    +0.000 C 
ATOM     21  O   UNL     1      -1.301   9.717  17.225  0.00  0.00    +0.000 OA
ENDBRANCH  11  21
ENDBRANCH  10  16
ENDBRANCH   9  10
ENDBRANCH   8   9
ENDBRANCH   7   8
ENDBRANCH   1   7
BRANCH   4  22
ATOM     22  C   UNL     1       5.579   5.369  16.483  0.00  0.00    +0.000 C 
BRANCH  22  23
ATOM     23  C   UNL     1       6.077   4.880  15.108  0.00  0.00    +0.000 A 
ATOM     24  C   UNL     1       7.313   5.319  14.579  0.00  0.00    +0.000 A 
ATOM     25  C   UNL     1       7.766   4.891  13.329  0.00  0.00    +0.000 A 
ATOM     26  C   UNL     1       6.989   4.012  12.591  0.00  0.00    +0.000 A 
ATOM     27  F   UNL     1       7.419   3.597  11.391  0.00  0.00    +0.000 F 
ATOM     28  C   UNL     1       5.770   3.560  13.077  0.00  0.00    +0.000 A 
ATOM     29  C   UNL     1       5.316   3.988  14.330  0.00  0.00    +0.000 A 
ENDBRANCH  22  23
BRANCH  22  30
ATOM     30  C   UNL     1       6.673   6.187  17.216  0.00  0.00    +0.000 A 
ATOM     31  C   UNL     1       7.508   5.614  18.193  0.00  0.00    +0.000 A 
ATOM     32  C   UNL     1       8.391   6.395  18.943  0.00  0.00    +0.000 A 
ATOM     33  C   UNL     1       8.480   7.762  18.712  0.00  0.00    +0.000 A 
ATOM     34  C   UNL     1       7.714   8.345  17.707  0.00  0.00    +0.000 A 
ATOM     35  C   UNL     1       6.838   7.562  16.951  0.00  0.00    +0.000 A 
ENDBRANCH  22  30
BRANCH  22  36
ATOM     36  O   UNL     1       4.484   6.262  16.222  0.00  0.00    +0.000 OA
ATOM     37  H   UNL     1       4.787   7.165  16.396  0.00  0.00    +0.000 HD
ENDBRANCH  22  36
ENDBRANCH   4  22
TORSDOF 11
ENDMDL
MODEL 5
REMARK VINA RESULT:      -7.4      6.293     10.421
REMARK  Name = 
REMARK  13 active torsions:
REMARK  status: ('A' for Active; 'I' for Inactive)
REMARK    1  A    between atoms: C_1  and  O_2
REMARK    2  A    between atoms: O_2  and  C_3
REMARK    3  A    between atoms: C_5  and  C_6
REMARK    4  A    between atoms: C_6  and  C_7
REMARK    5  A    between atoms: C_11  and  O_12
REMARK    6  A    between atoms: O_12  and  C_13
REMARK    7  A    between atoms: C_13  and  C_14
REMARK    8  A    between atoms: C_14  and  C_15
REMARK    9  A    between atoms: C_15  and  N_16
REMARK   10  A    between atoms: C_19  and  C_20
REMARK   11  A    between atoms: C_20  and  O_21
REMARK   12  A    between atoms: C_20  and  C_22
REMARK   13  A    between atoms: C_20  and  C_28
REMARK                            x       y       z     vdW  Elec       q    Type
REMARK                         _______ _______ _______ _____ _____    ______ ____
ROOT
ATOM      1  N   UNL     1       2.669   5.790  19.117  0.00  0.00    +0.000 NA
ATOM      2  C   UNL     1       2.406   5.454  17.711  0.00  0.00    +0.000 C 
ATOM      3  C   UNL     1       3.189   4.250  17.208  0.00  0.00    +0.000 C 
ATOM      4  C   UNL     1       4.703   4.388  17.434  0.00  0.00    +0.000 C 
ATOM      5  C   UNL     1       4.873   4.576  18.959  0.00  0.00    +0.000 C 
ATOM      6  C   UNL     1       4.071   5.743  19.535  0.00  0.00    +0.000 C 
ENDROOT
BRANCH   1   7
ATOM      7  C   UNL     1       2.081   7.104  19.453  0.00  0.00    +0.000 C 
BRANCH   7   8
ATOM      8  C   UNL     1       2.052   8.065  18.260  0.00  0.00    +0.000 C 
BRANCH   8   9
ATOM      9  C   UNL     1       1.662   9.453  18.757  0.00  0.00    +0.000 C 
BRANCH   9  10
ATOM     10  O   UNL     1       0.271   9.690  18.602  0.00  0.00    +0.000 OA
BRANCH  10  16
ATOM     11  C   UNL     1      -1.180  11.563  19.439  0.00  0.00    +0.000 A 
ATOM     12  C   UNL     1      -1.694  12.195  20.574  0.00  0.00    +0.000 A 
ATOM     13  C   UNL     1      -1.266  11.824  21.852  0.00  0.00    +0.000 A 
ATOM     14  C   UNL     1      -0.366  10.770  21.999  0.00  0.00    +0.000 A 
ATOM     15  C   UNL     1       0.096  10.083  20.868  0.00  0.00    +0.000 A 
ATOM     16  C   UNL     1      -0.303  10.472  19.581  0.00  0.00    +0.000 A 
BRANCH  13  17
ATOM     17  C   UNL     1      -1.704  12.572  23.058  0.00  0.00    +0.000 C 
ATOM     18  C   UNL     1      -3.122  12.432  23.553  0.00  0.00    +0.000 C 
ATOM     19  O   UNL     1      -0.910  13.324  23.618  0.00  0.00    +0.000 OA
ENDBRANCH  13  17
BRANCH  11  21
ATOM     20  C   UNL     1      -2.636  11.191  17.609  0.00  0.00    +0.000 C 
ATOM     21  O   UNL     1      -1.605  11.981  18.203  0.00  0.00    +0.000 OA
ENDBRANCH  11  21
ENDBRANCH  10  16
ENDBRANCH   9  10
ENDBRANCH   8   9
ENDBRANCH   7   8
ENDBRANCH   1   7
BRANCH   4  22
ATOM     22  C   UNL     1       5.429   5.490  16.549  0.00  0.00    +0.000 C 
BRANCH  22  23
ATOM     23  C   UNL     1       5.914   4.925  15.200  0.00  0.00    +0.000 A 
ATOM     24  C   UNL     1       7.184   5.262  14.679  0.00  0.00    +0.000 A 
ATOM     25  C   UNL     1       7.627   4.763  13.451  0.00  0.00    +0.000 A 
ATOM     26  C   UNL     1       6.803   3.915  12.727  0.00  0.00    +0.000 A 
ATOM     27  F   UNL     1       7.224   3.434  11.549  0.00  0.00    +0.000 F 
ATOM     28  C   UNL     1       5.549   3.563  13.206  0.00  0.00    +0.000 A 
ATOM     29  C   UNL     1       5.106   4.061  14.436  0.00  0.00    +0.000 A 
ENDBRANCH  22  23
BRANCH  22  30
ATOM     30  C   UNL     1       6.585   6.186  17.312  0.00  0.00    +0.000 A 
ATOM     31  C   UNL     1       7.371   5.507  18.262  0.00  0.00    +0.000 A 
ATOM     32  C   UNL     1       8.314   6.182  19.041  0.00  0.00    +0.000 A 
ATOM     33  C   UNL     1       8.513   7.547  18.867  0.00  0.00    +0.000 A 
ATOM     34  C   UNL     1       7.797   8.230  17.889  0.00  0.00    +0.000 A 
ATOM     35  C   UNL     1       6.861   7.553  17.105  0.00  0.00    +0.000 A 
ENDBRANCH  22  30
BRANCH  22  36
ATOM     36  O   UNL     1       4.456   6.501  16.238  0.00  0.00    +0.000 OA
ATOM     37  H   UNL     1       4.814   7.050  15.524  0.00  0.00    +0.000 HD
ENDBRANCH  22  36
ENDBRANCH   4  22
TORSDOF 11
ENDMDL
MODEL 6
REMARK VINA RESULT:      -7.3      6.358     10.600
REMARK  Name = 
REMARK  13 active torsions:
REMARK  status: ('A' for Active; 'I' for Inactive)
REMARK    1  A    between atoms: C_1  and  O_2
REMARK    2  A    between atoms: O_2  and  C_3
REMARK    3  A    between atoms: C_5  and  C_6
REMARK    4  A    between atoms: C_6  and  C_7
REMARK    5  A    between atoms: C_11  and  O_12
REMARK    6  A    between atoms: O_12  and  C_13
REMARK    7  A    between atoms: C_13  and  C_14
REMARK    8  A    between atoms: C_14  and  C_15
REMARK    9  A    between atoms: C_15  and  N_16
REMARK   10  A    between atoms: C_19  and  C_20
REMARK   11  A    between atoms: C_20  and  O_21
REMARK   12  A    between atoms: C_20  and  C_22
REMARK   13  A    between atoms: C_20  and  C_28
REMARK                            x       y       z     vdW  Elec       q    Type
REMARK                         _______ _______ _______ _____ _____    ______ ____
ROOT
ATOM      1  N   UNL     1       2.623   5.541  19.195  0.00  0.00    +0.000 NA
ATOM      2  C   UNL     1       2.374   5.196  17.788  0.00  0.00    +0.000 C 
ATOM      3  C   UNL     1       3.208   4.028  17.283  0.00  0.00    +0.000 C 
ATOM      4  C   UNL     1       4.714   4.229  17.510  0.00  0.00    +0.000 C 
ATOM      5  C   UNL     1       4.876   4.420  19.036  0.00  0.00    +0.000 C 
ATOM      6  C   UNL     1       4.025   5.552  19.614  0.00  0.00    +0.000 C 
ENDROOT
BRANCH   1   7
ATOM      7  C   UNL     1       1.980   6.828  19.533  0.00  0.00    +0.000 C 
BRANCH   7   8
ATOM      8  C   UNL     1       1.521   6.898  20.993  0.00  0.00    +0.000 C 
BRANCH   8   9
ATOM      9  C   UNL     1       1.370   8.361  21.391  0.00  0.00    +0.000 C 
BRANCH   9  10
ATOM     10  O   UNL     1       0.582   9.078  20.452  0.00  0.00    +0.000 OA
BRANCH  10  16
ATOM     11  C   UNL     1      -0.845  11.143  20.334  0.00  0.00    +0.000 A 
ATOM     12  C   UNL     1      -1.655  12.019  21.060  0.00  0.00    +0.000 A 
ATOM     13  C   UNL     1      -1.759  11.906  22.449  0.00  0.00    +0.000 A 
ATOM     14  C   UNL     1      -1.100  10.871  23.110  0.00  0.00    +0.000 A 
ATOM     15  C   UNL     1      -0.347   9.944  22.377  0.00  0.00    +0.000 A 
ATOM     16  C   UNL     1      -0.210  10.070  20.986  0.00  0.00    +0.000 A 
BRANCH  13  17
ATOM     17  C   UNL     1      -2.512  12.908  23.249  0.00  0.00    +0.000 C 
ATOM     18  C   UNL     1      -4.018  12.860  23.285  0.00  0.00    +0.000 C 
ATOM     19  O   UNL     1      -1.892  13.786  23.844  0.00  0.00    +0.000 OA
ENDBRANCH  13  17
BRANCH  11  21
ATOM     20  C   UNL     1      -1.692  10.570  18.197  0.00  0.00    +0.000 C 
ATOM     21  O   UNL     1      -0.749  11.309  18.974  0.00  0.00    +0.000 OA
ENDBRANCH  11  21
ENDBRANCH  10  16
ENDBRANCH   9  10
ENDBRANCH   8   9
ENDBRANCH   7   8
ENDBRANCH   1   7
BRANCH   4  22
ATOM     22  C   UNL     1       5.393   5.362  16.628  0.00  0.00    +0.000 C 
BRANCH  22  23
ATOM     23  C   UNL     1       5.853   4.832  15.255  0.00  0.00    +0.000 A 
ATOM     24  C   UNL     1       7.148   5.109  14.759  0.00  0.00    +0.000 A 
ATOM     25  C   UNL     1       7.569   4.643  13.512  0.00  0.00    +0.000 A 
ATOM     26  C   UNL     1       6.699   3.888  12.742  0.00  0.00    +0.000 A 
ATOM     27  F   UNL     1       7.098   3.438  11.544  0.00  0.00    +0.000 F 
ATOM     28  C   UNL     1       5.419   3.596  13.194  0.00  0.00    +0.000 A 
ATOM     29  C   UNL     1       4.998   4.062  14.445  0.00  0.00    +0.000 A 
ENDBRANCH  22  23
BRANCH  22  30
ATOM     30  C   UNL     1       6.555   6.068  17.373  0.00  0.00    +0.000 A 
ATOM     31  C   UNL     1       7.334   5.408  18.341  0.00  0.00    +0.000 A 
ATOM     32  C   UNL     1       8.282   6.096  19.103  0.00  0.00    +0.000 A 
ATOM     33  C   UNL     1       8.494   7.453  18.892  0.00  0.00    +0.000 A 
ATOM     34  C   UNL     1       7.785   8.116  17.895  0.00  0.00    +0.000 A 
ATOM     35  C   UNL     1       6.843   7.426  17.128  0.00  0.00    +0.000 A 
ENDBRANCH  22  30
BRANCH  22  36
ATOM     36  O   UNL     1       4.392   6.358  16.361  0.00  0.00    +0.000 OA
ATOM     37  H   UNL     1       4.806   7.068  15.848  0.00  0.00    +0.000 HD
ENDBRANCH  22  36
ENDBRANCH   4  22
TORSDOF 11
ENDMDL
MODEL 7
REMARK VINA RESULT:      -7.3      6.128      8.102
REMARK  Name = 
REMARK  13 active torsions:
REMARK  status: ('A' for Active; 'I' for Inactive)
REMARK    1  A    between atoms: C_1  and  O_2
REMARK    2  A    between atoms: O_2  and  C_3
REMARK    3  A    between atoms: C_5  and  C_6
REMARK    4  A    between atoms: C_6  and  C_7
REMARK    5  A    between atoms: C_11  and  O_12
REMARK    6  A    between atoms: O_12  and  C_13
REMARK    7  A    between atoms: C_13  and  C_14
REMARK    8  A    between atoms: C_14  and  C_15
REMARK    9  A    between atoms: C_15  and  N_16
REMARK   10  A    between atoms: C_19  and  C_20
REMARK   11  A    between atoms: C_20  and  O_21
REMARK   12  A    between atoms: C_20  and  C_22
REMARK   13  A    between atoms: C_20  and  C_28
REMARK                            x       y       z     vdW  Elec       q    Type
REMARK                         _______ _______ _______ _____ _____    ______ ____
ROOT
ATOM      1  N   UNL     1      -0.166  10.748  19.447  0.00  0.00    +0.000 NA
ATOM      2  C   UNL     1       1.010  11.471  19.952  0.00  0.00    +0.000 C 
ATOM      3  C   UNL     1       0.678  12.562  20.958  0.00  0.00    +0.000 C 
ATOM      4  C   UNL     1      -0.361  13.564  20.428  0.00  0.00    +0.000 C 
ATOM      5  C   UNL     1      -1.606  12.718  20.081  0.00  0.00    +0.000 C 
ATOM      6  C   UNL     1      -1.327  11.571  19.108  0.00  0.00    +0.000 C 
ENDROOT
BRANCH   1   7
ATOM      7  C   UNL     1       0.206   9.893  18.300  0.00  0.00    +0.000 C 
BRANCH   7   8
ATOM      8  C   UNL     1       1.687   9.503  18.305  0.00  0.00    +0.000 C 
BRANCH   8   9
ATOM      9  C   UNL     1       1.822   8.080  17.776  0.00  0.00    +0.000 C 
BRANCH   9  10
ATOM     10  O   UNL     1       2.699   7.305  18.582  0.00  0.00    +0.000 OA
BRANCH  10  16
ATOM     11  C   UNL     1       3.635   5.087  17.864  0.00  0.00    +0.000 A 
ATOM     12  C   UNL     1       4.568   4.448  17.044  0.00  0.00    +0.000 A 
ATOM     13  C   UNL     1       5.509   5.189  16.324  0.00  0.00    +0.000 A 
ATOM     14  C   UNL     1       5.475   6.581  16.373  0.00  0.00    +0.000 A 
ATOM     15  C   UNL     1       4.493   7.229  17.135  0.00  0.00    +0.000 A 
ATOM     16  C   UNL     1       3.567   6.491  17.888  0.00  0.00    +0.000 A 
BRANCH  13  17
ATOM     17  C   UNL     1       6.588   4.520  15.552  0.00  0.00    +0.000 C 
ATOM     18  C   UNL     1       6.275   3.891  14.218  0.00  0.00    +0.000 C 
ATOM     19  O   UNL     1       7.718   4.460  16.031  0.00  0.00    +0.000 OA
ENDBRANCH  13  17
BRANCH  11  21
ATOM     20  C   UNL     1       1.494   4.075  17.939  0.00  0.00    +0.000 C 
ATOM     21  O   UNL     1       2.748   4.318  18.577  0.00  0.00    +0.000 OA
ENDBRANCH  11  21
ENDBRANCH  10  16
ENDBRANCH   9  10
ENDBRANCH   8   9
ENDBRANCH   7   8
ENDBRANCH   1   7
BRANCH   4  22
ATOM     22  C   UNL     1       0.141  14.511  19.255  0.00  0.00    +0.000 C 
BRANCH  22  23
ATOM     23  C   UNL     1       1.664  14.743  19.306  0.00  0.00    +0.000 A 
ATOM     24  C   UNL     1       2.259  15.477  20.359  0.00  0.00    +0.000 A 
ATOM     25  C   UNL     1       3.637  15.702  20.406  0.00  0.00    +0.000 A 
ATOM     26  C   UNL     1       4.442  15.191  19.400  0.00  0.00    +0.000 A 
ATOM     27  F   UNL     1       5.764  15.404  19.441  0.00  0.00    +0.000 F 
ATOM     28  C   UNL     1       3.894  14.467  18.350  0.00  0.00    +0.000 A 
ATOM     29  C   UNL     1       2.514  14.240  18.303  0.00  0.00    +0.000 A 
ENDBRANCH  22  23
BRANCH  22  30
ATOM     30  C   UNL     1      -0.628  15.856  19.219  0.00  0.00    +0.000 A 
ATOM     31  C   UNL     1      -0.487  16.773  18.160  0.00  0.00    +0.000 A 
ATOM     32  C   UNL     1      -1.076  18.038  18.209  0.00  0.00    +0.000 A 
ATOM     33  C   UNL     1      -1.845  18.406  19.307  0.00  0.00    +0.000 A 
ATOM     34  C   UNL     1      -2.057  17.496  20.338  0.00  0.00    +0.000 A 
ATOM     35  C   UNL     1      -1.475  16.227  20.283  0.00  0.00    +0.000 A 
ENDBRANCH  22  30
BRANCH  22  36
ATOM     36  O   UNL     1      -0.124  13.837  18.014  0.00  0.00    +0.000 OA
ATOM     37  H   UNL     1       0.727  13.601  17.615  0.00  0.00    +0.000 HD
ENDBRANCH  22  36
ENDBRANCH   4  22
TORSDOF 11
ENDMDL
MODEL 8
REMARK VINA RESULT:      -7.2      6.544      9.173
REMARK  Name = 
REMARK  13 active torsions:
REMARK  status: ('A' for Active; 'I' for Inactive)
REMARK    1  A    between atoms: C_1  and  O_2
REMARK    2  A    between atoms: O_2  and  C_3
REMARK    3  A    between atoms: C_5  and  C_6
REMARK    4  A    between atoms: C_6  and  C_7
REMARK    5  A    between atoms: C_11  and  O_12
REMARK    6  A    between atoms: O_12  and  C_13
REMARK    7  A    between atoms: C_13  and  C_14
REMARK    8  A    between atoms: C_14  and  C_15
REMARK    9  A    between atoms: C_15  and  N_16
REMARK   10  A    between atoms: C_19  and  C_20
REMARK   11  A    between atoms: C_20  and  O_21
REMARK   12  A    between atoms: C_20  and  C_22
REMARK   13  A    between atoms: C_20  and  C_28
REMARK                            x       y       z     vdW  Elec       q    Type
REMARK                         _______ _______ _______ _____ _____    ______ ____
ROOT
ATOM      1  N   UNL     1       1.169   8.766  19.337  0.00  0.00    +0.000 NA
ATOM      2  C   UNL     1      -0.134   9.106  19.925  0.00  0.00    +0.000 C 
ATOM      3  C   UNL     1      -0.847  10.252  19.222  0.00  0.00    +0.000 C 
ATOM      4  C   UNL     1       0.020  11.516  19.115  0.00  0.00    +0.000 C 
ATOM      5  C   UNL     1       1.286  11.080  18.343  0.00  0.00    +0.000 C 
ATOM      6  C   UNL     1       2.023   9.898  18.973  0.00  0.00    +0.000 C 
ENDROOT
BRANCH   1   7
ATOM      7  C   UNL     1       1.906   7.834  20.217  0.00  0.00    +0.000 C 
BRANCH   7   8
ATOM      8  C   UNL     1       2.942   6.997  19.462  0.00  0.00    +0.000 C 
BRANCH   8   9
ATOM      9  C   UNL     1       2.545   5.528  19.549  0.00  0.00    +0.000 C 
BRANCH   9  10
ATOM     10  O   UNL     1       3.683   4.688  19.686  0.00  0.00    +0.000 OA
BRANCH  10  16
ATOM     11  C   UNL     1       5.939   4.861  18.594  0.00  0.00    +0.000 A 
ATOM     12  C   UNL     1       6.638   4.771  17.388  0.00  0.00    +0.000 A 
ATOM     13  C   UNL     1       5.955   4.614  16.179  0.00  0.00    +0.000 A 
ATOM     14  C   UNL     1       4.568   4.480  16.181  0.00  0.00    +0.000 A 
ATOM     15  C   UNL     1       3.868   4.494  17.396  0.00  0.00    +0.000 A 
ATOM     16  C   UNL     1       4.543   4.686  18.610  0.00  0.00    +0.000 A 
BRANCH  13  17
ATOM     17  C   UNL     1       6.674   4.647  14.878  0.00  0.00    +0.000 C 
ATOM     18  C   UNL     1       6.128   3.882  13.700  0.00  0.00    +0.000 C 
ATOM     19  O   UNL     1       7.727   5.275  14.793  0.00  0.00    +0.000 OA
ENDBRANCH  13  17
BRANCH  11  21
ATOM     20  C   UNL     1       7.836   5.829  19.630  0.00  0.00    +0.000 C 
ATOM     21  O   UNL     1       6.649   5.046  19.754  0.00  0.00    +0.000 OA
ENDBRANCH  11  21
ENDBRANCH  10  16
ENDBRANCH   9  10
ENDBRANCH   8   9
ENDBRANCH   7   8
ENDBRANCH   1   7
BRANCH   4  22
ATOM     22  C   UNL     1       0.310  12.264  20.486  0.00  0.00    +0.000 C 
BRANCH  22  23
ATOM     23  C   UNL     1      -0.950  12.370  21.368  0.00  0.00    +0.000 A 
ATOM     24  C   UNL     1      -1.031  11.705  22.613  0.00  0.00    +0.000 A 
ATOM     25  C   UNL     1      -2.174  11.786  23.413  0.00  0.00    +0.000 A 
ATOM     26  C   UNL     1      -3.253  12.540  22.979  0.00  0.00    +0.000 A 
ATOM     27  F   UNL     1      -4.351  12.621  23.743  0.00  0.00    +0.000 F 
ATOM     28  C   UNL     1      -3.210  13.206  21.762  0.00  0.00    +0.000 A 
ATOM     29  C   UNL     1      -2.066  13.126  20.961  0.00  0.00    +0.000 A 
ENDBRANCH  22  23
BRANCH  22  30
ATOM     30  C   UNL     1       0.959  13.655  20.269  0.00  0.00    +0.000 A 
ATOM     31  C   UNL     1       0.602  14.489  19.193  0.00  0.00    +0.000 A 
ATOM     32  C   UNL     1       1.293  15.674  18.931  0.00  0.00    +0.000 A 
ATOM     33  C   UNL     1       2.339  16.067  19.757  0.00  0.00    +0.000 A 
ATOM     34  C   UNL     1       2.671  15.296  20.867  0.00  0.00    +0.000 A 
ATOM     35  C   UNL     1       1.973  14.116  21.133  0.00  0.00    +0.000 A 
ENDBRANCH  22  30
BRANCH  22  36
ATOM     36  O   UNL     1       1.252  11.466  21.222  0.00  0.00    +0.000 OA
ATOM     37  H   UNL     1       0.862  10.589  21.354  0.00  0.00    +0.000 HD
ENDBRANCH  22  36
ENDBRANCH   4  22
TORSDOF 11
ENDMDL
MODEL 9
REMARK VINA RESULT:      -7.1      6.208     10.402
REMARK  Name = 
REMARK  13 active torsions:
REMARK  status: ('A' for Active; 'I' for Inactive)
REMARK    1  A    between atoms: C_1  and  O_2
REMARK    2  A    between atoms: O_2  and  C_3
REMARK    3  A    between atoms: C_5  and  C_6
REMARK    4  A    between atoms: C_6  and  C_7
REMARK    5  A    between atoms: C_11  and  O_12
REMARK    6  A    between atoms: O_12  and  C_13
REMARK    7  A    between atoms: C_13  and  C_14
REMARK    8  A    between atoms: C_14  and  C_15
REMARK    9  A    between atoms: C_15  and  N_16
REMARK   10  A    between atoms: C_19  and  C_20
REMARK   11  A    between atoms: C_20  and  O_21
REMARK   12  A    between atoms: C_20  and  C_22
REMARK   13  A    between atoms: C_20  and  C_28
REMARK                            x       y       z     vdW  Elec       q    Type
REMARK                         _______ _______ _______ _____ _____    ______ ____
ROOT
ATOM      1  N   UNL     1       2.861   5.242  19.254  0.00  0.00    +0.000 NA
ATOM      2  C   UNL     1       2.541   4.956  17.848  0.00  0.00    +0.000 C 
ATOM      3  C   UNL     1       3.379   3.841  17.240  0.00  0.00    +0.000 C 
ATOM      4  C   UNL     1       4.889   4.081  17.392  0.00  0.00    +0.000 C 
ATOM      5  C   UNL     1       5.134   4.206  18.913  0.00  0.00    +0.000 C 
ATOM      6  C   UNL     1       4.284   5.280  19.592  0.00  0.00    +0.000 C 
ENDROOT
BRANCH   1   7
ATOM      7  C   UNL     1       2.199   6.490  19.690  0.00  0.00    +0.000 C 
BRANCH   7   8
ATOM      8  C   UNL     1       2.390   7.642  18.700  0.00  0.00    +0.000 C 
BRANCH   8   9
ATOM      9  C   UNL     1       1.589   8.845  19.185  0.00  0.00    +0.000 C 
BRANCH   9  10
ATOM     10  O   UNL     1       1.173   9.665  18.102  0.00  0.00    +0.000 OA
BRANCH  10  16
ATOM     11  C   UNL     1      -0.225  11.616  18.845  0.00  0.00    +0.000 A 
ATOM     12  C   UNL     1      -0.216  12.976  19.167  0.00  0.00    +0.000 A 
ATOM     13  C   UNL     1       0.933  13.747  18.968  0.00  0.00    +0.000 A 
ATOM     14  C   UNL     1       2.100  13.142  18.505  0.00  0.00    +0.000 A 
ATOM     15  C   UNL     1       2.118  11.763  18.253  0.00  0.00    +0.000 A 
ATOM     16  C   UNL     1       0.959  10.989  18.418  0.00  0.00    +0.000 A 
BRANCH  13  17
ATOM     17  C   UNL     1       0.919  15.218  19.181  0.00  0.00    +0.000 C 
ATOM     18  C   UNL     1      -0.358  15.993  18.977  0.00  0.00    +0.000 C 
ATOM     19  O   UNL     1       1.963  15.787  19.490  0.00  0.00    +0.000 OA
ENDBRANCH  13  17
BRANCH  11  21
ATOM     20  C   UNL     1      -1.972  10.372  17.841  0.00  0.00    +0.000 C 
ATOM     21  O   UNL     1      -1.384  10.904  19.029  0.00  0.00    +0.000 OA
ENDBRANCH  11  21
ENDBRANCH  10  16
ENDBRANCH   9  10
ENDBRANCH   8   9
ENDBRANCH   7   8
ENDBRANCH   1   7
BRANCH   4  22
ATOM     22  C   UNL     1       5.481   5.276  16.528  0.00  0.00    +0.000 C 
BRANCH  22  23
ATOM     23  C   UNL     1       5.968   4.807  15.143  0.00  0.00    +0.000 A 
ATOM     24  C   UNL     1       7.210   5.235  14.620  0.00  0.00    +0.000 A 
ATOM     25  C   UNL     1       7.653   4.824  13.360  0.00  0.00    +0.000 A 
ATOM     26  C   UNL     1       6.860   3.974  12.607  0.00  0.00    +0.000 A 
ATOM     27  F   UNL     1       7.282   3.577  11.398  0.00  0.00    +0.000 F 
ATOM     28  C   UNL     1       5.635   3.534  13.086  0.00  0.00    +0.000 A 
ATOM     29  C   UNL     1       5.190   3.944  14.348  0.00  0.00    +0.000 A 
ENDBRANCH  22  23
BRANCH  22  30
ATOM     30  C   UNL     1       6.595   6.047  17.281  0.00  0.00    +0.000 A 
ATOM     31  C   UNL     1       7.445   5.419  18.210  0.00  0.00    +0.000 A 
ATOM     32  C   UNL     1       8.348   6.153  18.983  0.00  0.00    +0.000 A 
ATOM     33  C   UNL     1       8.443   7.530  18.822  0.00  0.00    +0.000 A 
ATOM     34  C   UNL     1       7.662   8.170  17.864  0.00  0.00    +0.000 A 
ATOM     35  C   UNL     1       6.766   7.433  17.086  0.00  0.00    +0.000 A 
ENDBRANCH  22  30
BRANCH  22  36
ATOM     36  O   UNL     1       4.410   6.204  16.287  0.00  0.00    +0.000 OA
ATOM     37  H   UNL     1       4.457   6.480  15.360  0.00  0.00    +0.000 HD
ENDBRANCH  22  36
ENDBRANCH   4  22
TORSDOF 11
ENDMDL
