MODEL 1
REMARK VINA RESULT:      -7.5      0.000      0.000
REMARK  Name = 
REMARK  5 active torsions:
REMARK  status: ('A' for Active; 'I' for Inactive)
REMARK    1  A    between atoms: C_2  and  C_3
REMARK    2  A    between atoms: C_3  and  N_4
REMARK    3  A    between atoms: N_15  and  C_16
REMARK    4  A    between atoms: C_16  and  C_17
REMARK    5  A    between atoms: C_16  and  C_23
REMARK                            x       y       z     vdW  Elec       q    Type
REMARK                         _______ _______ _______ _____ _____    ______ ____
ROOT
ATOM      1  O   UNL     1       6.644   5.982  13.895  0.00  0.00    +0.000 OA
ATOM      2  C   UNL     1       6.127   5.020  14.471  0.00  0.00    +0.000 C 
ATOM      3  N   UNL     1       5.208   5.185  15.491  0.00  0.00    +0.000 N 
ATOM      4  C   UNL     1       4.564   4.108  16.255  0.00  0.00    +0.000 C 
ATOM      5  C   UNL     1       4.795   4.294  17.769  0.00  0.00    +0.000 C 
ATOM      6  N   UNL     1       4.376   5.626  18.291  0.00  0.00    +0.000 NA
ATOM      7  C   UNL     1       5.091   6.654  17.494  0.00  0.00    +0.000 C 
ATOM      8  C   UNL     1       4.894   6.541  15.968  0.00  0.00    +0.000 C 
ENDROOT
BRANCH   2   9
ATOM      9  C   UNL     1       6.563   3.627  14.086  0.00  0.00    +0.000 C 
BRANCH   9  10
ATOM     10  N   UNL     1       5.859   3.200  12.897  0.00  0.00    +0.000 N 
ATOM     11  C   UNL     1       6.071   2.063  12.176  0.00  0.00    +0.000 A 
ATOM     12  N   UNL     1       5.254   2.027  11.148  0.00  0.00    +0.000 NA
ATOM     13  C   UNL     1       4.543   3.196  11.289  0.00  0.00    +0.000 A 
ATOM     14  N   UNL     1       3.497   3.602  10.359  0.00  0.00    +0.000 N 
ATOM     15  O   UNL     1       3.290   2.867   9.381  0.00  0.00    +0.000 OA
ATOM     16  O   UNL     1       2.883   4.653  10.601  0.00  0.00    +0.000 OA
ATOM     17  N   UNL     1       4.877   3.953  12.353  0.00  0.00    +0.000 NA
ENDBRANCH   9  10
ENDBRANCH   2   9
BRANCH   6  18
ATOM     18  C   UNL     1       2.889   5.781  18.267  0.00  0.00    +0.000 C 
BRANCH  18  19
ATOM     19  C   UNL     1       2.391   7.191  18.619  0.00  0.00    +0.000 A 
ATOM     20  C   UNL     1       2.257   8.156  17.600  0.00  0.00    +0.000 A 
ATOM     21  C   UNL     1       1.769   9.437  17.880  0.00  0.00    +0.000 A 
ATOM     22  C   UNL     1       1.398   9.766  19.179  0.00  0.00    +0.000 A 
ATOM     23 CL   UNL     1       0.756  11.327  19.518  0.00  0.00    +0.000 Cl
ATOM     24  C   UNL     1       1.545   8.839  20.207  0.00  0.00    +0.000 A 
ATOM     25  C   UNL     1       2.055   7.567  19.934  0.00  0.00    +0.000 A 
ENDBRANCH  18  19
BRANCH  18  26
ATOM     26  C   UNL     1       2.206   4.698  19.118  0.00  0.00    +0.000 A 
ATOM     27  C   UNL     1       2.486   4.555  20.488  0.00  0.00    +0.000 A 
ATOM     28  C   UNL     1       1.965   3.488  21.221  0.00  0.00    +0.000 A 
ATOM     29  C   UNL     1       1.172   2.534  20.592  0.00  0.00    +0.000 A 
ATOM     30  C   UNL     1       0.879   2.658  19.235  0.00  0.00    +0.000 A 
ATOM     31  C   UNL     1       1.380   3.739  18.505  0.00  0.00    +0.000 A 
ENDBRANCH  18  26
ENDBRANCH   6  18
TORSDOF 5
ENDMDL
MODEL 2
REMARK VINA RESULT:      -7.4      7.944     11.552
REMARK  Name = 
REMARK  5 active torsions:
REMARK  status: ('A' for Active; 'I' for Inactive)
REMARK    1  A    between atoms: C_2  and  C_3
REMARK    2  A    between atoms: C_3  and  N_4
REMARK    3  A    between atoms: N_15  and  C_16
REMARK    4  A    between atoms: C_16  and  C_17
REMARK    5  A    between atoms: C_16  and  C_23
REMARK                            x       y       z     vdW  Elec       q    Type
REMARK                         _______ _______ _______ _____ _____    ______ ____
ROOT
ATOM      1  O   UNL     1       1.179  15.567  22.394  0.00  0.00    +0.000 OA
ATOM      2  C   UNL     1       0.193  15.386  21.672  0.00  0.00    +0.000 C 
ATOM      3  N   UNL     1      -0.012  14.195  21.001  0.00  0.00    +0.000 N 
ATOM      4  C   UNL     1      -1.134  13.896  20.100  0.00  0.00    +0.000 C 
ATOM      5  C   UNL     1      -0.621  13.442  18.717  0.00  0.00    +0.000 C 
ATOM      6  N   UNL     1       0.330  12.295  18.765  0.00  0.00    +0.000 NA
ATOM      7  C   UNL     1       1.444  12.687  19.664  0.00  0.00    +0.000 C 
ATOM      8  C   UNL     1       1.009  13.139  21.074  0.00  0.00    +0.000 C 
ENDROOT
BRANCH   2   9
ATOM      9  C   UNL     1      -0.778  16.525  21.475  0.00  0.00    +0.000 C 
BRANCH   9  10
ATOM     10  N   UNL     1      -0.648  17.058  20.136  0.00  0.00    +0.000 N 
ATOM     11  C   UNL     1      -1.654  17.437  19.299  0.00  0.00    +0.000 A 
ATOM     12  N   UNL     1      -1.153  17.850  18.157  0.00  0.00    +0.000 NA
ATOM     13  C   UNL     1       0.200  17.701  18.352  0.00  0.00    +0.000 A 
ATOM     14  N   UNL     1       1.187  18.037  17.334  0.00  0.00    +0.000 N 
ATOM     15  O   UNL     1       0.760  18.429  16.237  0.00  0.00    +0.000 OA
ATOM     16  O   UNL     1       2.387  17.909  17.626  0.00  0.00    +0.000 OA
ATOM     17  N   UNL     1       0.562  17.217  19.558  0.00  0.00    +0.000 NA
ENDBRANCH   9  10
ENDBRANCH   2   9
BRANCH   6  18
ATOM     18  C   UNL     1      -0.355  11.032  19.179  0.00  0.00    +0.000 C 
BRANCH  18  19
ATOM     19  C   UNL     1       0.573   9.812  19.285  0.00  0.00    +0.000 A 
ATOM     20  C   UNL     1       0.689   9.131  20.514  0.00  0.00    +0.000 A 
ATOM     21  C   UNL     1       1.494   7.993  20.635  0.00  0.00    +0.000 A 
ATOM     22  C   UNL     1       2.183   7.515  19.526  0.00  0.00    +0.000 A 
ATOM     23 CL   UNL     1       3.138   6.089  19.661  0.00  0.00    +0.000 Cl
ATOM     24  C   UNL     1       2.105   8.183  18.308  0.00  0.00    +0.000 A 
ATOM     25  C   UNL     1       1.321   9.334  18.192  0.00  0.00    +0.000 A 
ENDBRANCH  18  19
BRANCH  18  26
ATOM     26  C   UNL     1      -1.580  10.750  18.294  0.00  0.00    +0.000 A 
ATOM     27  C   UNL     1      -1.465  10.050  17.081  0.00  0.00    +0.000 A 
ATOM     28  C   UNL     1      -2.556   9.916  16.222  0.00  0.00    +0.000 A 
ATOM     29  C   UNL     1      -3.775  10.499  16.550  0.00  0.00    +0.000 A 
ATOM     30  C   UNL     1      -3.913  11.196  17.750  0.00  0.00    +0.000 A 
ATOM     31  C   UNL     1      -2.827  11.310  18.623  0.00  0.00    +0.000 A 
ENDBRANCH  18  26
ENDBRANCH   6  18
TORSDOF 5
ENDMDL
MODEL 3
REMARK VINA RESULT:      -7.4      0.194      1.237
REMARK  Name = 
REMARK  5 active torsions:
REMARK  status: ('A' for Active; 'I' for Inactive)
REMARK    1  A    between atoms: C_2  and  C_3
REMARK    2  A    between atoms: C_3  and  N_4
REMARK    3  A    between atoms: N_15  and  C_16
REMARK    4  A    between atoms: C_16  and  C_17
REMARK    5  A    between atoms: C_16  and  C_23
REMARK                            x       y       z     vdW  Elec       q    Type
REMARK                         _______ _______ _______ _____ _____    ______ ____
ROOT
ATOM      1  O   UNL     1       6.562   6.054  13.829  0.00  0.00    +0.000 OA
ATOM      2  C   UNL     1       6.113   5.069  14.423  0.00  0.00    +0.000 C 
ATOM      3  N   UNL     1       5.219   5.192  15.472  0.00  0.00    +0.000 N 
ATOM      4  C   UNL     1       4.655   4.087  16.257  0.00  0.00    +0.000 C 
ATOM      5  C   UNL     1       4.923   4.290  17.764  0.00  0.00    +0.000 C 
ATOM      6  N   UNL     1       4.453   5.601  18.295  0.00  0.00    +0.000 NA
ATOM      7  C   UNL     1       5.091   6.661  17.473  0.00  0.00    +0.000 C 
ATOM      8  C   UNL     1       4.852   6.532  15.954  0.00  0.00    +0.000 C 
ENDROOT
BRANCH   2   9
ATOM      9  C   UNL     1       6.607   3.698  14.028  0.00  0.00    +0.000 C 
BRANCH   9  10
ATOM     10  N   UNL     1       5.882   3.228  12.867  0.00  0.00    +0.000 N 
ATOM     11  C   UNL     1       6.078   2.062  12.189  0.00  0.00    +0.000 A 
ATOM     12  N   UNL     1       5.245   1.989  11.176  0.00  0.00    +0.000 NA
ATOM     13  C   UNL     1       4.542   3.167  11.282  0.00  0.00    +0.000 A 
ATOM     14  N   UNL     1       3.484   3.541  10.352  0.00  0.00    +0.000 N 
ATOM     15  O   UNL     1       3.259   2.769   9.406  0.00  0.00    +0.000 OA
ATOM     16  O   UNL     1       2.879   4.604  10.560  0.00  0.00    +0.000 OA
ATOM     17  N   UNL     1       4.896   3.964  12.309  0.00  0.00    +0.000 NA
ENDBRANCH   9  10
ENDBRANCH   2   9
BRANCH   6  18
ATOM     18  C   UNL     1       2.961   5.681  18.317  0.00  0.00    +0.000 C 
BRANCH  18  19
ATOM     19  C   UNL     1       2.403   7.068  18.673  0.00  0.00    +0.000 A 
ATOM     20  C   UNL     1       2.060   7.358  20.009  0.00  0.00    +0.000 A 
ATOM     21  C   UNL     1       1.588   8.624  20.373  0.00  0.00    +0.000 A 
ATOM     22  C   UNL     1       1.464   9.618  19.409  0.00  0.00    +0.000 A 
ATOM     23 CL   UNL     1       0.925  11.189  19.864  0.00  0.00    +0.000 Cl
ATOM     24  C   UNL     1       1.772   9.349  18.079  0.00  0.00    +0.000 A 
ATOM     25  C   UNL     1       2.221   8.078  17.709  0.00  0.00    +0.000 A 
ENDBRANCH  18  19
BRANCH  18  26
ATOM     26  C   UNL     1       2.360   4.575  19.200  0.00  0.00    +0.000 A 
ATOM     27  C   UNL     1       1.327   3.743  18.735  0.00  0.00    +0.000 A 
ATOM     28  C   UNL     1       0.698   2.833  19.586  0.00  0.00    +0.000 A 
ATOM     29  C   UNL     1       1.077   2.756  20.923  0.00  0.00    +0.000 A 
ATOM     30  C   UNL     1       2.101   3.569  21.404  0.00  0.00    +0.000 A 
ATOM     31  C   UNL     1       2.748   4.464  20.548  0.00  0.00    +0.000 A 
ENDBRANCH  18  26
ENDBRANCH   6  18
TORSDOF 5
ENDMDL
MODEL 4
REMARK VINA RESULT:      -7.1      4.332      7.883
REMARK  Name = 
REMARK  5 active torsions:
REMARK  status: ('A' for Active; 'I' for Inactive)
REMARK    1  A    between atoms: C_2  and  C_3
REMARK    2  A    between atoms: C_3  and  N_4
REMARK    3  A    between atoms: N_15  and  C_16
REMARK    4  A    between atoms: C_16  and  C_17
REMARK    5  A    between atoms: C_16  and  C_23
REMARK                            x       y       z     vdW  Elec       q    Type
REMARK                         _______ _______ _______ _____ _____    ______ ____
ROOT
ATOM      1  O   UNL     1       2.407   6.492  20.001  0.00  0.00    +0.000 OA
ATOM      2  C   UNL     1       2.239   7.487  19.289  0.00  0.00    +0.000 C 
ATOM      3  N   UNL     1       1.678   8.652  19.781  0.00  0.00    +0.000 N 
ATOM      4  C   UNL     1       1.411   9.873  19.009  0.00  0.00    +0.000 C 
ATOM      5  C   UNL     1      -0.073  10.281  19.123  0.00  0.00    +0.000 C 
ATOM      6  N   UNL     1      -0.558  10.434  20.524  0.00  0.00    +0.000 NA
ATOM      7  C   UNL     1      -0.283   9.154  21.225  0.00  0.00    +0.000 C 
ATOM      8  C   UNL     1       1.187   8.688  21.167  0.00  0.00    +0.000 C 
ENDROOT
BRANCH   2   9
ATOM      9  C   UNL     1       2.602   7.400  17.826  0.00  0.00    +0.000 C 
BRANCH   9  10
ATOM     10  N   UNL     1       3.733   6.515  17.650  0.00  0.00    +0.000 N 
ATOM     11  C   UNL     1       3.748   5.160  17.785  0.00  0.00    +0.000 A 
ATOM     12  N   UNL     1       4.960   4.702  17.570  0.00  0.00    +0.000 NA
ATOM     13  C   UNL     1       5.669   5.850  17.299  0.00  0.00    +0.000 A 
ATOM     14  N   UNL     1       7.094   5.844  16.996  0.00  0.00    +0.000 N 
ATOM     15  O   UNL     1       7.680   4.750  17.034  0.00  0.00    +0.000 OA
ATOM     16  O   UNL     1       7.632   6.929  16.721  0.00  0.00    +0.000 OA
ATOM     17  N   UNL     1       4.957   6.993  17.335  0.00  0.00    +0.000 NA
ENDBRANCH   9  10
ENDBRANCH   2   9
BRANCH   6  18
ATOM     18  C   UNL     1       0.057  11.622  21.191  0.00  0.00    +0.000 C 
BRANCH  18  19
ATOM     19  C   UNL     1      -0.860  12.330  22.201  0.00  0.00    +0.000 A 
ATOM     20  C   UNL     1      -0.477  13.578  22.733  0.00  0.00    +0.000 A 
ATOM     21  C   UNL     1      -1.306  14.267  23.624  0.00  0.00    +0.000 A 
ATOM     22  C   UNL     1      -2.534  13.723  23.985  0.00  0.00    +0.000 A 
ATOM     23 CL   UNL     1      -3.575  14.591  25.046  0.00  0.00    +0.000 Cl
ATOM     24  C   UNL     1      -2.924  12.481  23.494  0.00  0.00    +0.000 A 
ATOM     25  C   UNL     1      -2.086  11.780  22.623  0.00  0.00    +0.000 A 
ENDBRANCH  18  19
BRANCH  18  26
ATOM     26  C   UNL     1       0.637  12.599  20.155  0.00  0.00    +0.000 A 
ATOM     27  C   UNL     1       2.005  12.919  20.132  0.00  0.00    +0.000 A 
ATOM     28  C   UNL     1       2.499  13.906  19.279  0.00  0.00    +0.000 A 
ATOM     29  C   UNL     1       1.629  14.606  18.448  0.00  0.00    +0.000 A 
ATOM     30  C   UNL     1       0.269  14.303  18.452  0.00  0.00    +0.000 A 
ATOM     31  C   UNL     1      -0.224  13.298  19.290  0.00  0.00    +0.000 A 
ENDBRANCH  18  26
ENDBRANCH   6  18
TORSDOF 5
ENDMDL
MODEL 5
REMARK VINA RESULT:      -7.0      9.090     10.550
REMARK  Name = 
REMARK  5 active torsions:
REMARK  status: ('A' for Active; 'I' for Inactive)
REMARK    1  A    between atoms: C_2  and  C_3
REMARK    2  A    between atoms: C_3  and  N_4
REMARK    3  A    between atoms: N_15  and  C_16
REMARK    4  A    between atoms: C_16  and  C_17
REMARK    5  A    between atoms: C_16  and  C_23
REMARK                            x       y       z     vdW  Elec       q    Type
REMARK                         _______ _______ _______ _____ _____    ______ ____
ROOT
ATOM      1  O   UNL     1       3.669  16.288  18.528  0.00  0.00    +0.000 OA
ATOM      2  C   UNL     1       3.551  15.641  19.573  0.00  0.00    +0.000 C 
ATOM      3  N   UNL     1       2.650  14.598  19.690  0.00  0.00    +0.000 N 
ATOM      4  C   UNL     1       2.416  13.792  20.895  0.00  0.00    +0.000 C 
ATOM      5  C   UNL     1       0.925  13.817  21.292  0.00  0.00    +0.000 C 
ATOM      6  N   UNL     1      -0.004  13.406  20.201  0.00  0.00    +0.000 NA
ATOM      7  C   UNL     1       0.272  14.285  19.036  0.00  0.00    +0.000 C 
ATOM      8  C   UNL     1       1.743  14.299  18.571  0.00  0.00    +0.000 C 
ENDROOT
BRANCH   2   9
ATOM      9  C   UNL     1       4.374  16.046  20.772  0.00  0.00    +0.000 C 
BRANCH   9  10
ATOM     10  N   UNL     1       5.636  15.337  20.767  0.00  0.00    +0.000 N 
ATOM     11  C   UNL     1       6.169  14.598  21.780  0.00  0.00    +0.000 A 
ATOM     12  N   UNL     1       7.339  14.123  21.417  0.00  0.00    +0.000 NA
ATOM     13  C   UNL     1       7.479  14.613  20.140  0.00  0.00    +0.000 A 
ATOM     14  N   UNL     1       8.650  14.347  19.315  0.00  0.00    +0.000 N 
ATOM     15  O   UNL     1       9.567  13.684  19.827  0.00  0.00    +0.000 OA
ATOM     16  O   UNL     1       8.659  14.797  18.159  0.00  0.00    +0.000 OA
ATOM     17  N   UNL     1       6.454  15.366  19.693  0.00  0.00    +0.000 NA
ENDBRANCH   9  10
ENDBRANCH   2   9
BRANCH   6  18
ATOM     18  C   UNL     1       0.125  11.949  19.892  0.00  0.00    +0.000 C 
BRANCH  18  19
ATOM     19  C   UNL     1      -0.885  11.427  18.859  0.00  0.00    +0.000 A 
ATOM     20  C   UNL     1      -2.127  12.078  18.709  0.00  0.00    +0.000 A 
ATOM     21  C   UNL     1      -3.053  11.653  17.751  0.00  0.00    +0.000 A 
ATOM     22  C   UNL     1      -2.746  10.580  16.922  0.00  0.00    +0.000 A 
ATOM     23 CL   UNL     1      -3.866  10.084  15.713  0.00  0.00    +0.000 Cl
ATOM     24  C   UNL     1      -1.538   9.904  17.067  0.00  0.00    +0.000 A 
ATOM     25  C   UNL     1      -0.621  10.312  18.040  0.00  0.00    +0.000 A 
ENDBRANCH  18  19
BRANCH  18  26
ATOM     26  C   UNL     1       0.121  11.108  21.179  0.00  0.00    +0.000 A 
ATOM     27  C   UNL     1       1.047  10.069  21.381  0.00  0.00    +0.000 A 
ATOM     28  C   UNL     1       0.951   9.226  22.488  0.00  0.00    +0.000 A 
ATOM     29  C   UNL     1      -0.085   9.393  23.402  0.00  0.00    +0.000 A 
ATOM     30  C   UNL     1      -1.012  10.418  23.223  0.00  0.00    +0.000 A 
ATOM     31  C   UNL     1      -0.904  11.278  22.127  0.00  0.00    +0.000 A 
ENDBRANCH  18  26
ENDBRANCH   6  18
TORSDOF 5
ENDMDL
MODEL 6
REMARK VINA RESULT:      -7.0      4.758      8.195
REMARK  Name = 
REMARK  5 active torsions:
REMARK  status: ('A' for Active; 'I' for Inactive)
REMARK    1  A    between atoms: C_2  and  C_3
REMARK    2  A    between atoms: C_3  and  N_4
REMARK    3  A    between atoms: N_15  and  C_16
REMARK    4  A    between atoms: C_16  and  C_17
REMARK    5  A    between atoms: C_16  and  C_23
REMARK                            x       y       z     vdW  Elec       q    Type
REMARK                         _______ _______ _______ _____ _____    ______ ____
ROOT
ATOM      1  O   UNL     1       1.673   6.402  20.737  0.00  0.00    +0.000 OA
ATOM      2  C   UNL     1       1.922   7.342  19.976  0.00  0.00    +0.000 C 
ATOM      3  N   UNL     1       1.483   8.628  20.234  0.00  0.00    +0.000 N 
ATOM      4  C   UNL     1       1.701   9.802  19.378  0.00  0.00    +0.000 C 
ATOM      5  C   UNL     1       0.361  10.477  19.018  0.00  0.00    +0.000 C 
ATOM      6  N   UNL     1      -0.476  10.839  20.198  0.00  0.00    +0.000 NA
ATOM      7  C   UNL     1      -0.677   9.600  20.990  0.00  0.00    +0.000 C 
ATOM      8  C   UNL     1       0.622   8.877  21.401  0.00  0.00    +0.000 C 
ENDROOT
BRANCH   2   9
ATOM      9  C   UNL     1       2.676   7.060  18.698  0.00  0.00    +0.000 C 
BRANCH   9  10
ATOM     10  N   UNL     1       3.183   5.705  18.714  0.00  0.00    +0.000 N 
ATOM     11  C   UNL     1       4.374   5.277  19.219  0.00  0.00    +0.000 A 
ATOM     12  N   UNL     1       4.498   3.982  19.034  0.00  0.00    +0.000 NA
ATOM     13  C   UNL     1       3.324   3.657  18.394  0.00  0.00    +0.000 A 
ATOM     14  N   UNL     1       3.004   2.300  17.974  0.00  0.00    +0.000 N 
ATOM     15  O   UNL     1       3.862   1.425  18.172  0.00  0.00    +0.000 OA
ATOM     16  O   UNL     1       1.898   2.103  17.446  0.00  0.00    +0.000 OA
ATOM     17  N   UNL     1       2.480   4.685  18.176  0.00  0.00    +0.000 NA
ENDBRANCH   9  10
ENDBRANCH   2   9
BRANCH   6  18
ATOM     18  C   UNL     1       0.137  11.955  20.982  0.00  0.00    +0.000 C 
BRANCH  18  19
ATOM     19  C   UNL     1      -0.785  12.562  22.051  0.00  0.00    +0.000 A 
ATOM     20  C   UNL     1      -0.413  13.762  22.690  0.00  0.00    +0.000 A 
ATOM     21  C   UNL     1      -1.247  14.362  23.639  0.00  0.00    +0.000 A 
ATOM     22  C   UNL     1      -2.469  13.777  23.952  0.00  0.00    +0.000 A 
ATOM     23 CL   UNL     1      -3.518  14.538  25.086  0.00  0.00    +0.000 Cl
ATOM     24  C   UNL     1      -2.848  12.580  23.353  0.00  0.00    +0.000 A 
ATOM     25  C   UNL     1      -2.005  11.966  22.423  0.00  0.00    +0.000 A 
ENDBRANCH  18  19
BRANCH  18  26
ATOM     26  C   UNL     1       0.726  13.028  20.052  0.00  0.00    +0.000 A 
ATOM     27  C   UNL     1       2.098  13.333  20.058  0.00  0.00    +0.000 A 
ATOM     28  C   UNL     1       2.601  14.398  19.309  0.00  0.00    +0.000 A 
ATOM     29  C   UNL     1       1.737  15.189  18.558  0.00  0.00    +0.000 A 
ATOM     30  C   UNL     1       0.374  14.902  18.535  0.00  0.00    +0.000 A 
ATOM     31  C   UNL     1      -0.128  13.822  19.266  0.00  0.00    +0.000 A 
ENDBRANCH  18  26
ENDBRANCH   6  18
TORSDOF 5
ENDMDL
MODEL 7
REMARK VINA RESULT:      -6.9      4.848      8.192
REMARK  Name = 
REMARK  5 active torsions:
REMARK  status: ('A' for Active; 'I' for Inactive)
REMARK    1  A    between atoms: C_2  and  C_3
REMARK    2  A    between atoms: C_3  and  N_4
REMARK    3  A    between atoms: N_15  and  C_16
REMARK    4  A    between atoms: C_16  and  C_17
REMARK    5  A    between atoms: C_16  and  C_23
REMARK                            x       y       z     vdW  Elec       q    Type
REMARK                         _______ _______ _______ _____ _____    ______ ____
ROOT
ATOM      1  O   UNL     1       1.986   6.223  20.966  0.00  0.00    +0.000 OA
ATOM      2  C   UNL     1       2.008   7.140  20.139  0.00  0.00    +0.000 C 
ATOM      3  N   UNL     1       1.518   8.400  20.430  0.00  0.00    +0.000 N 
ATOM      4  C   UNL     1       1.473   9.541  19.506  0.00  0.00    +0.000 C 
ATOM      5  C   UNL     1       0.037  10.094  19.387  0.00  0.00    +0.000 C 
ATOM      6  N   UNL     1      -0.590  10.453  20.691  0.00  0.00    +0.000 NA
ATOM      7  C   UNL     1      -0.534   9.244  21.551  0.00  0.00    +0.000 C 
ATOM      8  C   UNL     1       0.876   8.642  21.731  0.00  0.00    +0.000 C 
ENDROOT
BRANCH   2   9
ATOM      9  C   UNL     1       2.528   6.849  18.751  0.00  0.00    +0.000 C 
BRANCH   9  10
ATOM     10  N   UNL     1       2.649   5.420  18.558  0.00  0.00    +0.000 N 
ATOM     11  C   UNL     1       1.868   4.626  17.775  0.00  0.00    +0.000 A 
ATOM     12  N   UNL     1       2.266   3.377  17.868  0.00  0.00    +0.000 NA
ATOM     13  C   UNL     1       3.322   3.464  18.745  0.00  0.00    +0.000 A 
ATOM     14  N   UNL     1       4.096   2.304  19.166  0.00  0.00    +0.000 N 
ATOM     15  O   UNL     1       3.739   1.196  18.737  0.00  0.00    +0.000 OA
ATOM     16  O   UNL     1       5.059   2.495  19.925  0.00  0.00    +0.000 OA
ATOM     17  N   UNL     1       3.599   4.703  19.198  0.00  0.00    +0.000 NA
ENDBRANCH   9  10
ENDBRANCH   2   9
BRANCH   6  18
ATOM     18  C   UNL     1       0.064  11.650  21.302  0.00  0.00    +0.000 C 
BRANCH  18  19
ATOM     19  C   UNL     1      -0.845  12.463  22.237  0.00  0.00    +0.000 A 
ATOM     20  C   UNL     1      -2.106  11.948  22.601  0.00  0.00    +0.000 A 
ATOM     21  C   UNL     1      -2.942  12.644  23.482  0.00  0.00    +0.000 A 
ATOM     22  C   UNL     1      -2.522  13.856  24.018  0.00  0.00    +0.000 A 
ATOM     23 CL   UNL     1      -3.530  14.692  25.136  0.00  0.00    +0.000 Cl
ATOM     24  C   UNL     1      -1.293  14.398  23.655  0.00  0.00    +0.000 A 
ATOM     25  C   UNL     1      -0.467  13.716  22.757  0.00  0.00    +0.000 A 
ENDBRANCH  18  19
BRANCH  18  26
ATOM     26  C   UNL     1       0.722  12.531  20.228  0.00  0.00    +0.000 A 
ATOM     27  C   UNL     1       2.096  12.828  20.260  0.00  0.00    +0.000 A 
ATOM     28  C   UNL     1       2.656  13.735  19.360  0.00  0.00    +0.000 A 
ATOM     29  C   UNL     1       1.850  14.377  18.426  0.00  0.00    +0.000 A 
ATOM     30  C   UNL     1       0.486  14.095  18.374  0.00  0.00    +0.000 A 
ATOM     31  C   UNL     1      -0.074  13.170  19.259  0.00  0.00    +0.000 A 
ENDBRANCH  18  26
ENDBRANCH   6  18
TORSDOF 5
ENDMDL
MODEL 8
REMARK VINA RESULT:      -6.9      9.269     11.367
REMARK  Name = 
REMARK  5 active torsions:
REMARK  status: ('A' for Active; 'I' for Inactive)
REMARK    1  A    between atoms: C_2  and  C_3
REMARK    2  A    between atoms: C_3  and  N_4
REMARK    3  A    between atoms: N_15  and  C_16
REMARK    4  A    between atoms: C_16  and  C_17
REMARK    5  A    between atoms: C_16  and  C_23
REMARK                            x       y       z     vdW  Elec       q    Type
REMARK                         _______ _______ _______ _____ _____    ______ ____
ROOT
ATOM      1  O   UNL     1       2.121  17.565  19.298  0.00  0.00    +0.000 OA
ATOM      2  C   UNL     1       2.341  16.641  20.088  0.00  0.00    +0.000 C 
ATOM      3  N   UNL     1       1.498  15.549  20.188  0.00  0.00    +0.000 N 
ATOM      4  C   UNL     1       1.659  14.419  21.114  0.00  0.00    +0.000 C 
ATOM      5  C   UNL     1       0.390  14.228  21.972  0.00  0.00    +0.000 C 
ATOM      6  N   UNL     1      -0.865  14.081  21.181  0.00  0.00    +0.000 NA
ATOM      7  C   UNL     1      -0.970  15.271  20.299  0.00  0.00    +0.000 C 
ATOM      8  C   UNL     1       0.258  15.518  19.398  0.00  0.00    +0.000 C 
ENDROOT
BRANCH   2   9
ATOM      9  C   UNL     1       3.533  16.745  21.009  0.00  0.00    +0.000 C 
BRANCH   9  10
ATOM     10  N   UNL     1       4.753  16.795  20.233  0.00  0.00    +0.000 N 
ATOM     11  C   UNL     1       5.599  17.854  20.095  0.00  0.00    +0.000 A 
ATOM     12  N   UNL     1       6.590  17.533  19.295  0.00  0.00    +0.000 NA
ATOM     13  C   UNL     1       6.296  16.231  18.962  0.00  0.00    +0.000 A 
ATOM     14  N   UNL     1       7.130  15.436  18.070  0.00  0.00    +0.000 N 
ATOM     15  O   UNL     1       8.118  15.995  17.567  0.00  0.00    +0.000 OA
ATOM     16  O   UNL     1       6.803  14.256  17.868  0.00  0.00    +0.000 OA
ATOM     17  N   UNL     1       5.174  15.730  19.516  0.00  0.00    +0.000 NA
ENDBRANCH   9  10
ENDBRANCH   2   9
BRANCH   6  18
ATOM     18  C   UNL     1      -0.896  12.784  20.437  0.00  0.00    +0.000 C 
BRANCH  18  19
ATOM     19  C   UNL     1      -2.241  12.469  19.764  0.00  0.00    +0.000 A 
ATOM     20  C   UNL     1      -2.259  11.760  18.546  0.00  0.00    +0.000 A 
ATOM     21  C   UNL     1      -3.467  11.422  17.926  0.00  0.00    +0.000 A 
ATOM     22  C   UNL     1      -4.672  11.778  18.523  0.00  0.00    +0.000 A 
ATOM     23 CL   UNL     1      -6.159  11.324  17.786  0.00  0.00    +0.000 Cl
ATOM     24  C   UNL     1      -4.680  12.500  19.713  0.00  0.00    +0.000 A 
ATOM     25  C   UNL     1      -3.473  12.859  20.320  0.00  0.00    +0.000 A 
ENDBRANCH  18  19
BRANCH  18  26
ATOM     26  C   UNL     1      -0.409  11.626  21.324  0.00  0.00    +0.000 A 
ATOM     27  C   UNL     1       0.641  10.783  20.921  0.00  0.00    +0.000 A 
ATOM     28  C   UNL     1       0.986   9.656  21.668  0.00  0.00    +0.000 A 
ATOM     29  C   UNL     1       0.272   9.341  22.820  0.00  0.00    +0.000 A 
ATOM     30  C   UNL     1      -0.771  10.165  23.240  0.00  0.00    +0.000 A 
ATOM     31  C   UNL     1      -1.102  11.307  22.505  0.00  0.00    +0.000 A 
ENDBRANCH  18  26
ENDBRANCH   6  18
TORSDOF 5
ENDMDL
MODEL 9
REMARK VINA RESULT:      -6.9      9.282     12.238
REMARK  Name = 
REMARK  5 active torsions:
REMARK  status: ('A' for Active; 'I' for Inactive)
REMARK    1  A    between atoms: C_2  and  C_3
REMARK    2  A    between atoms: C_3  and  N_4
REMARK    3  A    between atoms: N_15  and  C_16
REMARK    4  A    between atoms: C_16  and  C_17
REMARK    5  A    between atoms: C_16  and  C_23
REMARK                            x       y       z     vdW  Elec       q    Type
REMARK                         _______ _______ _______ _____ _____    ______ ____
ROOT
ATOM      1  O   UNL     1       3.775  17.456  19.261  0.00  0.00    +0.000 OA
ATOM      2  C   UNL     1       4.230  16.462  18.684  0.00  0.00    +0.000 C 
ATOM      3  N   UNL     1       5.483  15.956  18.979  0.00  0.00    +0.000 N 
ATOM      4  C   UNL     1       6.120  14.803  18.330  0.00  0.00    +0.000 C 
ATOM      5  C   UNL     1       7.500  15.189  17.756  0.00  0.00    +0.000 C 
ATOM      6  N   UNL     1       8.424  15.805  18.750  0.00  0.00    +0.000 NA
ATOM      7  C   UNL     1       7.722  16.976  19.334  0.00  0.00    +0.000 C 
ATOM      8  C   UNL     1       6.339  16.663  19.943  0.00  0.00    +0.000 C 
ENDROOT
BRANCH   2   9
ATOM      9  C   UNL     1       3.413  15.826  17.585  0.00  0.00    +0.000 C 
BRANCH   9  10
ATOM     10  N   UNL     1       2.527  14.828  18.144  0.00  0.00    +0.000 N 
ATOM     11  C   UNL     1       1.446  15.042  18.946  0.00  0.00    +0.000 A 
ATOM     12  N   UNL     1       0.899  13.893  19.273  0.00  0.00    +0.000 NA
ATOM     13  C   UNL     1       1.704  12.983  18.629  0.00  0.00    +0.000 A 
ATOM     14  N   UNL     1       1.486  11.545  18.703  0.00  0.00    +0.000 N 
ATOM     15  O   UNL     1       0.556  11.147  19.421  0.00  0.00    +0.000 OA
ATOM     16  O   UNL     1       2.242  10.810  18.047  0.00  0.00    +0.000 OA
ATOM     17  N   UNL     1       2.721  13.510  17.918  0.00  0.00    +0.000 NA
ENDBRANCH   9  10
ENDBRANCH   2   9
BRANCH   6  18
ATOM     18  C   UNL     1       8.873  14.809  19.771  0.00  0.00    +0.000 C 
BRANCH  18  19
ATOM     19  C   UNL     1       9.679  15.410  20.933  0.00  0.00    +0.000 A 
ATOM     20  C   UNL     1      10.879  16.099  20.664  0.00  0.00    +0.000 A 
ATOM     21  C   UNL     1      11.616  16.692  21.695  0.00  0.00    +0.000 A 
ATOM     22  C   UNL     1      11.157  16.614  23.005  0.00  0.00    +0.000 A 
ATOM     23 CL   UNL     1      12.039  17.382  24.269  0.00  0.00    +0.000 Cl
ATOM     24  C   UNL     1       9.988  15.918  23.300  0.00  0.00    +0.000 A 
ATOM     25  C   UNL     1       9.263  15.304  22.275  0.00  0.00    +0.000 A 
ENDBRANCH  18  19
BRANCH  18  26
ATOM     26  C   UNL     1       9.606  13.630  19.110  0.00  0.00    +0.000 A 
ATOM     27  C   UNL     1      10.421  13.812  17.979  0.00  0.00    +0.000 A 
ATOM     28  C   UNL     1      10.972  12.721  17.307  0.00  0.00    +0.000 A 
ATOM     29  C   UNL     1      10.701  11.428  17.741  0.00  0.00    +0.000 A 
ATOM     30  C   UNL     1       9.898  11.224  18.861  0.00  0.00    +0.000 A 
ATOM     31  C   UNL     1       9.364  12.316  19.550  0.00  0.00    +0.000 A 
ENDBRANCH  18  26
ENDBRANCH   6  18
TORSDOF 5
ENDMDL
