MODEL 1
REMARK VINA RESULT:      -8.3      0.000      0.000
REMARK  Name = 
REMARK  6 active torsions:
REMARK  status: ('A' for Active; 'I' for Inactive)
REMARK    1  A    between atoms: C_1  and  S_2
REMARK    2  A    between atoms: S_2  and  N_5
REMARK    3  A    between atoms: N_8  and  C_9
REMARK    4  A    between atoms: C_14  and  N_15
REMARK    5  A    between atoms: C_16  and  C_18
REMARK    6  A    between atoms: C_18  and  C_19
REMARK                            x       y       z     vdW  Elec       q    Type
REMARK                         _______ _______ _______ _____ _____    ______ ____
ROOT
ATOM      1  C   UNL     1       3.774   3.746  19.737  0.00  0.00    +0.000 A 
ATOM      2  C   UNL     1       3.631   2.469  20.327  0.00  0.00    +0.000 A 
ATOM      3  C   UNL     1       2.690   2.187  21.325  0.00  0.00    +0.000 A 
ATOM      4  C   UNL     1       1.817   3.173  21.750  0.00  0.00    +0.000 A 
ATOM      5  C   UNL     1       1.881   4.432  21.165  0.00  0.00    +0.000 A 
ATOM      6  C   UNL     1       2.850   4.732  20.185  0.00  0.00    +0.000 A 
ENDROOT
BRANCH   1  10
ATOM      7  N   UNL     1       5.783   5.501  16.489  0.00  0.00    +0.000 NA
ATOM      8  C   UNL     1       4.545   4.663  16.390  0.00  0.00    +0.000 C 
ATOM      9  C   UNL     1       4.589   3.479  17.373  0.00  0.00    +0.000 C 
ATOM     10  N   UNL     1       4.754   3.953  18.768  0.00  0.00    +0.000 N 
ATOM     11  C   UNL     1       5.911   4.847  18.959  0.00  0.00    +0.000 C 
ATOM     12  C   UNL     1       5.984   5.973  17.897  0.00  0.00    +0.000 C 
BRANCH   7  14
ATOM     13  C   UNL     1       6.384   3.821  14.469  0.00  0.00    +0.000 C 
ATOM     14  S   UNL     1       7.140   4.908  15.665  0.00  0.00    +0.000 S 
ATOM     15  O   UNL     1       7.890   4.079  16.585  0.00  0.00    +0.000 OA
ATOM     16  O   UNL     1       7.758   6.006  14.965  0.00  0.00    +0.000 OA
ENDBRANCH   7  14
ENDBRANCH   1  10
BRANCH   6  17
ATOM     17  N   UNL     1       2.941   6.087  19.782  0.00  0.00    +0.000 N 
ATOM     18  C   UNL     1       2.329   6.559  18.627  0.00  0.00    +0.000 C 
ATOM     19  O   UNL     1       1.687   5.861  17.841  0.00  0.00    +0.000 OA
ATOM     20  H   UNL     1       3.677   6.627  20.219  0.00  0.00    +0.000 HD
BRANCH  18  21
ATOM     21  C   UNL     1       2.553   8.036  18.345  0.00  0.00    +0.000 C 
BRANCH  21  22
ATOM     22  C   UNL     1       1.486   8.967  18.882  0.00  0.00    +0.000 A 
ATOM     23  C   UNL     1       1.196   8.953  20.257  0.00  0.00    +0.000 A 
ATOM     24  C   UNL     1       0.293   9.866  20.808  0.00  0.00    +0.000 A 
ATOM     25  C   UNL     1      -0.325  10.807  19.991  0.00  0.00    +0.000 A 
ATOM     26 CL   UNL     1      -1.410  11.954  20.675  0.00  0.00    +0.000 Cl
ATOM     27  C   UNL     1      -0.051  10.840  18.627  0.00  0.00    +0.000 A 
ATOM     28  C   UNL     1       0.856   9.928  18.077  0.00  0.00    +0.000 A 
ENDBRANCH  21  22
ENDBRANCH  18  21
ENDBRANCH   6  17
TORSDOF 5
ENDMDL
MODEL 2
REMARK VINA RESULT:      -8.1      1.091      1.314
REMARK  Name = 
REMARK  6 active torsions:
REMARK  status: ('A' for Active; 'I' for Inactive)
REMARK    1  A    between atoms: C_1  and  S_2
REMARK    2  A    between atoms: S_2  and  N_5
REMARK    3  A    between atoms: N_8  and  C_9
REMARK    4  A    between atoms: C_14  and  N_15
REMARK    5  A    between atoms: C_16  and  C_18
REMARK    6  A    between atoms: C_18  and  C_19
REMARK                            x       y       z     vdW  Elec       q    Type
REMARK                         _______ _______ _______ _____ _____    ______ ____
ROOT
ATOM      1  C   UNL     1       3.415   3.846  19.443  0.00  0.00    +0.000 A 
ATOM      2  C   UNL     1       3.507   2.860  20.452  0.00  0.00    +0.000 A 
ATOM      3  C   UNL     1       2.496   2.628  21.393  0.00  0.00    +0.000 A 
ATOM      4  C   UNL     1       1.320   3.356  21.336  0.00  0.00    +0.000 A 
ATOM      5  C   UNL     1       1.157   4.302  20.331  0.00  0.00    +0.000 A 
ATOM      6  C   UNL     1       2.186   4.564  19.403  0.00  0.00    +0.000 A 
ENDROOT
BRANCH   1  10
ATOM      7  N   UNL     1       5.703   5.528  16.345  0.00  0.00    +0.000 NA
ATOM      8  C   UNL     1       4.481   4.682  16.156  0.00  0.00    +0.000 C 
ATOM      9  C   UNL     1       4.440   3.524  17.169  0.00  0.00    +0.000 C 
ATOM     10  N   UNL     1       4.477   4.033  18.560  0.00  0.00    +0.000 N 
ATOM     11  C   UNL     1       5.610   4.937  18.831  0.00  0.00    +0.000 C 
ATOM     12  C   UNL     1       5.776   6.037  17.752  0.00  0.00    +0.000 C 
BRANCH   7  14
ATOM     13  C   UNL     1       6.487   3.816  14.416  0.00  0.00    +0.000 C 
ATOM     14  S   UNL     1       7.130   4.920  15.661  0.00  0.00    +0.000 S 
ATOM     15  O   UNL     1       7.789   4.105  16.660  0.00  0.00    +0.000 OA
ATOM     16  O   UNL     1       7.814   6.007  15.006  0.00  0.00    +0.000 OA
ENDBRANCH   7  14
ENDBRANCH   1  10
BRANCH   6  17
ATOM     17  N   UNL     1       1.985   5.664  18.532  0.00  0.00    +0.000 N 
ATOM     18  C   UNL     1       2.270   6.970  18.911  0.00  0.00    +0.000 C 
ATOM     19  O   UNL     1       2.687   7.301  20.022  0.00  0.00    +0.000 OA
ATOM     20  H   UNL     1       1.387   5.490  17.735  0.00  0.00    +0.000 HD
BRANCH  18  21
ATOM     21  C   UNL     1       1.972   8.020  17.853  0.00  0.00    +0.000 C 
BRANCH  21  22
ATOM     22  C   UNL     1       1.526   9.366  18.383  0.00  0.00    +0.000 A 
ATOM     23  C   UNL     1       2.283  10.508  18.068  0.00  0.00    +0.000 A 
ATOM     24  C   UNL     1       1.852  11.782  18.452  0.00  0.00    +0.000 A 
ATOM     25  C   UNL     1       0.656  11.927  19.148  0.00  0.00    +0.000 A 
ATOM     26 CL   UNL     1       0.107  13.496  19.588  0.00  0.00    +0.000 Cl
ATOM     27  C   UNL     1      -0.109  10.810  19.469  0.00  0.00    +0.000 A 
ATOM     28  C   UNL     1       0.321   9.536  19.081  0.00  0.00    +0.000 A 
ENDBRANCH  21  22
ENDBRANCH  18  21
ENDBRANCH   6  17
TORSDOF 5
ENDMDL
MODEL 3
REMARK VINA RESULT:      -8.0      0.916      1.256
REMARK  Name = 
REMARK  6 active torsions:
REMARK  status: ('A' for Active; 'I' for Inactive)
REMARK    1  A    between atoms: C_1  and  S_2
REMARK    2  A    between atoms: S_2  and  N_5
REMARK    3  A    between atoms: N_8  and  C_9
REMARK    4  A    between atoms: C_14  and  N_15
REMARK    5  A    between atoms: C_16  and  C_18
REMARK    6  A    between atoms: C_18  and  C_19
REMARK                            x       y       z     vdW  Elec       q    Type
REMARK                         _______ _______ _______ _____ _____    ______ ____
ROOT
ATOM      1  C   UNL     1       3.367   3.818  19.457  0.00  0.00    +0.000 A 
ATOM      2  C   UNL     1       3.392   2.763  20.399  0.00  0.00    +0.000 A 
ATOM      3  C   UNL     1       2.363   2.535  21.323  0.00  0.00    +0.000 A 
ATOM      4  C   UNL     1       1.237   3.340  21.314  0.00  0.00    +0.000 A 
ATOM      5  C   UNL     1       1.140   4.358  20.374  0.00  0.00    +0.000 A 
ATOM      6  C   UNL     1       2.187   4.614  19.465  0.00  0.00    +0.000 A 
ENDROOT
BRANCH   1  10
ATOM      7  N   UNL     1       5.771   5.548  16.476  0.00  0.00    +0.000 NA
ATOM      8  C   UNL     1       4.498   4.795  16.232  0.00  0.00    +0.000 C 
ATOM      9  C   UNL     1       4.379   3.579  17.167  0.00  0.00    +0.000 C 
ATOM     10  N   UNL     1       4.443   3.993  18.589  0.00  0.00    +0.000 N 
ATOM     11  C   UNL     1       5.630   4.803  18.918  0.00  0.00    +0.000 C 
ATOM     12  C   UNL     1       5.870   5.958  17.913  0.00  0.00    +0.000 C 
BRANCH   7  14
ATOM     13  C   UNL     1       6.450   3.720  14.615  0.00  0.00    +0.000 C 
ATOM     14  S   UNL     1       7.159   4.895  15.754  0.00  0.00    +0.000 S 
ATOM     15  O   UNL     1       7.871   4.141  16.763  0.00  0.00    +0.000 OA
ATOM     16  O   UNL     1       7.807   5.939  14.998  0.00  0.00    +0.000 OA
ENDBRANCH   7  14
ENDBRANCH   1  10
BRANCH   6  17
ATOM     17  N   UNL     1       2.061   5.780  18.668  0.00  0.00    +0.000 N 
ATOM     18  C   UNL     1       2.287   7.052  19.178  0.00  0.00    +0.000 C 
ATOM     19  O   UNL     1       2.583   7.294  20.349  0.00  0.00    +0.000 OA
ATOM     20  H   UNL     1       1.550   5.667  17.802  0.00  0.00    +0.000 HD
BRANCH  18  21
ATOM     21  C   UNL     1       2.084   8.182  18.182  0.00  0.00    +0.000 C 
BRANCH  21  22
ATOM     22  C   UNL     1       1.044   9.212  18.571  0.00  0.00    +0.000 A 
ATOM     23  C   UNL     1      -0.009   9.488  17.682  0.00  0.00    +0.000 A 
ATOM     24  C   UNL     1      -1.044  10.355  18.045  0.00  0.00    +0.000 A 
ATOM     25  C   UNL     1      -1.039  10.950  19.303  0.00  0.00    +0.000 A 
ATOM     26 CL   UNL     1      -2.331  11.989  19.763  0.00  0.00    +0.000 Cl
ATOM     27  C   UNL     1      -0.007  10.689  20.198  0.00  0.00    +0.000 A 
ATOM     28  C   UNL     1       1.026   9.818  19.836  0.00  0.00    +0.000 A 
ENDBRANCH  21  22
ENDBRANCH  18  21
ENDBRANCH   6  17
TORSDOF 5
ENDMDL
MODEL 4
REMARK VINA RESULT:      -7.4      0.958      1.438
REMARK  Name = 
REMARK  6 active torsions:
REMARK  status: ('A' for Active; 'I' for Inactive)
REMARK    1  A    between atoms: C_1  and  S_2
REMARK    2  A    between atoms: S_2  and  N_5
REMARK    3  A    between atoms: N_8  and  C_9
REMARK    4  A    between atoms: C_14  and  N_15
REMARK    5  A    between atoms: C_16  and  C_18
REMARK    6  A    between atoms: C_18  and  C_19
REMARK                            x       y       z     vdW  Elec       q    Type
REMARK                         _______ _______ _______ _____ _____    ______ ____
ROOT
ATOM      1  C   UNL     1       3.524   4.266  19.263  0.00  0.00    +0.000 A 
ATOM      2  C   UNL     1       3.533   2.945  19.768  0.00  0.00    +0.000 A 
ATOM      3  C   UNL     1       2.916   2.581  20.971  0.00  0.00    +0.000 A 
ATOM      4  C   UNL     1       2.224   3.527  21.706  0.00  0.00    +0.000 A 
ATOM      5  C   UNL     1       2.141   4.829  21.228  0.00  0.00    +0.000 A 
ATOM      6  C   UNL     1       2.789   5.210  20.035  0.00  0.00    +0.000 A 
ENDROOT
BRANCH   1  10
ATOM      7  N   UNL     1       6.421   4.061  16.224  0.00  0.00    +0.000 NA
ATOM      8  C   UNL     1       6.619   4.695  17.567  0.00  0.00    +0.000 C 
ATOM      9  C   UNL     1       5.361   5.455  18.021  0.00  0.00    +0.000 C 
ATOM     10  N   UNL     1       4.185   4.554  18.069  0.00  0.00    +0.000 N 
ATOM     11  C   UNL     1       3.942   3.825  16.811  0.00  0.00    +0.000 C 
ATOM     12  C   UNL     1       5.222   3.162  16.242  0.00  0.00    +0.000 C 
BRANCH   7  14
ATOM     13  C   UNL     1       6.216   3.998  13.537  0.00  0.00    +0.000 C 
ATOM     14  S   UNL     1       6.601   5.094  14.891  0.00  0.00    +0.000 S 
ATOM     15  O   UNL     1       8.003   5.436  14.782  0.00  0.00    +0.000 OA
ATOM     16  O   UNL     1       5.582   6.111  14.968  0.00  0.00    +0.000 OA
ENDBRANCH   7  14
ENDBRANCH   1  10
BRANCH   6  17
ATOM     17  N   UNL     1       2.787   6.594  19.730  0.00  0.00    +0.000 N 
ATOM     18  C   UNL     1       2.154   7.102  18.603  0.00  0.00    +0.000 C 
ATOM     19  O   UNL     1       1.570   6.418  17.761  0.00  0.00    +0.000 OA
ATOM     20  H   UNL     1       3.478   7.152  20.214  0.00  0.00    +0.000 HD
BRANCH  18  21
ATOM     21  C   UNL     1       2.274   8.607  18.429  0.00  0.00    +0.000 C 
BRANCH  21  22
ATOM     22  C   UNL     1       1.057   9.407  18.844  0.00  0.00    +0.000 A 
ATOM     23  C   UNL     1       0.935   9.817  20.184  0.00  0.00    +0.000 A 
ATOM     24  C   UNL     1      -0.120  10.641  20.587  0.00  0.00    +0.000 A 
ATOM     25  C   UNL     1      -1.058  11.071  19.654  0.00  0.00    +0.000 A 
ATOM     26 CL   UNL     1      -2.335  12.115  20.143  0.00  0.00    +0.000 Cl
ATOM     27  C   UNL     1      -0.955  10.678  18.323  0.00  0.00    +0.000 A 
ATOM     28  C   UNL     1       0.102   9.856  17.919  0.00  0.00    +0.000 A 
ENDBRANCH  21  22
ENDBRANCH  18  21
ENDBRANCH   6  17
TORSDOF 5
ENDMDL
MODEL 5
REMARK VINA RESULT:      -7.3      0.753      1.339
REMARK  Name = 
REMARK  6 active torsions:
REMARK  status: ('A' for Active; 'I' for Inactive)
REMARK    1  A    between atoms: C_1  and  S_2
REMARK    2  A    between atoms: S_2  and  N_5
REMARK    3  A    between atoms: N_8  and  C_9
REMARK    4  A    between atoms: C_14  and  N_15
REMARK    5  A    between atoms: C_16  and  C_18
REMARK    6  A    between atoms: C_18  and  C_19
REMARK                            x       y       z     vdW  Elec       q    Type
REMARK                         _______ _______ _______ _____ _____    ______ ____
ROOT
ATOM      1  C   UNL     1       3.481   3.791  19.783  0.00  0.00    +0.000 A 
ATOM      2  C   UNL     1       3.273   2.507  20.336  0.00  0.00    +0.000 A 
ATOM      3  C   UNL     1       2.282   2.234  21.288  0.00  0.00    +0.000 A 
ATOM      4  C   UNL     1       1.424   3.238  21.699  0.00  0.00    +0.000 A 
ATOM      5  C   UNL     1       1.552   4.507  21.146  0.00  0.00    +0.000 A 
ATOM      6  C   UNL     1       2.570   4.796  20.214  0.00  0.00    +0.000 A 
ENDROOT
BRANCH   1  10
ATOM      7  N   UNL     1       5.591   5.433  16.540  0.00  0.00    +0.000 NA
ATOM      8  C   UNL     1       4.408   4.521  16.429  0.00  0.00    +0.000 C 
ATOM      9  C   UNL     1       4.454   3.411  17.494  0.00  0.00    +0.000 C 
ATOM     10  N   UNL     1       4.507   3.987  18.859  0.00  0.00    +0.000 N 
ATOM     11  C   UNL     1       5.601   4.956  19.053  0.00  0.00    +0.000 C 
ATOM     12  C   UNL     1       5.680   6.010  17.920  0.00  0.00    +0.000 C 
BRANCH   7  14
ATOM     13  C   UNL     1       7.938   4.331  17.279  0.00  0.00    +0.000 C 
ATOM     14  S   UNL     1       7.027   4.863  15.840  0.00  0.00    +0.000 S 
ATOM     15  O   UNL     1       7.730   5.998  15.281  0.00  0.00    +0.000 OA
ATOM     16  O   UNL     1       6.709   3.706  15.040  0.00  0.00    +0.000 OA
ENDBRANCH   7  14
ENDBRANCH   1  10
BRANCH   6  17
ATOM     17  N   UNL     1       2.721   6.157  19.847  0.00  0.00    +0.000 N 
ATOM     18  C   UNL     1       2.237   6.657  18.645  0.00  0.00    +0.000 C 
ATOM     19  O   UNL     1       1.668   5.982  17.785  0.00  0.00    +0.000 OA
ATOM     20  H   UNL     1       3.416   6.678  20.366  0.00  0.00    +0.000 HD
BRANCH  18  21
ATOM     21  C   UNL     1       2.509   8.135  18.413  0.00  0.00    +0.000 C 
BRANCH  21  22
ATOM     22  C   UNL     1       1.422   9.076  18.886  0.00  0.00    +0.000 A 
ATOM     23  C   UNL     1       0.680   9.795  17.932  0.00  0.00    +0.000 A 
ATOM     24  C   UNL     1      -0.398  10.597  18.319  0.00  0.00    +0.000 A 
ATOM     25  C   UNL     1      -0.750  10.682  19.662  0.00  0.00    +0.000 A 
ATOM     26 CL   UNL     1      -2.098  11.640  20.135  0.00  0.00    +0.000 Cl
ATOM     27  C   UNL     1      -0.030   9.978  20.623  0.00  0.00    +0.000 A 
ATOM     28  C   UNL     1       1.046   9.173  20.234  0.00  0.00    +0.000 A 
ENDBRANCH  21  22
ENDBRANCH  18  21
ENDBRANCH   6  17
TORSDOF 5
ENDMDL
MODEL 6
REMARK VINA RESULT:      -7.3      1.021      1.528
REMARK  Name = 
REMARK  6 active torsions:
REMARK  status: ('A' for Active; 'I' for Inactive)
REMARK    1  A    between atoms: C_1  and  S_2
REMARK    2  A    between atoms: S_2  and  N_5
REMARK    3  A    between atoms: N_8  and  C_9
REMARK    4  A    between atoms: C_14  and  N_15
REMARK    5  A    between atoms: C_16  and  C_18
REMARK    6  A    between atoms: C_18  and  C_19
REMARK                            x       y       z     vdW  Elec       q    Type
REMARK                         _______ _______ _______ _____ _____    ______ ____
ROOT
ATOM      1  C   UNL     1       3.685   4.060  19.281  0.00  0.00    +0.000 A 
ATOM      2  C   UNL     1       3.768   2.723  19.733  0.00  0.00    +0.000 A 
ATOM      3  C   UNL     1       3.190   2.281  20.930  0.00  0.00    +0.000 A 
ATOM      4  C   UNL     1       2.463   3.162  21.712  0.00  0.00    +0.000 A 
ATOM      5  C   UNL     1       2.307   4.476  21.286  0.00  0.00    +0.000 A 
ATOM      6  C   UNL     1       2.917   4.935  20.100  0.00  0.00    +0.000 A 
ENDROOT
BRANCH   1  10
ATOM      7  N   UNL     1       6.519   4.094  16.177  0.00  0.00    +0.000 NA
ATOM      8  C   UNL     1       6.729   4.665  17.547  0.00  0.00    +0.000 C 
ATOM      9  C   UNL     1       5.459   5.364  18.064  0.00  0.00    +0.000 C 
ATOM     10  N   UNL     1       4.311   4.427  18.090  0.00  0.00    +0.000 N 
ATOM     11  C   UNL     1       4.062   3.755  16.801  0.00  0.00    +0.000 C 
ATOM     12  C   UNL     1       5.348   3.160  16.173  0.00  0.00    +0.000 C 
BRANCH   7  14
ATOM     13  C   UNL     1       6.235   4.165  13.498  0.00  0.00    +0.000 C 
ATOM     14  S   UNL     1       6.641   5.197  14.895  0.00  0.00    +0.000 S 
ATOM     15  O   UNL     1       8.033   5.571  14.763  0.00  0.00    +0.000 OA
ATOM     16  O   UNL     1       5.607   6.189  15.054  0.00  0.00    +0.000 OA
ENDBRANCH   7  14
ENDBRANCH   1  10
BRANCH   6  17
ATOM     17  N   UNL     1       2.840   6.328  19.850  0.00  0.00    +0.000 N 
ATOM     18  C   UNL     1       2.128   6.849  18.777  0.00  0.00    +0.000 C 
ATOM     19  O   UNL     1       1.529   6.172  17.940  0.00  0.00    +0.000 OA
ATOM     20  H   UNL     1       3.532   6.897  20.319  0.00  0.00    +0.000 HD
BRANCH  18  21
ATOM     21  C   UNL     1       2.175   8.363  18.656  0.00  0.00    +0.000 C 
BRANCH  21  22
ATOM     22  C   UNL     1       1.271   9.119  19.607  0.00  0.00    +0.000 A 
ATOM     23  C   UNL     1       1.088   8.627  20.911  0.00  0.00    +0.000 A 
ATOM     24  C   UNL     1       0.344   9.346  21.851  0.00  0.00    +0.000 A 
ATOM     25  C   UNL     1      -0.219  10.568  21.498  0.00  0.00    +0.000 A 
ATOM     26 CL   UNL     1      -1.105  11.471  22.664  0.00  0.00    +0.000 Cl
ATOM     27  C   UNL     1      -0.050  11.074  20.213  0.00  0.00    +0.000 A 
ATOM     28  C   UNL     1       0.698  10.356  19.274  0.00  0.00    +0.000 A 
ENDBRANCH  21  22
ENDBRANCH  18  21
ENDBRANCH   6  17
TORSDOF 5
ENDMDL
MODEL 7
REMARK VINA RESULT:      -7.1      1.307      1.795
REMARK  Name = 
REMARK  6 active torsions:
REMARK  status: ('A' for Active; 'I' for Inactive)
REMARK    1  A    between atoms: C_1  and  S_2
REMARK    2  A    between atoms: S_2  and  N_5
REMARK    3  A    between atoms: N_8  and  C_9
REMARK    4  A    between atoms: C_14  and  N_15
REMARK    5  A    between atoms: C_16  and  C_18
REMARK    6  A    between atoms: C_18  and  C_19
REMARK                            x       y       z     vdW  Elec       q    Type
REMARK                         _______ _______ _______ _____ _____    ______ ____
ROOT
ATOM      1  C   UNL     1       3.303   3.973  19.648  0.00  0.00    +0.000 A 
ATOM      2  C   UNL     1       3.419   2.975  20.643  0.00  0.00    +0.000 A 
ATOM      3  C   UNL     1       2.344   2.556  21.437  0.00  0.00    +0.000 A 
ATOM      4  C   UNL     1       1.086   3.098  21.238  0.00  0.00    +0.000 A 
ATOM      5  C   UNL     1       0.908   4.045  20.237  0.00  0.00    +0.000 A 
ATOM      6  C   UNL     1       1.993   4.496  19.458  0.00  0.00    +0.000 A 
ENDROOT
BRANCH   1  10
ATOM      7  N   UNL     1       5.599   5.695  16.577  0.00  0.00    +0.000 NA
ATOM      8  C   UNL     1       4.800   4.433  16.456  0.00  0.00    +0.000 C 
ATOM      9  C   UNL     1       4.892   3.586  17.737  0.00  0.00    +0.000 C 
ATOM     10  N   UNL     1       4.428   4.353  18.917  0.00  0.00    +0.000 N 
ATOM     11  C   UNL     1       5.107   5.651  19.086  0.00  0.00    +0.000 C 
ATOM     12  C   UNL     1       5.163   6.478  17.777  0.00  0.00    +0.000 C 
BRANCH   7  14
ATOM     13  C   UNL     1       7.891   7.022  17.077  0.00  0.00    +0.000 C 
ATOM     14  S   UNL     1       7.266   5.535  16.314  0.00  0.00    +0.000 S 
ATOM     15  O   UNL     1       7.504   5.650  14.891  0.00  0.00    +0.000 OA
ATOM     16  O   UNL     1       7.734   4.398  17.066  0.00  0.00    +0.000 OA
ENDBRANCH   7  14
ENDBRANCH   1  10
BRANCH   6  17
ATOM     17  N   UNL     1       1.735   5.585  18.588  0.00  0.00    +0.000 N 
ATOM     18  C   UNL     1       1.898   6.905  18.987  0.00  0.00    +0.000 C 
ATOM     19  O   UNL     1       2.245   7.258  20.115  0.00  0.00    +0.000 OA
ATOM     20  H   UNL     1       1.184   5.370  17.767  0.00  0.00    +0.000 HD
BRANCH  18  21
ATOM     21  C   UNL     1       1.555   7.939  17.925  0.00  0.00    +0.000 C 
BRANCH  21  22
ATOM     22  C   UNL     1       1.323   9.344  18.439  0.00  0.00    +0.000 A 
ATOM     23  C   UNL     1       2.196  10.370  18.038  0.00  0.00    +0.000 A 
ATOM     24  C   UNL     1       1.958  11.697  18.407  0.00  0.00    +0.000 A 
ATOM     25  C   UNL     1       0.842  12.013  19.175  0.00  0.00    +0.000 A 
ATOM     26 CL   UNL     1       0.529  13.651  19.599  0.00  0.00    +0.000 Cl
ATOM     27  C   UNL     1      -0.036  11.012  19.582  0.00  0.00    +0.000 A 
ATOM     28  C   UNL     1       0.200   9.685  19.209  0.00  0.00    +0.000 A 
ENDBRANCH  21  22
ENDBRANCH  18  21
ENDBRANCH   6  17
TORSDOF 5
ENDMDL
MODEL 8
REMARK VINA RESULT:      -7.0      1.250      1.928
REMARK  Name = 
REMARK  6 active torsions:
REMARK  status: ('A' for Active; 'I' for Inactive)
REMARK    1  A    between atoms: C_1  and  S_2
REMARK    2  A    between atoms: S_2  and  N_5
REMARK    3  A    between atoms: N_8  and  C_9
REMARK    4  A    between atoms: C_14  and  N_15
REMARK    5  A    between atoms: C_16  and  C_18
REMARK    6  A    between atoms: C_18  and  C_19
REMARK                            x       y       z     vdW  Elec       q    Type
REMARK                         _______ _______ _______ _____ _____    ______ ____
ROOT
ATOM      1  C   UNL     1       3.145   4.078  19.393  0.00  0.00    +0.000 A 
ATOM      2  C   UNL     1       3.069   2.675  19.550  0.00  0.00    +0.000 A 
ATOM      3  C   UNL     1       2.282   2.054  20.528  0.00  0.00    +0.000 A 
ATOM      4  C   UNL     1       1.499   2.821  21.373  0.00  0.00    +0.000 A 
ATOM      5  C   UNL     1       1.498   4.203  21.227  0.00  0.00    +0.000 A 
ATOM      6  C   UNL     1       2.315   4.835  20.267  0.00  0.00    +0.000 A 
ENDROOT
BRANCH   1  10
ATOM      7  N   UNL     1       6.383   4.430  16.737  0.00  0.00    +0.000 NA
ATOM      8  C   UNL     1       6.456   4.628  18.220  0.00  0.00    +0.000 C 
ATOM      9  C   UNL     1       5.211   5.361  18.750  0.00  0.00    +0.000 C 
ATOM     10  N   UNL     1       3.973   4.620  18.411  0.00  0.00    +0.000 N 
ATOM     11  C   UNL     1       3.839   4.312  16.975  0.00  0.00    +0.000 C 
ATOM     12  C   UNL     1       5.128   3.702  16.367  0.00  0.00    +0.000 C 
BRANCH   7  14
ATOM     13  C   UNL     1       7.571   6.835  17.013  0.00  0.00    +0.000 C 
ATOM     14  S   UNL     1       6.812   5.774  15.795  0.00  0.00    +0.000 S 
ATOM     15  O   UNL     1       5.591   6.420  15.363  0.00  0.00    +0.000 OA
ATOM     16  O   UNL     1       7.820   5.359  14.851  0.00  0.00    +0.000 OA
ENDBRANCH   7  14
ENDBRANCH   1  10
BRANCH   6  17
ATOM     17  N   UNL     1       2.369   6.251  20.318  0.00  0.00    +0.000 N 
ATOM     18  C   UNL     1       1.947   7.046  19.260  0.00  0.00    +0.000 C 
ATOM     19  O   UNL     1       1.522   6.615  18.187  0.00  0.00    +0.000 OA
ATOM     20  H   UNL     1       2.963   6.642  21.037  0.00  0.00    +0.000 HD
BRANCH  18  21
ATOM     21  C   UNL     1       2.098   8.542  19.487  0.00  0.00    +0.000 C 
BRANCH  21  22
ATOM     22  C   UNL     1       1.061   9.168  20.396  0.00  0.00    +0.000 A 
ATOM     23  C   UNL     1       1.043   8.814  21.756  0.00  0.00    +0.000 A 
ATOM     24  C   UNL     1       0.169   9.443  22.648  0.00  0.00    +0.000 A 
ATOM     25  C   UNL     1      -0.690  10.437  22.190  0.00  0.00    +0.000 A 
ATOM     26 CL   UNL     1      -1.739  11.236  23.294  0.00  0.00    +0.000 Cl
ATOM     27  C   UNL     1      -0.687  10.803  20.848  0.00  0.00    +0.000 A 
ATOM     28  C   UNL     1       0.190  10.176  19.956  0.00  0.00    +0.000 A 
ENDBRANCH  21  22
ENDBRANCH  18  21
ENDBRANCH   6  17
TORSDOF 5
ENDMDL
MODEL 9
REMARK VINA RESULT:      -7.0      0.880      1.066
REMARK  Name = 
REMARK  6 active torsions:
REMARK  status: ('A' for Active; 'I' for Inactive)
REMARK    1  A    between atoms: C_1  and  S_2
REMARK    2  A    between atoms: S_2  and  N_5
REMARK    3  A    between atoms: N_8  and  C_9
REMARK    4  A    between atoms: C_14  and  N_15
REMARK    5  A    between atoms: C_16  and  C_18
REMARK    6  A    between atoms: C_18  and  C_19
REMARK                            x       y       z     vdW  Elec       q    Type
REMARK                         _______ _______ _______ _____ _____    ______ ____
ROOT
ATOM      1  C   UNL     1       3.524   3.784  19.854  0.00  0.00    +0.000 A 
ATOM      2  C   UNL     1       3.381   2.492  20.411  0.00  0.00    +0.000 A 
ATOM      3  C   UNL     1       2.400   2.169  21.356  0.00  0.00    +0.000 A 
ATOM      4  C   UNL     1       1.485   3.127  21.757  0.00  0.00    +0.000 A 
ATOM      5  C   UNL     1       1.549   4.398  21.200  0.00  0.00    +0.000 A 
ATOM      6  C   UNL     1       2.557   4.739  20.275  0.00  0.00    +0.000 A 
ENDROOT
BRANCH   1  10
ATOM      7  N   UNL     1       5.573   5.538  16.630  0.00  0.00    +0.000 NA
ATOM      8  C   UNL     1       4.435   4.571  16.509  0.00  0.00    +0.000 C 
ATOM      9  C   UNL     1       4.526   3.460  17.569  0.00  0.00    +0.000 C 
ATOM     10  N   UNL     1       4.545   4.031  18.937  0.00  0.00    +0.000 N 
ATOM     11  C   UNL     1       5.591   5.050  19.141  0.00  0.00    +0.000 C 
ATOM     12  C   UNL     1       5.627   6.112  18.013  0.00  0.00    +0.000 C 
BRANCH   7  14
ATOM     13  C   UNL     1       7.885   4.350  17.348  0.00  0.00    +0.000 C 
ATOM     14  S   UNL     1       7.037   5.038  15.936  0.00  0.00    +0.000 S 
ATOM     15  O   UNL     1       7.765   6.223  15.534  0.00  0.00    +0.000 OA
ATOM     16  O   UNL     1       6.754   3.975  15.004  0.00  0.00    +0.000 OA
ENDBRANCH   7  14
ENDBRANCH   1  10
BRANCH   6  17
ATOM     17  N   UNL     1       2.637   6.105  19.903  0.00  0.00    +0.000 N 
ATOM     18  C   UNL     1       2.147   6.571  18.690  0.00  0.00    +0.000 C 
ATOM     19  O   UNL     1       1.634   5.862  17.823  0.00  0.00    +0.000 OA
ATOM     20  H   UNL     1       3.291   6.667  20.432  0.00  0.00    +0.000 HD
BRANCH  18  21
ATOM     21  C   UNL     1       2.339   8.061  18.455  0.00  0.00    +0.000 C 
BRANCH  21  22
ATOM     22  C   UNL     1       1.494   8.968  19.325  0.00  0.00    +0.000 A 
ATOM     23  C   UNL     1       1.236   8.593  20.655  0.00  0.00    +0.000 A 
ATOM     24  C   UNL     1       0.547   9.448  21.520  0.00  0.00    +0.000 A 
ATOM     25  C   UNL     1       0.115  10.690  21.066  0.00  0.00    +0.000 A 
ATOM     26 CL   UNL     1      -0.701  11.757  22.140  0.00  0.00    +0.000 Cl
ATOM     27  C   UNL     1       0.361  11.082  19.754  0.00  0.00    +0.000 A 
ATOM     28  C   UNL     1       1.054  10.228  18.890  0.00  0.00    +0.000 A 
ENDBRANCH  21  22
ENDBRANCH  18  21
ENDBRANCH   6  17
TORSDOF 5
ENDMDL
