MODEL 1
REMARK VINA RESULT:      -6.3      0.000      0.000
REMARK  Name = 
REMARK  12 active torsions:
REMARK  status: ('A' for Active; 'I' for Inactive)
REMARK    1  A    between atoms: C_1  and  O_2
REMARK    2  A    between atoms: O_2  and  C_3
REMARK    3  A    between atoms: C_3  and  C_5
REMARK    4  A    between atoms: C_5  and  N_6
REMARK    5  A    between atoms: N_6  and  C_7
REMARK    6  A    between atoms: C_7  and  C_8
REMARK    7  A    between atoms: C_7  and  C_14
REMARK    8  A    between atoms: C_16  and  C_17
REMARK    9  A    between atoms: C_20  and  N_21
REMARK   10  A    between atoms: N_21  and  S_22
REMARK   11  A    between atoms: S_22  and  C_25
REMARK   12  A    between atoms: C_28  and  C_29
REMARK                            x       y       z     vdW  Elec       q    Type
REMARK                         _______ _______ _______ _____ _____    ______ ____
ROOT
ATOM      1  C   UNL     1       0.615   9.618  18.769  0.00  0.00    +0.000 A 
ATOM      2  C   UNL     1       1.557   8.961  17.951  0.00  0.00    +0.000 A 
ATOM      3  C   UNL     1       2.373   7.949  18.458  0.00  0.00    +0.000 A 
ATOM      4  C   UNL     1       3.350   7.229  17.573  0.00  0.00    +0.000 C 
ATOM      5  C   UNL     1       2.261   7.604  19.812  0.00  0.00    +0.000 A 
ATOM      6  C   UNL     1       1.340   8.248  20.645  0.00  0.00    +0.000 A 
ATOM      7  C   UNL     1       0.506   9.242  20.137  0.00  0.00    +0.000 A 
ENDROOT
BRANCH   7   8
ATOM      8  N   UNL     1      -0.492   9.815  21.004  0.00  0.00    +0.000 N 
ATOM      9  H   UNL     1      -1.233  10.288  20.470  0.00  0.00    +0.000 HD
BRANCH   8  10
ATOM     10  S   UNL     1      -0.004  10.845  22.266  0.00  0.00    +0.000 S 
ATOM     11  O   UNL     1      -0.322  10.258  23.550  0.00  0.00    +0.000 OA
ATOM     12  O   UNL     1       1.329  11.307  21.928  0.00  0.00    +0.000 OA
BRANCH  10  13
ATOM     13  C   UNL     1      -1.024  12.292  22.078  0.00  0.00    +0.000 A 
ATOM     14  C   UNL     1      -2.391  12.152  21.835  0.00  0.00    +0.000 A 
ATOM     15  C   UNL     1      -3.201  13.288  21.773  0.00  0.00    +0.000 A 
ATOM     16  C   UNL     1      -2.650  14.562  21.962  0.00  0.00    +0.000 A 
ATOM     17  C   UNL     1      -3.491  15.795  21.800  0.00  0.00    +0.000 C 
ATOM     18  C   UNL     1      -1.288  14.683  22.270  0.00  0.00    +0.000 A 
ATOM     19  C   UNL     1      -0.474  13.551  22.336  0.00  0.00    +0.000 A 
ENDBRANCH  10  13
ENDBRANCH   8  10
ENDBRANCH   7   8
BRANCH   1  20
ATOM     20  C   UNL     1      -0.239  10.740  18.134  0.00  0.00    +0.000 C 
BRANCH  20  21
ATOM     21  C   UNL     1       0.289  12.096  18.609  0.00  0.00    +0.000 A 
ATOM     22  C   UNL     1       1.648  12.365  18.811  0.00  0.00    +0.000 A 
ATOM     23  C   UNL     1       2.105  13.683  18.930  0.00  0.00    +0.000 A 
ATOM     24  C   UNL     1       1.214  14.749  18.859  0.00  0.00    +0.000 A 
ATOM     25  C   UNL     1      -0.150  14.500  18.777  0.00  0.00    +0.000 A 
ATOM     26  C   UNL     1      -0.609  13.184  18.694  0.00  0.00    +0.000 A 
ENDBRANCH  20  21
BRANCH  20  27
ATOM     27  N   UNL     1      -1.636  10.410  18.469  0.00  0.00    +0.000 NA
ATOM     28  H   UNL     1      -1.595   9.665  19.178  0.00  0.00    +0.000 HD
BRANCH  27  29
ATOM     29  C   UNL     1      -2.475   9.857  17.390  0.00  0.00    +0.000 C 
BRANCH  29  30
ATOM     30  C   UNL     1      -3.180  11.047  16.714  0.00  0.00    +0.000 C 
ATOM     31  O   UNL     1      -4.008  11.759  17.277  0.00  0.00    +0.000 OA
BRANCH  30  33
ATOM     32  C   UNL     1      -3.085  10.031  14.619  0.00  0.00    +0.000 C 
ATOM     33  O   UNL     1      -2.797  11.183  15.416  0.00  0.00    +0.000 OA
ENDBRANCH  30  33
ENDBRANCH  29  30
ENDBRANCH  27  29
ENDBRANCH  20  27
ENDBRANCH   1  20
TORSDOF 9
ENDMDL
MODEL 2
REMARK VINA RESULT:      -6.2      2.331      6.605
REMARK  Name = 
REMARK  12 active torsions:
REMARK  status: ('A' for Active; 'I' for Inactive)
REMARK    1  A    between atoms: C_1  and  O_2
REMARK    2  A    between atoms: O_2  and  C_3
REMARK    3  A    between atoms: C_3  and  C_5
REMARK    4  A    between atoms: C_5  and  N_6
REMARK    5  A    between atoms: N_6  and  C_7
REMARK    6  A    between atoms: C_7  and  C_8
REMARK    7  A    between atoms: C_7  and  C_14
REMARK    8  A    between atoms: C_16  and  C_17
REMARK    9  A    between atoms: C_20  and  N_21
REMARK   10  A    between atoms: N_21  and  S_22
REMARK   11  A    between atoms: S_22  and  C_25
REMARK   12  A    between atoms: C_28  and  C_29
REMARK                            x       y       z     vdW  Elec       q    Type
REMARK                         _______ _______ _______ _____ _____    ______ ____
ROOT
ATOM      1  C   UNL     1      -1.046  11.942  19.834  0.00  0.00    +0.000 A 
ATOM      2  C   UNL     1      -2.307  12.208  19.261  0.00  0.00    +0.000 A 
ATOM      3  C   UNL     1      -2.865  11.349  18.312  0.00  0.00    +0.000 A 
ATOM      4  C   UNL     1      -4.223  11.620  17.732  0.00  0.00    +0.000 C 
ATOM      5  C   UNL     1      -2.140  10.218  17.914  0.00  0.00    +0.000 A 
ATOM      6  C   UNL     1      -0.884   9.939  18.462  0.00  0.00    +0.000 A 
ATOM      7  C   UNL     1      -0.333  10.780  19.427  0.00  0.00    +0.000 A 
ENDROOT
BRANCH   7   8
ATOM      8  N   UNL     1       0.920  10.406  20.034  0.00  0.00    +0.000 N 
ATOM      9  H   UNL     1       1.647  10.235  19.326  0.00  0.00    +0.000 HD
BRANCH   8  10
ATOM     10  S   UNL     1       0.951   9.126  21.152  0.00  0.00    +0.000 S 
ATOM     11  O   UNL     1       1.838   9.438  22.253  0.00  0.00    +0.000 OA
ATOM     12  O   UNL     1      -0.426   8.717  21.350  0.00  0.00    +0.000 OA
BRANCH  10  13
ATOM     13  C   UNL     1       1.680   7.771  20.255  0.00  0.00    +0.000 A 
ATOM     14  C   UNL     1       1.608   6.476  20.772  0.00  0.00    +0.000 A 
ATOM     15  C   UNL     1       2.105   5.406  20.026  0.00  0.00    +0.000 A 
ATOM     16  C   UNL     1       2.666   5.625  18.761  0.00  0.00    +0.000 A 
ATOM     17  C   UNL     1       3.292   4.498  17.992  0.00  0.00    +0.000 C 
ATOM     18  C   UNL     1       2.672   6.921  18.227  0.00  0.00    +0.000 A 
ATOM     19  C   UNL     1       2.174   7.994  18.967  0.00  0.00    +0.000 A 
ENDBRANCH  10  13
ENDBRANCH   8  10
ENDBRANCH   7   8
BRANCH   1  20
ATOM     20  C   UNL     1      -0.491  12.952  20.865  0.00  0.00    +0.000 C 
BRANCH  20  21
ATOM     21  C   UNL     1      -1.522  13.137  21.983  0.00  0.00    +0.000 A 
ATOM     22  C   UNL     1      -2.277  14.303  22.148  0.00  0.00    +0.000 A 
ATOM     23  C   UNL     1      -3.414  14.308  22.964  0.00  0.00    +0.000 A 
ATOM     24  C   UNL     1      -3.808  13.154  23.635  0.00  0.00    +0.000 A 
ATOM     25  C   UNL     1      -3.007  12.021  23.578  0.00  0.00    +0.000 A 
ATOM     26  C   UNL     1      -1.854  12.026  22.792  0.00  0.00    +0.000 A 
ENDBRANCH  20  21
BRANCH  20  27
ATOM     27  N   UNL     1      -0.124  14.150  20.088  0.00  0.00    +0.000 NA
ATOM     28  H   UNL     1      -0.036  13.843  19.109  0.00  0.00    +0.000 HD
BRANCH  27  29
ATOM     29  C   UNL     1       1.168  14.786  20.400  0.00  0.00    +0.000 C 
BRANCH  29  30
ATOM     30  C   UNL     1       2.218  13.662  20.464  0.00  0.00    +0.000 C 
ATOM     31  O   UNL     1       2.809  13.336  21.491  0.00  0.00    +0.000 OA
BRANCH  30  33
ATOM     32  C   UNL     1       2.946  14.034  18.281  0.00  0.00    +0.000 C 
ATOM     33  O   UNL     1       2.431  13.106  19.240  0.00  0.00    +0.000 OA
ENDBRANCH  30  33
ENDBRANCH  29  30
ENDBRANCH  27  29
ENDBRANCH  20  27
ENDBRANCH   1  20
TORSDOF 9
ENDMDL
MODEL 3
REMARK VINA RESULT:      -6.1      5.033      8.878
REMARK  Name = 
REMARK  12 active torsions:
REMARK  status: ('A' for Active; 'I' for Inactive)
REMARK    1  A    between atoms: C_1  and  O_2
REMARK    2  A    between atoms: O_2  and  C_3
REMARK    3  A    between atoms: C_3  and  C_5
REMARK    4  A    between atoms: C_5  and  N_6
REMARK    5  A    between atoms: N_6  and  C_7
REMARK    6  A    between atoms: C_7  and  C_8
REMARK    7  A    between atoms: C_7  and  C_14
REMARK    8  A    between atoms: C_16  and  C_17
REMARK    9  A    between atoms: C_20  and  N_21
REMARK   10  A    between atoms: N_21  and  S_22
REMARK   11  A    between atoms: S_22  and  C_25
REMARK   12  A    between atoms: C_28  and  C_29
REMARK                            x       y       z     vdW  Elec       q    Type
REMARK                         _______ _______ _______ _____ _____    ______ ____
ROOT
ATOM      1  C   UNL     1       5.358   4.655  17.160  0.00  0.00    +0.000 A 
ATOM      2  C   UNL     1       5.829   3.986  16.011  0.00  0.00    +0.000 A 
ATOM      3  C   UNL     1       5.718   4.562  14.744  0.00  0.00    +0.000 A 
ATOM      4  C   UNL     1       6.253   3.859  13.529  0.00  0.00    +0.000 C 
ATOM      5  C   UNL     1       5.106   5.816  14.622  0.00  0.00    +0.000 A 
ATOM      6  C   UNL     1       4.623   6.494  15.746  0.00  0.00    +0.000 A 
ATOM      7  C   UNL     1       4.754   5.935  17.016  0.00  0.00    +0.000 A 
ENDROOT
BRANCH   7   8
ATOM      8  N   UNL     1       4.328   6.706  18.156  0.00  0.00    +0.000 N 
ATOM      9  H   UNL     1       4.994   6.628  18.937  0.00  0.00    +0.000 HD
BRANCH   8  10
ATOM     10  S   UNL     1       2.758   6.484  18.770  0.00  0.00    +0.000 S 
ATOM     11  O   UNL     1       1.938   5.770  17.815  0.00  0.00    +0.000 OA
ATOM     12  O   UNL     1       2.911   6.049  20.146  0.00  0.00    +0.000 OA
BRANCH  10  13
ATOM     13  C   UNL     1       2.097   8.131  18.908  0.00  0.00    +0.000 A 
ATOM     14  C   UNL     1       2.128   8.987  17.806  0.00  0.00    +0.000 A 
ATOM     15  C   UNL     1       1.532  10.247  17.894  0.00  0.00    +0.000 A 
ATOM     16  C   UNL     1       0.899  10.650  19.077  0.00  0.00    +0.000 A 
ATOM     17  C   UNL     1       0.342  12.037  19.217  0.00  0.00    +0.000 C 
ATOM     18  C   UNL     1       0.818   9.755  20.153  0.00  0.00    +0.000 A 
ATOM     19  C   UNL     1       1.409   8.494  20.070  0.00  0.00    +0.000 A 
ENDBRANCH  10  13
ENDBRANCH   8  10
ENDBRANCH   7   8
BRANCH   1  20
ATOM     20  C   UNL     1       5.504   3.942  18.524  0.00  0.00    +0.000 C 
BRANCH  20  21
ATOM     21  C   UNL     1       4.229   3.140  18.805  0.00  0.00    +0.000 A 
ATOM     22  C   UNL     1       3.697   2.965  20.087  0.00  0.00    +0.000 A 
ATOM     23  C   UNL     1       2.385   2.511  20.259  0.00  0.00    +0.000 A 
ATOM     24  C   UNL     1       1.588   2.216  19.157  0.00  0.00    +0.000 A 
ATOM     25  C   UNL     1       2.135   2.271  17.882  0.00  0.00    +0.000 A 
ATOM     26  C   UNL     1       3.455   2.690  17.711  0.00  0.00    +0.000 A 
ENDBRANCH  20  21
BRANCH  20  27
ATOM     27  N   UNL     1       5.855   5.001  19.488  0.00  0.00    +0.000 NA
ATOM     28  H   UNL     1       5.512   5.884  19.085  0.00  0.00    +0.000 HD
BRANCH  27  29
ATOM     29  C   UNL     1       7.288   5.234  19.740  0.00  0.00    +0.000 C 
BRANCH  29  30
ATOM     30  C   UNL     1       8.007   5.128  18.383  0.00  0.00    +0.000 C 
ATOM     31  O   UNL     1       8.590   4.119  17.996  0.00  0.00    +0.000 OA
BRANCH  30  33
ATOM     32  C   UNL     1       8.179   7.449  18.506  0.00  0.00    +0.000 C 
ATOM     33  O   UNL     1       7.942   6.298  17.691  0.00  0.00    +0.000 OA
ENDBRANCH  30  33
ENDBRANCH  29  30
ENDBRANCH  27  29
ENDBRANCH  20  27
ENDBRANCH   1  20
TORSDOF 9
ENDMDL
MODEL 4
REMARK VINA RESULT:      -6.1      2.371      6.542
REMARK  Name = 
REMARK  12 active torsions:
REMARK  status: ('A' for Active; 'I' for Inactive)
REMARK    1  A    between atoms: C_1  and  O_2
REMARK    2  A    between atoms: O_2  and  C_3
REMARK    3  A    between atoms: C_3  and  C_5
REMARK    4  A    between atoms: C_5  and  N_6
REMARK    5  A    between atoms: N_6  and  C_7
REMARK    6  A    between atoms: C_7  and  C_8
REMARK    7  A    between atoms: C_7  and  C_14
REMARK    8  A    between atoms: C_16  and  C_17
REMARK    9  A    between atoms: C_20  and  N_21
REMARK   10  A    between atoms: N_21  and  S_22
REMARK   11  A    between atoms: S_22  and  C_25
REMARK   12  A    between atoms: C_28  and  C_29
REMARK                            x       y       z     vdW  Elec       q    Type
REMARK                         _______ _______ _______ _____ _____    ______ ____
ROOT
ATOM      1  C   UNL     1      -2.502  12.338  19.600  0.00  0.00    +0.000 A 
ATOM      2  C   UNL     1      -3.856  12.173  19.244  0.00  0.00    +0.000 A 
ATOM      3  C   UNL     1      -4.241  11.241  18.278  0.00  0.00    +0.000 A 
ATOM      4  C   UNL     1      -5.688  11.047  17.928  0.00  0.00    +0.000 C 
ATOM      5  C   UNL     1      -3.252  10.478  17.643  0.00  0.00    +0.000 A 
ATOM      6  C   UNL     1      -1.902  10.630  17.975  0.00  0.00    +0.000 A 
ATOM      7  C   UNL     1      -1.515  11.542  18.956  0.00  0.00    +0.000 A 
ENDROOT
BRANCH   7   8
ATOM      8  N   UNL     1      -0.125  11.601  19.333  0.00  0.00    +0.000 N 
ATOM      9  H   UNL     1       0.493  11.472  18.521  0.00  0.00    +0.000 HD
BRANCH   8  10
ATOM     10  S   UNL     1       0.436  10.607  20.593  0.00  0.00    +0.000 S 
ATOM     11  O   UNL     1       1.464  11.286  21.352  0.00  0.00    +0.000 OA
ATOM     12  O   UNL     1      -0.739  10.027  21.216  0.00  0.00    +0.000 OA
BRANCH  10  13
ATOM     13  C   UNL     1       1.209   9.233  19.765  0.00  0.00    +0.000 A 
ATOM     14  C   UNL     1       1.605   9.358  18.433  0.00  0.00    +0.000 A 
ATOM     15  C   UNL     1       2.286   8.308  17.814  0.00  0.00    +0.000 A 
ATOM     16  C   UNL     1       2.581   7.138  18.525  0.00  0.00    +0.000 A 
ATOM     17  C   UNL     1       3.225   5.965  17.845  0.00  0.00    +0.000 C 
ATOM     18  C   UNL     1       2.235   7.053  19.881  0.00  0.00    +0.000 A 
ATOM     19  C   UNL     1       1.556   8.100  20.506  0.00  0.00    +0.000 A 
ENDBRANCH  10  13
ENDBRANCH   8  10
ENDBRANCH   7   8
BRANCH   1  20
ATOM     20  C   UNL     1      -2.158  13.404  20.667  0.00  0.00    +0.000 C 
BRANCH  20  21
ATOM     21  C   UNL     1      -3.143  13.275  21.833  0.00  0.00    +0.000 A 
ATOM     22  C   UNL     1      -3.000  12.338  22.862  0.00  0.00    +0.000 A 
ATOM     23  C   UNL     1      -3.726  12.467  24.051  0.00  0.00    +0.000 A 
ATOM     24  C   UNL     1      -4.612  13.525  24.227  0.00  0.00    +0.000 A 
ATOM     25  C   UNL     1      -4.856  14.398  23.175  0.00  0.00    +0.000 A 
ATOM     26  C   UNL     1      -4.158  14.249  21.976  0.00  0.00    +0.000 A 
ENDBRANCH  20  21
BRANCH  20  27
ATOM     27  N   UNL     1      -2.135  14.690  19.948  0.00  0.00    +0.000 NA
ATOM     28  H   UNL     1      -2.035  14.461  18.949  0.00  0.00    +0.000 HD
BRANCH  27  29
ATOM     29  C   UNL     1      -1.016  15.605  20.238  0.00  0.00    +0.000 C 
BRANCH  29  30
ATOM     30  C   UNL     1      -0.061  15.543  19.033  0.00  0.00    +0.000 C 
ATOM     31  O   UNL     1       0.419  14.501  18.594  0.00  0.00    +0.000 OA
BRANCH  30  33
ATOM     32  C   UNL     1      -0.969  17.552  18.277  0.00  0.00    +0.000 C 
ATOM     33  O   UNL     1       0.208  16.784  18.544  0.00  0.00    +0.000 OA
ENDBRANCH  30  33
ENDBRANCH  29  30
ENDBRANCH  27  29
ENDBRANCH  20  27
ENDBRANCH   1  20
TORSDOF 9
ENDMDL
MODEL 5
REMARK VINA RESULT:      -6.1      2.416      6.263
REMARK  Name = 
REMARK  12 active torsions:
REMARK  status: ('A' for Active; 'I' for Inactive)
REMARK    1  A    between atoms: C_1  and  O_2
REMARK    2  A    between atoms: O_2  and  C_3
REMARK    3  A    between atoms: C_3  and  C_5
REMARK    4  A    between atoms: C_5  and  N_6
REMARK    5  A    between atoms: N_6  and  C_7
REMARK    6  A    between atoms: C_7  and  C_8
REMARK    7  A    between atoms: C_7  and  C_14
REMARK    8  A    between atoms: C_16  and  C_17
REMARK    9  A    between atoms: C_20  and  N_21
REMARK   10  A    between atoms: N_21  and  S_22
REMARK   11  A    between atoms: S_22  and  C_25
REMARK   12  A    between atoms: C_28  and  C_29
REMARK                            x       y       z     vdW  Elec       q    Type
REMARK                         _______ _______ _______ _____ _____    ______ ____
ROOT
ATOM      1  C   UNL     1      -0.954  11.878  19.752  0.00  0.00    +0.000 A 
ATOM      2  C   UNL     1      -2.195  12.163  19.144  0.00  0.00    +0.000 A 
ATOM      3  C   UNL     1      -2.707  11.351  18.131  0.00  0.00    +0.000 A 
ATOM      4  C   UNL     1      -4.044  11.640  17.511  0.00  0.00    +0.000 C 
ATOM      5  C   UNL     1      -1.955  10.248  17.703  0.00  0.00    +0.000 A 
ATOM      6  C   UNL     1      -0.718   9.950  18.285  0.00  0.00    +0.000 A 
ATOM      7  C   UNL     1      -0.215  10.744  19.314  0.00  0.00    +0.000 A 
ENDROOT
BRANCH   7   8
ATOM      8  N   UNL     1       1.017  10.350  19.950  0.00  0.00    +0.000 N 
ATOM      9  H   UNL     1       1.748  10.134  19.259  0.00  0.00    +0.000 HD
BRANCH   8  10
ATOM     10  S   UNL     1       0.993   9.104  21.106  0.00  0.00    +0.000 S 
ATOM     11  O   UNL     1       1.871   9.422  22.211  0.00  0.00    +0.000 OA
ATOM     12  O   UNL     1      -0.400   8.742  21.294  0.00  0.00    +0.000 OA
BRANCH  10  13
ATOM     13  C   UNL     1       1.693   7.700  20.262  0.00  0.00    +0.000 A 
ATOM     14  C   UNL     1       1.567   6.424  20.813  0.00  0.00    +0.000 A 
ATOM     15  C   UNL     1       2.043   5.318  20.107  0.00  0.00    +0.000 A 
ATOM     16  C   UNL     1       2.636   5.482  18.848  0.00  0.00    +0.000 A 
ATOM     17  C   UNL     1       3.239   4.315  18.124  0.00  0.00    +0.000 C 
ATOM     18  C   UNL     1       2.696   6.762  18.279  0.00  0.00    +0.000 A 
ATOM     19  C   UNL     1       2.220   7.871  18.979  0.00  0.00    +0.000 A 
ENDBRANCH  10  13
ENDBRANCH   8  10
ENDBRANCH   7   8
BRANCH   1  20
ATOM     20  C   UNL     1      -0.451  12.837  20.855  0.00  0.00    +0.000 C 
BRANCH  20  21
ATOM     21  C   UNL     1       0.777  13.591  20.336  0.00  0.00    +0.000 A 
ATOM     22  C   UNL     1       1.972  13.705  21.056  0.00  0.00    +0.000 A 
ATOM     23  C   UNL     1       3.151  14.114  20.422  0.00  0.00    +0.000 A 
ATOM     24  C   UNL     1       3.153  14.424  19.066  0.00  0.00    +0.000 A 
ATOM     25  C   UNL     1       1.957  14.431  18.361  0.00  0.00    +0.000 A 
ATOM     26  C   UNL     1       0.774  14.057  19.001  0.00  0.00    +0.000 A 
ENDBRANCH  20  21
BRANCH  20  27
ATOM     27  N   UNL     1      -0.265  11.998  22.053  0.00  0.00    +0.000 NA
ATOM     28  H   UNL     1      -0.184  11.028  21.717  0.00  0.00    +0.000 HD
BRANCH  27  29
ATOM     29  C   UNL     1      -1.366  11.968  23.032  0.00  0.00    +0.000 C 
BRANCH  29  30
ATOM     30  C   UNL     1      -1.628  13.423  23.459  0.00  0.00    +0.000 C 
ATOM     31  O   UNL     1      -0.744  14.203  23.804  0.00  0.00    +0.000 OA
BRANCH  30  33
ATOM     32  C   UNL     1      -3.789  12.590  23.721  0.00  0.00    +0.000 C 
ATOM     33  O   UNL     1      -2.957  13.718  23.440  0.00  0.00    +0.000 OA
ENDBRANCH  30  33
ENDBRANCH  29  30
ENDBRANCH  27  29
ENDBRANCH  20  27
ENDBRANCH   1  20
TORSDOF 9
ENDMDL
MODEL 6
REMARK VINA RESULT:      -6.1      1.302      1.832
REMARK  Name = 
REMARK  12 active torsions:
REMARK  status: ('A' for Active; 'I' for Inactive)
REMARK    1  A    between atoms: C_1  and  O_2
REMARK    2  A    between atoms: O_2  and  C_3
REMARK    3  A    between atoms: C_3  and  C_5
REMARK    4  A    between atoms: C_5  and  N_6
REMARK    5  A    between atoms: N_6  and  C_7
REMARK    6  A    between atoms: C_7  and  C_8
REMARK    7  A    between atoms: C_7  and  C_14
REMARK    8  A    between atoms: C_16  and  C_17
REMARK    9  A    between atoms: C_20  and  N_21
REMARK   10  A    between atoms: N_21  and  S_22
REMARK   11  A    between atoms: S_22  and  C_25
REMARK   12  A    between atoms: C_28  and  C_29
REMARK                            x       y       z     vdW  Elec       q    Type
REMARK                         _______ _______ _______ _____ _____    ______ ____
ROOT
ATOM      1  C   UNL     1       0.157  10.595  18.781  0.00  0.00    +0.000 A 
ATOM      2  C   UNL     1       1.080   9.826  18.041  0.00  0.00    +0.000 A 
ATOM      3  C   UNL     1       1.760   8.756  18.624  0.00  0.00    +0.000 A 
ATOM      4  C   UNL     1       2.715   7.920  17.821  0.00  0.00    +0.000 C 
ATOM      5  C   UNL     1       1.530   8.463  19.975  0.00  0.00    +0.000 A 
ATOM      6  C   UNL     1       0.626   9.217  20.731  0.00  0.00    +0.000 A 
ATOM      7  C   UNL     1      -0.074  10.271  20.147  0.00  0.00    +0.000 A 
ENDROOT
BRANCH   7   8
ATOM      8  N   UNL     1      -1.064  10.962  20.935  0.00  0.00    +0.000 N 
ATOM      9  H   UNL     1      -1.593  11.639  20.369  0.00  0.00    +0.000 HD
BRANCH   8  10
ATOM     10  S   UNL     1      -0.590  11.729  22.376  0.00  0.00    +0.000 S 
ATOM     11  O   UNL     1      -0.414  10.754  23.432  0.00  0.00    +0.000 OA
ATOM     12  O   UNL     1       0.440  12.684  22.017  0.00  0.00    +0.000 OA
BRANCH  10  13
ATOM     13  C   UNL     1      -1.985  12.743  22.820  0.00  0.00    +0.000 A 
ATOM     14  C   UNL     1      -2.039  14.072  22.398  0.00  0.00    +0.000 A 
ATOM     15  C   UNL     1      -3.173  14.838  22.676  0.00  0.00    +0.000 A 
ATOM     16  C   UNL     1      -4.255  14.278  23.366  0.00  0.00    +0.000 A 
ATOM     17  C   UNL     1      -5.437  15.117  23.756  0.00  0.00    +0.000 C 
ATOM     18  C   UNL     1      -4.214  12.923  23.725  0.00  0.00    +0.000 A 
ATOM     19  C   UNL     1      -3.084  12.152  23.448  0.00  0.00    +0.000 A 
ENDBRANCH  10  13
ENDBRANCH   8  10
ENDBRANCH   7   8
BRANCH   1  20
ATOM     20  C   UNL     1      -0.542  11.775  18.066  0.00  0.00    +0.000 C 
BRANCH  20  21
ATOM     21  C   UNL     1       0.166  13.078  18.449  0.00  0.00    +0.000 A 
ATOM     22  C   UNL     1      -0.501  14.190  18.975  0.00  0.00    +0.000 A 
ATOM     23  C   UNL     1       0.211  15.219  19.601  0.00  0.00    +0.000 A 
ATOM     24  C   UNL     1       1.598  15.159  19.702  0.00  0.00    +0.000 A 
ATOM     25  C   UNL     1       2.287  14.124  19.084  0.00  0.00    +0.000 A 
ATOM     26  C   UNL     1       1.578  13.115  18.429  0.00  0.00    +0.000 A 
ENDBRANCH  20  21
BRANCH  20  27
ATOM     27  N   UNL     1      -1.969  11.659  18.417  0.00  0.00    +0.000 NA
ATOM     28  H   UNL     1      -2.061  10.800  18.977  0.00  0.00    +0.000 HD
BRANCH  27  29
ATOM     29  C   UNL     1      -2.924  11.489  17.307  0.00  0.00    +0.000 C 
BRANCH  29  30
ATOM     30  C   UNL     1      -3.059   9.975  17.059  0.00  0.00    +0.000 C 
ATOM     31  O   UNL     1      -3.492   9.183  17.891  0.00  0.00    +0.000 OA
BRANCH  30  33
ATOM     32  C   UNL     1      -3.181  10.411  14.772  0.00  0.00    +0.000 C 
ATOM     33  O   UNL     1      -2.606   9.630  15.823  0.00  0.00    +0.000 OA
ENDBRANCH  30  33
ENDBRANCH  29  30
ENDBRANCH  27  29
ENDBRANCH  20  27
ENDBRANCH   1  20
TORSDOF 9
ENDMDL
MODEL 7
REMARK VINA RESULT:      -6.0      1.528      5.512
REMARK  Name = 
REMARK  12 active torsions:
REMARK  status: ('A' for Active; 'I' for Inactive)
REMARK    1  A    between atoms: C_1  and  O_2
REMARK    2  A    between atoms: O_2  and  C_3
REMARK    3  A    between atoms: C_3  and  C_5
REMARK    4  A    between atoms: C_5  and  N_6
REMARK    5  A    between atoms: N_6  and  C_7
REMARK    6  A    between atoms: C_7  and  C_8
REMARK    7  A    between atoms: C_7  and  C_14
REMARK    8  A    between atoms: C_16  and  C_17
REMARK    9  A    between atoms: C_20  and  N_21
REMARK   10  A    between atoms: N_21  and  S_22
REMARK   11  A    between atoms: S_22  and  C_25
REMARK   12  A    between atoms: C_28  and  C_29
REMARK                            x       y       z     vdW  Elec       q    Type
REMARK                         _______ _______ _______ _____ _____    ______ ____
ROOT
ATOM      1  C   UNL     1      -1.440  12.188  20.168  0.00  0.00    +0.000 A 
ATOM      2  C   UNL     1      -2.647  12.893  20.360  0.00  0.00    +0.000 A 
ATOM      3  C   UNL     1      -3.240  12.980  21.621  0.00  0.00    +0.000 A 
ATOM      4  C   UNL     1      -4.507  13.761  21.825  0.00  0.00    +0.000 C 
ATOM      5  C   UNL     1      -2.628  12.332  22.702  0.00  0.00    +0.000 A 
ATOM      6  C   UNL     1      -1.436  11.620  22.534  0.00  0.00    +0.000 A 
ATOM      7  C   UNL     1      -0.827  11.551  21.282  0.00  0.00    +0.000 A 
ENDROOT
BRANCH   7   8
ATOM      8  N   UNL     1       0.448  10.887  21.171  0.00  0.00    +0.000 N 
ATOM      9  H   UNL     1       0.799  10.902  20.204  0.00  0.00    +0.000 HD
BRANCH   8  10
ATOM     10  S   UNL     1       0.616   9.307  21.775  0.00  0.00    +0.000 S 
ATOM     11  O   UNL     1       1.521   9.291  22.904  0.00  0.00    +0.000 OA
ATOM     12  O   UNL     1      -0.720   8.745  21.838  0.00  0.00    +0.000 OA
BRANCH  10  13
ATOM     13  C   UNL     1       1.401   8.408  20.454  0.00  0.00    +0.000 A 
ATOM     14  C   UNL     1       1.639   9.036  19.230  0.00  0.00    +0.000 A 
ATOM     15  C   UNL     1       2.330   8.353  18.228  0.00  0.00    +0.000 A 
ATOM     16  C   UNL     1       2.793   7.050  18.447  0.00  0.00    +0.000 A 
ATOM     17  C   UNL     1       3.451   6.271  17.345  0.00  0.00    +0.000 C 
ATOM     18  C   UNL     1       2.605   6.456  19.703  0.00  0.00    +0.000 A 
ATOM     19  C   UNL     1       1.917   7.133  20.710  0.00  0.00    +0.000 A 
ENDBRANCH  10  13
ENDBRANCH   8  10
ENDBRANCH   7   8
BRANCH   1  20
ATOM     20  C   UNL     1      -0.857  12.127  18.737  0.00  0.00    +0.000 C 
BRANCH  20  21
ATOM     21  C   UNL     1       0.280  13.146  18.620  0.00  0.00    +0.000 A 
ATOM     22  C   UNL     1       0.127  14.506  18.911  0.00  0.00    +0.000 A 
ATOM     23  C   UNL     1       1.246  15.326  19.101  0.00  0.00    +0.000 A 
ATOM     24  C   UNL     1       2.531  14.804  18.994  0.00  0.00    +0.000 A 
ATOM     25  C   UNL     1       2.705  13.486  18.591  0.00  0.00    +0.000 A 
ATOM     26  C   UNL     1       1.590  12.677  18.367  0.00  0.00    +0.000 A 
ENDBRANCH  20  21
BRANCH  20  27
ATOM     27  N   UNL     1      -2.009  12.301  17.833  0.00  0.00    +0.000 NA
ATOM     28  H   UNL     1      -2.834  12.419  18.437  0.00  0.00    +0.000 HD
BRANCH  27  29
ATOM     29  C   UNL     1      -2.347  11.173  16.948  0.00  0.00    +0.000 C 
BRANCH  29  30
ATOM     30  C   UNL     1      -3.603  10.503  17.534  0.00  0.00    +0.000 C 
ATOM     31  O   UNL     1      -3.692   9.299  17.760  0.00  0.00    +0.000 OA
BRANCH  30  33
ATOM     32  C   UNL     1      -5.735  10.849  18.409  0.00  0.00    +0.000 C 
ATOM     33  O   UNL     1      -4.603  11.403  17.733  0.00  0.00    +0.000 OA
ENDBRANCH  30  33
ENDBRANCH  29  30
ENDBRANCH  27  29
ENDBRANCH  20  27
ENDBRANCH   1  20
TORSDOF 9
ENDMDL
MODEL 8
REMARK VINA RESULT:      -6.0      2.218      3.773
REMARK  Name = 
REMARK  12 active torsions:
REMARK  status: ('A' for Active; 'I' for Inactive)
REMARK    1  A    between atoms: C_1  and  O_2
REMARK    2  A    between atoms: O_2  and  C_3
REMARK    3  A    between atoms: C_3  and  C_5
REMARK    4  A    between atoms: C_5  and  N_6
REMARK    5  A    between atoms: N_6  and  C_7
REMARK    6  A    between atoms: C_7  and  C_8
REMARK    7  A    between atoms: C_7  and  C_14
REMARK    8  A    between atoms: C_16  and  C_17
REMARK    9  A    between atoms: C_20  and  N_21
REMARK   10  A    between atoms: N_21  and  S_22
REMARK   11  A    between atoms: S_22  and  C_25
REMARK   12  A    between atoms: C_28  and  C_29
REMARK                            x       y       z     vdW  Elec       q    Type
REMARK                         _______ _______ _______ _____ _____    ______ ____
ROOT
ATOM      1  C   UNL     1       1.025   9.549  19.192  0.00  0.00    +0.000 A 
ATOM      2  C   UNL     1       1.931   9.121  18.200  0.00  0.00    +0.000 A 
ATOM      3  C   UNL     1       2.594   7.897  18.306  0.00  0.00    +0.000 A 
ATOM      4  C   UNL     1       3.532   7.432  17.230  0.00  0.00    +0.000 C 
ATOM      5  C   UNL     1       2.362   7.098  19.434  0.00  0.00    +0.000 A 
ATOM      6  C   UNL     1       1.474   7.506  20.435  0.00  0.00    +0.000 A 
ATOM      7  C   UNL     1       0.791   8.716  20.321  0.00  0.00    +0.000 A 
ENDROOT
BRANCH   7   8
ATOM      8  N   UNL     1      -0.184   9.054  21.327  0.00  0.00    +0.000 N 
ATOM      9  H   UNL     1      -1.040   9.443  20.909  0.00  0.00    +0.000 HD
BRANCH   8  10
ATOM     10  S   UNL     1       0.275  10.051  22.626  0.00  0.00    +0.000 S 
ATOM     11  O   UNL     1      -0.017   9.403  23.887  0.00  0.00    +0.000 OA
ATOM     12  O   UNL     1       1.589  10.573  22.302  0.00  0.00    +0.000 OA
BRANCH  10  13
ATOM     13  C   UNL     1      -0.797  11.468  22.499  0.00  0.00    +0.000 A 
ATOM     14  C   UNL     1      -2.033  11.465  23.147  0.00  0.00    +0.000 A 
ATOM     15  C   UNL     1      -2.832  12.609  23.115  0.00  0.00    +0.000 A 
ATOM     16  C   UNL     1      -2.395  13.759  22.444  0.00  0.00    +0.000 A 
ATOM     17  C   UNL     1      -3.285  14.961  22.319  0.00  0.00    +0.000 C 
ATOM     18  C   UNL     1      -1.124  13.770  21.854  0.00  0.00    +0.000 A 
ATOM     19  C   UNL     1      -0.320  12.630  21.885  0.00  0.00    +0.000 A 
ENDBRANCH  10  13
ENDBRANCH   8  10
ENDBRANCH   7   8
BRANCH   1  20
ATOM     20  C   UNL     1       0.345  10.926  19.007  0.00  0.00    +0.000 C 
BRANCH  20  21
ATOM     21  C   UNL     1      -1.075  10.711  18.475  0.00  0.00    +0.000 A 
ATOM     22  C   UNL     1      -2.184  11.434  18.927  0.00  0.00    +0.000 A 
ATOM     23  C   UNL     1      -3.381  11.435  18.201  0.00  0.00    +0.000 A 
ATOM     24  C   UNL     1      -3.491  10.707  17.020  0.00  0.00    +0.000 A 
ATOM     25  C   UNL     1      -2.443   9.890  16.617  0.00  0.00    +0.000 A 
ATOM     26  C   UNL     1      -1.262   9.862  17.360  0.00  0.00    +0.000 A 
ENDBRANCH  20  21
BRANCH  20  27
ATOM     27  N   UNL     1       1.265  11.710  18.164  0.00  0.00    +0.000 NA
ATOM     28  H   UNL     1       2.216  11.487  18.489  0.00  0.00    +0.000 HD
BRANCH  27  29
ATOM     29  C   UNL     1       1.172  13.179  18.251  0.00  0.00    +0.000 C 
BRANCH  29  30
ATOM     30  C   UNL     1       2.499  13.678  18.849  0.00  0.00    +0.000 C 
ATOM     31  O   UNL     1       2.854  13.457  20.004  0.00  0.00    +0.000 OA
BRANCH  30  33
ATOM     32  C   UNL     1       4.535  14.713  18.384  0.00  0.00    +0.000 C 
ATOM     33  O   UNL     1       3.204  14.420  17.952  0.00  0.00    +0.000 OA
ENDBRANCH  30  33
ENDBRANCH  29  30
ENDBRANCH  27  29
ENDBRANCH  20  27
ENDBRANCH   1  20
TORSDOF 9
ENDMDL
MODEL 9
REMARK VINA RESULT:      -6.0      2.331      6.620
REMARK  Name = 
REMARK  12 active torsions:
REMARK  status: ('A' for Active; 'I' for Inactive)
REMARK    1  A    between atoms: C_1  and  O_2
REMARK    2  A    between atoms: O_2  and  C_3
REMARK    3  A    between atoms: C_3  and  C_5
REMARK    4  A    between atoms: C_5  and  N_6
REMARK    5  A    between atoms: N_6  and  C_7
REMARK    6  A    between atoms: C_7  and  C_8
REMARK    7  A    between atoms: C_7  and  C_14
REMARK    8  A    between atoms: C_16  and  C_17
REMARK    9  A    between atoms: C_20  and  N_21
REMARK   10  A    between atoms: N_21  and  S_22
REMARK   11  A    between atoms: S_22  and  C_25
REMARK   12  A    between atoms: C_28  and  C_29
REMARK                            x       y       z     vdW  Elec       q    Type
REMARK                         _______ _______ _______ _____ _____    ______ ____
ROOT
ATOM      1  C   UNL     1      -1.796  12.382  20.842  0.00  0.00    +0.000 A 
ATOM      2  C   UNL     1      -2.818  13.132  21.460  0.00  0.00    +0.000 A 
ATOM      3  C   UNL     1      -3.138  12.945  22.805  0.00  0.00    +0.000 A 
ATOM      4  C   UNL     1      -4.204  13.771  23.466  0.00  0.00    +0.000 C 
ATOM      5  C   UNL     1      -2.440  11.976  23.539  0.00  0.00    +0.000 A 
ATOM      6  C   UNL     1      -1.428  11.214  22.945  0.00  0.00    +0.000 A 
ATOM      7  C   UNL     1      -1.088  11.415  21.608  0.00  0.00    +0.000 A 
ENDROOT
BRANCH   7   8
ATOM      8  N   UNL     1       0.022  10.676  21.061  0.00  0.00    +0.000 N 
ATOM      9  H   UNL     1      -0.072  10.549  20.044  0.00  0.00    +0.000 HD
BRANCH   8  10
ATOM     10  S   UNL     1       0.442   9.179  21.749  0.00  0.00    +0.000 S 
ATOM     11  O   UNL     1       1.378   9.367  22.837  0.00  0.00    +0.000 OA
ATOM     12  O   UNL     1      -0.793   8.433  21.901  0.00  0.00    +0.000 OA
BRANCH  10  13
ATOM     13  C   UNL     1       1.308   8.320  20.451  0.00  0.00    +0.000 A 
ATOM     14  C   UNL     1       1.577   8.972  19.246  0.00  0.00    +0.000 A 
ATOM     15  C   UNL     1       2.330   8.324  18.264  0.00  0.00    +0.000 A 
ATOM     16  C   UNL     1       2.821   7.031  18.486  0.00  0.00    +0.000 A 
ATOM     17  C   UNL     1       3.546   6.287  17.403  0.00  0.00    +0.000 C 
ATOM     18  C   UNL     1       2.598   6.415  19.726  0.00  0.00    +0.000 A 
ATOM     19  C   UNL     1       1.849   7.058  20.712  0.00  0.00    +0.000 A 
ENDBRANCH  10  13
ENDBRANCH   8  10
ENDBRANCH   7   8
BRANCH   1  20
ATOM     20  C   UNL     1      -1.514  12.638  19.343  0.00  0.00    +0.000 C 
BRANCH  20  21
ATOM     21  C   UNL     1      -2.196  11.545  18.515  0.00  0.00    +0.000 A 
ATOM     22  C   UNL     1      -3.565  11.541  18.226  0.00  0.00    +0.000 A 
ATOM     23  C   UNL     1      -4.079  10.718  17.217  0.00  0.00    +0.000 A 
ATOM     24  C   UNL     1      -3.238   9.881  16.491  0.00  0.00    +0.000 A 
ATOM     25  C   UNL     1      -1.898   9.784  16.840  0.00  0.00    +0.000 A 
ATOM     26  C   UNL     1      -1.391  10.579  17.870  0.00  0.00    +0.000 A 
ENDBRANCH  20  21
BRANCH  20  27
ATOM     27  N   UNL     1      -0.048  12.748  19.230  0.00  0.00    +0.000 NA
ATOM     28  H   UNL     1       0.327  12.601  20.177  0.00  0.00    +0.000 HD
BRANCH  27  29
ATOM     29  C   UNL     1       0.500  14.049  18.805  0.00  0.00    +0.000 C 
BRANCH  29  30
ATOM     30  C   UNL     1       1.034  14.745  20.069  0.00  0.00    +0.000 C 
ATOM     31  O   UNL     1       0.316  15.164  20.974  0.00  0.00    +0.000 OA
BRANCH  30  33
ATOM     32  C   UNL     1       3.065  13.857  20.792  0.00  0.00    +0.000 C 
ATOM     33  O   UNL     1       2.389  14.867  20.038  0.00  0.00    +0.000 OA
ENDBRANCH  30  33
ENDBRANCH  29  30
ENDBRANCH  27  29
ENDBRANCH  20  27
ENDBRANCH   1  20
TORSDOF 9
ENDMDL
