MODEL 1
REMARK VINA RESULT:      -7.2      0.000      0.000
REMARK  Name = 
REMARK  5 active torsions:
REMARK  status: ('A' for Active; 'I' for Inactive)
REMARK    1  A    between atoms: C_1  and  C_2
REMARK    2  A    between atoms: C_7  and  C_8
REMARK    3  A    between atoms: C_8  and  C_9
REMARK    4  A    between atoms: C_9  and  O_10
REMARK    5  A    between atoms: C_17  and  O_18
REMARK                            x       y       z     vdW  Elec       q    Type
REMARK                         _______ _______ _______ _____ _____    ______ ____
ROOT
ATOM      1  C   UNL     1       2.362   5.428  19.699  0.00  0.00    +0.000 C 
ATOM      2  C   UNL     1       2.059   6.740  19.789  0.00  0.00    +0.000 C 
ATOM      3  O   UNL     1       1.413   7.332  20.878  0.00  0.00    +0.000 OA
ATOM      4  C   UNL     1       1.158   8.634  20.510  0.00  0.00    +0.000 A 
ATOM      5  C   UNL     1       0.490   9.569  21.276  0.00  0.00    +0.000 A 
ATOM      6  C   UNL     1       0.312  10.848  20.730  0.00  0.00    +0.000 A 
ATOM      7  C   UNL     1       0.781  11.157  19.438  0.00  0.00    +0.000 A 
ATOM      8  C   UNL     1       1.448  10.194  18.681  0.00  0.00    +0.000 A 
ATOM      9  C   UNL     1       1.637   8.949  19.242  0.00  0.00    +0.000 A 
ATOM     10  C   UNL     1       2.297   7.759  18.725  0.00  0.00    +0.000 C 
ATOM     11  O   UNL     1       2.926   7.630  17.696  0.00  0.00    +0.000 OA
ENDROOT
BRANCH   1  18
ATOM     12  C   UNL     1       4.789   4.767  16.713  0.00  0.00    +0.000 C 
ATOM     13  C   UNL     1       4.408   4.747  18.203  0.00  0.00    +0.000 C 
ATOM     14  C   UNL     1       4.756   3.389  18.776  0.00  0.00    +0.000 C 
ATOM     15  C   UNL     1       3.495   2.619  18.534  0.00  0.00    +0.000 C 
ATOM     16  O   UNL     1       3.378   1.406  18.625  0.00  0.00    +0.000 OA
ATOM     17  O   UNL     1       2.452   3.458  18.280  0.00  0.00    +0.000 OA
ATOM     18  C   UNL     1       2.892   4.818  18.396  0.00  0.00    +0.000 C 
ENDBRANCH   1  18
BRANCH   8  19
ATOM     19  O   UNL     1       1.889  10.459  17.424  0.00  0.00    +0.000 OA
ATOM     20  H   UNL     1       2.808  10.163  17.323  0.00  0.00    +0.000 HD
ENDBRANCH   8  19
BRANCH   1  21
ATOM     21  C   UNL     1       2.036   4.504  20.841  0.00  0.00    +0.000 C 
BRANCH  21  22
ATOM     22  O   UNL     1       0.782   3.890  20.603  0.00  0.00    +0.000 OA
ATOM     23  H   UNL     1       0.223   4.550  20.153  0.00  0.00    +0.000 HD
ENDBRANCH  21  22
ENDBRANCH   1  21
TORSDOF 4
ENDMDL
MODEL 2
REMARK VINA RESULT:      -7.2      3.051      5.914
REMARK  Name = 
REMARK  5 active torsions:
REMARK  status: ('A' for Active; 'I' for Inactive)
REMARK    1  A    between atoms: C_1  and  C_2
REMARK    2  A    between atoms: C_7  and  C_8
REMARK    3  A    between atoms: C_8  and  C_9
REMARK    4  A    between atoms: C_9  and  O_10
REMARK    5  A    between atoms: C_17  and  O_18
REMARK                            x       y       z     vdW  Elec       q    Type
REMARK                         _______ _______ _______ _____ _____    ______ ____
ROOT
ATOM      1  C   UNL     1       3.347   3.201  18.602  0.00  0.00    +0.000 C 
ATOM      2  C   UNL     1       4.118   3.732  17.630  0.00  0.00    +0.000 C 
ATOM      3  O   UNL     1       4.598   3.025  16.524  0.00  0.00    +0.000 OA
ATOM      4  C   UNL     1       5.458   3.878  15.869  0.00  0.00    +0.000 A 
ATOM      5  C   UNL     1       6.192   3.568  14.741  0.00  0.00    +0.000 A 
ATOM      6  C   UNL     1       7.028   4.564  14.217  0.00  0.00    +0.000 A 
ATOM      7  C   UNL     1       7.128   5.826  14.834  0.00  0.00    +0.000 A 
ATOM      8  C   UNL     1       6.380   6.115  15.976  0.00  0.00    +0.000 A 
ATOM      9  C   UNL     1       5.544   5.133  16.464  0.00  0.00    +0.000 A 
ATOM     10  C   UNL     1       4.640   5.129  17.604  0.00  0.00    +0.000 C 
ATOM     11  O   UNL     1       4.345   6.050  18.337  0.00  0.00    +0.000 OA
ENDROOT
BRANCH   1  18
ATOM     12  C   UNL     1       1.743   5.927  20.892  0.00  0.00    +0.000 C 
ATOM     13  C   UNL     1       1.677   4.711  19.952  0.00  0.00    +0.000 C 
ATOM     14  C   UNL     1       0.764   3.670  20.565  0.00  0.00    +0.000 C 
ATOM     15  C   UNL     1       1.722   2.867  21.391  0.00  0.00    +0.000 C 
ATOM     16  O   UNL     1       1.409   2.053  22.247  0.00  0.00    +0.000 OA
ATOM     17  O   UNL     1       3.009   3.095  21.005  0.00  0.00    +0.000 OA
ATOM     18  C   UNL     1       3.021   3.984  19.880  0.00  0.00    +0.000 C 
ENDBRANCH   1  18
BRANCH   8  19
ATOM     19  O   UNL     1       6.475   7.315  16.603  0.00  0.00    +0.000 OA
ATOM     20  H   UNL     1       7.408   7.547  16.740  0.00  0.00    +0.000 HD
ENDBRANCH   8  19
BRANCH   1  21
ATOM     21  C   UNL     1       2.916   1.762  18.514  0.00  0.00    +0.000 C 
BRANCH  21  22
ATOM     22  O   UNL     1       4.062   0.928  18.546  0.00  0.00    +0.000 OA
ATOM     23  H   UNL     1       3.906   0.208  17.907  0.00  0.00    +0.000 HD
ENDBRANCH  21  22
ENDBRANCH   1  21
TORSDOF 4
ENDMDL
MODEL 3
REMARK VINA RESULT:      -6.8      3.585      5.214
REMARK  Name = 
REMARK  5 active torsions:
REMARK  status: ('A' for Active; 'I' for Inactive)
REMARK    1  A    between atoms: C_1  and  C_2
REMARK    2  A    between atoms: C_7  and  C_8
REMARK    3  A    between atoms: C_8  and  C_9
REMARK    4  A    between atoms: C_9  and  O_10
REMARK    5  A    between atoms: C_17  and  O_18
REMARK                            x       y       z     vdW  Elec       q    Type
REMARK                         _______ _______ _______ _____ _____    ______ ____
ROOT
ATOM      1  C   UNL     1       4.062   3.253  19.505  0.00  0.00    +0.000 C 
ATOM      2  C   UNL     1       4.952   4.150  19.031  0.00  0.00    +0.000 C 
ATOM      3  O   UNL     1       6.218   4.377  19.580  0.00  0.00    +0.000 OA
ATOM      4  C   UNL     1       6.737   5.460  18.908  0.00  0.00    +0.000 A 
ATOM      5  C   UNL     1       7.958   6.054  19.163  0.00  0.00    +0.000 A 
ATOM      6  C   UNL     1       8.317   7.161  18.381  0.00  0.00    +0.000 A 
ATOM      7  C   UNL     1       7.453   7.658  17.386  0.00  0.00    +0.000 A 
ATOM      8  C   UNL     1       6.222   7.044  17.150  0.00  0.00    +0.000 A 
ATOM      9  C   UNL     1       5.895   5.942  17.911  0.00  0.00    +0.000 A 
ATOM     10  C   UNL     1       4.716   5.087  17.895  0.00  0.00    +0.000 C 
ATOM     11  O   UNL     1       3.782   5.102  17.121  0.00  0.00    +0.000 OA
ENDROOT
BRANCH   1  18
ATOM     12  C   UNL     1       0.564   1.761  18.621  0.00  0.00    +0.000 C 
ATOM     13  C   UNL     1       1.666   2.187  19.607  0.00  0.00    +0.000 C 
ATOM     14  C   UNL     1       1.034   2.982  20.730  0.00  0.00    +0.000 C 
ATOM     15  C   UNL     1       1.097   4.379  20.194  0.00  0.00    +0.000 C 
ATOM     16  O   UNL     1       0.500   5.341  20.654  0.00  0.00    +0.000 OA
ATOM     17  O   UNL     1       1.985   4.466  19.164  0.00  0.00    +0.000 OA
ATOM     18  C   UNL     1       2.625   3.197  18.974  0.00  0.00    +0.000 C 
ENDBRANCH   1  18
BRANCH   8  19
ATOM     19  O   UNL     1       5.361   7.518  16.213  0.00  0.00    +0.000 OA
ATOM     20  H   UNL     1       5.316   6.905  15.461  0.00  0.00    +0.000 HD
ENDBRANCH   8  19
BRANCH   1  21
ATOM     21  C   UNL     1       4.424   2.389  20.682  0.00  0.00    +0.000 C 
BRANCH  21  22
ATOM     22  O   UNL     1       5.356   1.404  20.271  0.00  0.00    +0.000 OA
ATOM     23  H   UNL     1       5.684   0.968  21.079  0.00  0.00    +0.000 HD
ENDBRANCH  21  22
ENDBRANCH   1  21
TORSDOF 4
ENDMDL
MODEL 4
REMARK VINA RESULT:      -6.8      1.357      3.052
REMARK  Name = 
REMARK  5 active torsions:
REMARK  status: ('A' for Active; 'I' for Inactive)
REMARK    1  A    between atoms: C_1  and  C_2
REMARK    2  A    between atoms: C_7  and  C_8
REMARK    3  A    between atoms: C_8  and  C_9
REMARK    4  A    between atoms: C_9  and  O_10
REMARK    5  A    between atoms: C_17  and  O_18
REMARK                            x       y       z     vdW  Elec       q    Type
REMARK                         _______ _______ _______ _____ _____    ______ ____
ROOT
ATOM      1  C   UNL     1       3.068   5.115  18.582  0.00  0.00    +0.000 C 
ATOM      2  C   UNL     1       2.520   6.333  18.771  0.00  0.00    +0.000 C 
ATOM      3  O   UNL     1       2.580   7.381  17.848  0.00  0.00    +0.000 OA
ATOM      4  C   UNL     1       2.042   8.479  18.481  0.00  0.00    +0.000 A 
ATOM      5  C   UNL     1       1.946   9.749  17.945  0.00  0.00    +0.000 A 
ATOM      6  C   UNL     1       1.377  10.749  18.745  0.00  0.00    +0.000 A 
ATOM      7  C   UNL     1       0.941  10.471  20.055  0.00  0.00    +0.000 A 
ATOM      8  C   UNL     1       1.054   9.182  20.577  0.00  0.00    +0.000 A 
ATOM      9  C   UNL     1       1.592   8.203  19.769  0.00  0.00    +0.000 A 
ATOM     10  C   UNL     1       1.823   6.787  20.010  0.00  0.00    +0.000 C 
ATOM     11  O   UNL     1       1.495   6.120  20.968  0.00  0.00    +0.000 OA
ENDROOT
BRANCH   1  18
ATOM     12  C   UNL     1       1.839   2.851  21.516  0.00  0.00    +0.000 C 
ATOM     13  C   UNL     1       1.857   3.304  20.046  0.00  0.00    +0.000 C 
ATOM     14  C   UNL     1       1.970   2.081  19.161  0.00  0.00    +0.000 C 
ATOM     15  C   UNL     1       3.454   1.925  19.038  0.00  0.00    +0.000 C 
ATOM     16  O   UNL     1       4.028   0.938  18.601  0.00  0.00    +0.000 OA
ATOM     17  O   UNL     1       4.097   3.071  19.399  0.00  0.00    +0.000 OA
ATOM     18  C   UNL     1       3.131   4.082  19.715  0.00  0.00    +0.000 C 
ENDBRANCH   1  18
BRANCH   8  19
ATOM     19  O   UNL     1       0.662   8.892  21.845  0.00  0.00    +0.000 OA
ATOM     20  H   UNL     1      -0.244   8.545  21.844  0.00  0.00    +0.000 HD
ENDBRANCH   8  19
BRANCH   1  21
ATOM     21  C   UNL     1       3.771   4.802  17.289  0.00  0.00    +0.000 C 
BRANCH  21  22
ATOM     22  O   UNL     1       5.170   4.926  17.475  0.00  0.00    +0.000 OA
ATOM     23  H   UNL     1       5.559   5.098  16.597  0.00  0.00    +0.000 HD
ENDBRANCH  21  22
ENDBRANCH   1  21
TORSDOF 4
ENDMDL
MODEL 5
REMARK VINA RESULT:      -6.5      3.105      7.634
REMARK  Name = 
REMARK  5 active torsions:
REMARK  status: ('A' for Active; 'I' for Inactive)
REMARK    1  A    between atoms: C_1  and  C_2
REMARK    2  A    between atoms: C_7  and  C_8
REMARK    3  A    between atoms: C_8  and  C_9
REMARK    4  A    between atoms: C_9  and  O_10
REMARK    5  A    between atoms: C_17  and  O_18
REMARK                            x       y       z     vdW  Elec       q    Type
REMARK                         _______ _______ _______ _____ _____    ______ ____
ROOT
ATOM      1  C   UNL     1      -0.504  10.582  21.881  0.00  0.00    +0.000 C 
ATOM      2  C   UNL     1       0.171   9.764  21.047  0.00  0.00    +0.000 C 
ATOM      3  O   UNL     1       0.669   8.507  21.401  0.00  0.00    +0.000 OA
ATOM      4  C   UNL     1       1.415   8.075  20.328  0.00  0.00    +0.000 A 
ATOM      5  C   UNL     1       2.127   6.893  20.267  0.00  0.00    +0.000 A 
ATOM      6  C   UNL     1       2.842   6.626  19.091  0.00  0.00    +0.000 A 
ATOM      7  C   UNL     1       2.848   7.541  18.021  0.00  0.00    +0.000 A 
ATOM      8  C   UNL     1       2.125   8.731  18.107  0.00  0.00    +0.000 A 
ATOM      9  C   UNL     1       1.407   8.968  19.260  0.00  0.00    +0.000 A 
ATOM     10  C   UNL     1       0.556  10.086  19.643  0.00  0.00    +0.000 C 
ATOM     11  O   UNL     1       0.207  11.034  18.971  0.00  0.00    +0.000 OA
ENDROOT
BRANCH   1  18
ATOM     12  C   UNL     1      -2.593  13.575  20.494  0.00  0.00    +0.000 C 
ATOM     13  C   UNL     1      -2.321  12.437  21.492  0.00  0.00    +0.000 C 
ATOM     14  C   UNL     1      -2.513  12.965  22.898  0.00  0.00    +0.000 C 
ATOM     15  C   UNL     1      -1.140  13.465  23.230  0.00  0.00    +0.000 C 
ATOM     16  O   UNL     1      -0.859  14.183  24.178  0.00  0.00    +0.000 OA
ATOM     17  O   UNL     1      -0.212  12.942  22.380  0.00  0.00    +0.000 OA
ATOM     18  C   UNL     1      -0.848  12.023  21.483  0.00  0.00    +0.000 C 
ENDBRANCH   1  18
BRANCH   8  19
ATOM     19  O   UNL     1       2.133   9.641  17.099  0.00  0.00    +0.000 OA
ATOM     20  H   UNL     1       2.961  10.147  17.112  0.00  0.00    +0.000 HD
ENDBRANCH   8  19
BRANCH   1  21
ATOM     21  C   UNL     1      -0.800  10.140  23.289  0.00  0.00    +0.000 C 
BRANCH  21  22
ATOM     22  O   UNL     1       0.402   9.718  23.909  0.00  0.00    +0.000 OA
ATOM     23  H   UNL     1       1.025  10.466  23.861  0.00  0.00    +0.000 HD
ENDBRANCH  21  22
ENDBRANCH   1  21
TORSDOF 4
ENDMDL
MODEL 6
REMARK VINA RESULT:      -6.4      2.049      3.578
REMARK  Name = 
REMARK  5 active torsions:
REMARK  status: ('A' for Active; 'I' for Inactive)
REMARK    1  A    between atoms: C_1  and  C_2
REMARK    2  A    between atoms: C_7  and  C_8
REMARK    3  A    between atoms: C_8  and  C_9
REMARK    4  A    between atoms: C_9  and  O_10
REMARK    5  A    between atoms: C_17  and  O_18
REMARK                            x       y       z     vdW  Elec       q    Type
REMARK                         _______ _______ _______ _____ _____    ______ ____
ROOT
ATOM      1  C   UNL     1       4.217   6.523  17.383  0.00  0.00    +0.000 C 
ATOM      2  C   UNL     1       3.269   7.338  17.892  0.00  0.00    +0.000 C 
ATOM      3  O   UNL     1       2.862   8.541  17.307  0.00  0.00    +0.000 OA
ATOM      4  C   UNL     1       2.003   9.132  18.206  0.00  0.00    +0.000 A 
ATOM      5  C   UNL     1       1.398  10.363  18.050  0.00  0.00    +0.000 A 
ATOM      6  C   UNL     1       0.560  10.810  19.081  0.00  0.00    +0.000 A 
ATOM      7  C   UNL     1       0.360  10.037  20.242  0.00  0.00    +0.000 A 
ATOM      8  C   UNL     1       0.987   8.798  20.379  0.00  0.00    +0.000 A 
ATOM      9  C   UNL     1       1.788   8.362  19.346  0.00  0.00    +0.000 A 
ATOM     10  C   UNL     1       2.550   7.132  19.182  0.00  0.00    +0.000 C 
ATOM     11  O   UNL     1       2.569   6.154  19.899  0.00  0.00    +0.000 OA
ENDROOT
BRANCH   1  18
ATOM     12  C   UNL     1       4.413   2.882  18.781  0.00  0.00    +0.000 C 
ATOM     13  C   UNL     1       4.442   3.921  17.647  0.00  0.00    +0.000 C 
ATOM     14  C   UNL     1       5.631   3.634  16.754  0.00  0.00    +0.000 C 
ATOM     15  C   UNL     1       6.709   4.445  17.404  0.00  0.00    +0.000 C 
ATOM     16  O   UNL     1       7.905   4.351  17.168  0.00  0.00    +0.000 OA
ATOM     17  O   UNL     1       6.179   5.377  18.244  0.00  0.00    +0.000 OA
ATOM     18  C   UNL     1       4.748   5.323  18.178  0.00  0.00    +0.000 C 
ENDBRANCH   1  18
BRANCH   8  19
ATOM     19  O   UNL     1       0.830   8.044  21.498  0.00  0.00    +0.000 OA
ATOM     20  H   UNL     1       0.932   8.595  22.290  0.00  0.00    +0.000 HD
ENDBRANCH   8  19
BRANCH   1  21
ATOM     21  C   UNL     1       4.884   6.871  16.081  0.00  0.00    +0.000 C 
BRANCH  21  22
ATOM     22  O   UNL     1       6.179   7.386  16.341  0.00  0.00    +0.000 OA
ATOM     23  H   UNL     1       6.455   7.035  17.208  0.00  0.00    +0.000 HD
ENDBRANCH  21  22
ENDBRANCH   1  21
TORSDOF 4
ENDMDL
MODEL 7
REMARK VINA RESULT:      -6.4      1.950      4.010
REMARK  Name = 
REMARK  5 active torsions:
REMARK  status: ('A' for Active; 'I' for Inactive)
REMARK    1  A    between atoms: C_1  and  C_2
REMARK    2  A    between atoms: C_7  and  C_8
REMARK    3  A    between atoms: C_8  and  C_9
REMARK    4  A    between atoms: C_9  and  O_10
REMARK    5  A    between atoms: C_17  and  O_18
REMARK                            x       y       z     vdW  Elec       q    Type
REMARK                         _______ _______ _______ _____ _____    ______ ____
ROOT
ATOM      1  C   UNL     1       1.798   8.269  18.879  0.00  0.00    +0.000 C 
ATOM      2  C   UNL     1       1.024   9.009  19.701  0.00  0.00    +0.000 C 
ATOM      3  O   UNL     1       0.391  10.200  19.335  0.00  0.00    +0.000 OA
ATOM      4  C   UNL     1      -0.161  10.709  20.488  0.00  0.00    +0.000 A 
ATOM      5  C   UNL     1      -0.845  11.905  20.592  0.00  0.00    +0.000 A 
ATOM      6  C   UNL     1      -1.329  12.268  21.856  0.00  0.00    +0.000 A 
ATOM      7  C   UNL     1      -1.105  11.451  22.982  0.00  0.00    +0.000 A 
ATOM      8  C   UNL     1      -0.407  10.251  22.853  0.00  0.00    +0.000 A 
ATOM      9  C   UNL     1       0.040   9.895  21.599  0.00  0.00    +0.000 A 
ATOM     10  C   UNL     1       0.770   8.721  21.142  0.00  0.00    +0.000 C 
ATOM     11  O   UNL     1       1.067   7.726  21.769  0.00  0.00    +0.000 OA
ENDROOT
BRANCH   1  18
ATOM     12  C   UNL     1       2.547   4.822  20.554  0.00  0.00    +0.000 C 
ATOM     13  C   UNL     1       1.936   5.713  19.459  0.00  0.00    +0.000 C 
ATOM     14  C   UNL     1       2.269   5.119  18.106  0.00  0.00    +0.000 C 
ATOM     15  C   UNL     1       3.575   5.781  17.791  0.00  0.00    +0.000 C 
ATOM     16  O   UNL     1       4.342   5.444  16.902  0.00  0.00    +0.000 OA
ATOM     17  O   UNL     1       3.767   6.879  18.575  0.00  0.00    +0.000 OA
ATOM     18  C   UNL     1       2.615   7.082  19.404  0.00  0.00    +0.000 C 
ENDBRANCH   1  18
BRANCH   8  19
ATOM     19  O   UNL     1      -0.158   9.456  23.926  0.00  0.00    +0.000 OA
ATOM     20  H   UNL     1       0.023  10.000  24.710  0.00  0.00    +0.000 HD
ENDBRANCH   8  19
BRANCH   1  21
ATOM     21  C   UNL     1       1.993   8.695  17.449  0.00  0.00    +0.000 C 
BRANCH  21  22
ATOM     22  O   UNL     1       2.216  10.094  17.404  0.00  0.00    +0.000 OA
ATOM     23  H   UNL     1       1.605  10.457  16.736  0.00  0.00    +0.000 HD
ENDBRANCH  21  22
ENDBRANCH   1  21
TORSDOF 4
ENDMDL
MODEL 8
REMARK VINA RESULT:      -6.4      1.566      6.777
REMARK  Name = 
REMARK  5 active torsions:
REMARK  status: ('A' for Active; 'I' for Inactive)
REMARK    1  A    between atoms: C_1  and  C_2
REMARK    2  A    between atoms: C_7  and  C_8
REMARK    3  A    between atoms: C_8  and  C_9
REMARK    4  A    between atoms: C_9  and  O_10
REMARK    5  A    between atoms: C_17  and  O_18
REMARK                            x       y       z     vdW  Elec       q    Type
REMARK                         _______ _______ _______ _____ _____    ______ ____
ROOT
ATOM      1  C   UNL     1       1.520   8.916  19.266  0.00  0.00    +0.000 C 
ATOM      2  C   UNL     1       2.216   7.777  19.065  0.00  0.00    +0.000 C 
ATOM      3  O   UNL     1       3.023   7.528  17.951  0.00  0.00    +0.000 OA
ATOM      4  C   UNL     1       3.423   6.215  18.055  0.00  0.00    +0.000 A 
ATOM      5  C   UNL     1       4.201   5.537  17.137  0.00  0.00    +0.000 A 
ATOM      6  C   UNL     1       4.500   4.194  17.405  0.00  0.00    +0.000 A 
ATOM      7  C   UNL     1       4.006   3.558  18.561  0.00  0.00    +0.000 A 
ATOM      8  C   UNL     1       3.218   4.262  19.471  0.00  0.00    +0.000 A 
ATOM      9  C   UNL     1       2.953   5.589  19.205  0.00  0.00    +0.000 A 
ATOM     10  C   UNL     1       2.193   6.579  19.953  0.00  0.00    +0.000 C 
ATOM     11  O   UNL     1       1.692   6.474  21.053  0.00  0.00    +0.000 OA
ENDROOT
BRANCH   1  18
ATOM     12  C   UNL     1       0.175   9.337  22.908  0.00  0.00    +0.000 C 
ATOM     13  C   UNL     1       0.925   9.824  21.656  0.00  0.00    +0.000 C 
ATOM     14  C   UNL     1       0.471  11.233  21.334  0.00  0.00    +0.000 C 
ATOM     15  C   UNL     1      -0.696  10.982  20.429  0.00  0.00    +0.000 C 
ATOM     16  O   UNL     1      -1.524  11.817  20.095  0.00  0.00    +0.000 OA
ATOM     17  O   UNL     1      -0.674   9.708  19.946  0.00  0.00    +0.000 OA
ATOM     18  C   UNL     1       0.506   9.040  20.411  0.00  0.00    +0.000 C 
ENDBRANCH   1  18
BRANCH   8  19
ATOM     19  O   UNL     1       2.709   3.665  20.581  0.00  0.00    +0.000 OA
ATOM     20  H   UNL     1       3.066   4.086  21.379  0.00  0.00    +0.000 HD
ENDBRANCH   8  19
BRANCH   1  21
ATOM     21  C   UNL     1       1.614  10.038  18.269  0.00  0.00    +0.000 C 
BRANCH  21  22
ATOM     22  O   UNL     1       0.460  10.032  17.447  0.00  0.00    +0.000 OA
ATOM     23  H   UNL     1      -0.304  10.199  18.029  0.00  0.00    +0.000 HD
ENDBRANCH  21  22
ENDBRANCH   1  21
TORSDOF 4
ENDMDL
MODEL 9
REMARK VINA RESULT:      -6.3      2.189      6.867
REMARK  Name = 
REMARK  5 active torsions:
REMARK  status: ('A' for Active; 'I' for Inactive)
REMARK    1  A    between atoms: C_1  and  C_2
REMARK    2  A    between atoms: C_7  and  C_8
REMARK    3  A    between atoms: C_8  and  C_9
REMARK    4  A    between atoms: C_9  and  O_10
REMARK    5  A    between atoms: C_17  and  O_18
REMARK                            x       y       z     vdW  Elec       q    Type
REMARK                         _______ _______ _______ _____ _____    ______ ____
ROOT
ATOM      1  C   UNL     1       0.477   9.703  21.082  0.00  0.00    +0.000 C 
ATOM      2  C   UNL     1       1.057   8.607  20.550  0.00  0.00    +0.000 C 
ATOM      3  O   UNL     1       1.095   7.353  21.166  0.00  0.00    +0.000 OA
ATOM      4  C   UNL     1       1.900   6.563  20.378  0.00  0.00    +0.000 A 
ATOM      5  C   UNL     1       2.248   5.253  20.641  0.00  0.00    +0.000 A 
ATOM      6  C   UNL     1       3.091   4.608  19.726  0.00  0.00    +0.000 A 
ATOM      7  C   UNL     1       3.581   5.282  18.591  0.00  0.00    +0.000 A 
ATOM      8  C   UNL     1       3.221   6.608  18.348  0.00  0.00    +0.000 A 
ATOM      9  C   UNL     1       2.370   7.220  19.244  0.00  0.00    +0.000 A 
ATOM     10  C   UNL     1       1.806   8.562  19.261  0.00  0.00    +0.000 C 
ATOM     11  O   UNL     1       1.888   9.427  18.415  0.00  0.00    +0.000 OA
ENDROOT
BRANCH   1  18
ATOM     12  C   UNL     1      -0.170  12.691  18.652  0.00  0.00    +0.000 C 
ATOM     13  C   UNL     1      -0.578  11.719  19.772  0.00  0.00    +0.000 C 
ATOM     14  C   UNL     1      -1.205  12.511  20.900  0.00  0.00    +0.000 C 
ATOM     15  C   UNL     1      -0.012  12.843  21.744  0.00  0.00    +0.000 C 
ATOM     16  O   UNL     1       0.008  13.665  22.648  0.00  0.00    +0.000 OA
ATOM     17  O   UNL     1       1.044  12.040  21.433  0.00  0.00    +0.000 OA
ATOM     18  C   UNL     1       0.644  11.086  20.440  0.00  0.00    +0.000 C 
ENDBRANCH   1  18
BRANCH   8  19
ATOM     19  O   UNL     1       3.697   7.288  17.273  0.00  0.00    +0.000 OA
ATOM     20  H   UNL     1       4.505   6.864  16.941  0.00  0.00    +0.000 HD
ENDBRANCH   8  19
BRANCH   1  21
ATOM     21  C   UNL     1      -0.223   9.612  22.410  0.00  0.00    +0.000 C 
BRANCH  21  22
ATOM     22  O   UNL     1       0.737   9.681  23.451  0.00  0.00    +0.000 OA
ATOM     23  H   UNL     1       0.263   9.513  24.286  0.00  0.00    +0.000 HD
ENDBRANCH  21  22
ENDBRANCH   1  21
TORSDOF 4
ENDMDL
