MODEL 1
REMARK VINA RESULT:      -8.1      0.000      0.000
REMARK  Name = 
REMARK  11 active torsions:
REMARK  status: ('A' for Active; 'I' for Inactive)
REMARK    1  A    between atoms: C_1  and  C_2
REMARK    2  A    between atoms: C_2  and  C_3
REMARK    3  A    between atoms: C_5  and  C_6
REMARK    4  A    between atoms: C_9  and  C_10
REMARK    5  A    between atoms: C_10  and  C_11
REMARK    6  A    between atoms: C_10  and  C_12
REMARK    7  A    between atoms: C_10  and  C_13
REMARK    8  A    between atoms: C_16  and  C_17
REMARK    9  A    between atoms: N_22  and  C_23
REMARK   10  A    between atoms: C_27  and  O_28
REMARK   11  A    between atoms: O_28  and  C_29
REMARK                            x       y       z     vdW  Elec       q    Type
REMARK                         _______ _______ _______ _____ _____    ______ ____
ROOT
ATOM      1  C   UNL     1      -2.395  10.891  17.523  0.00  0.00    +0.000 A 
ATOM      2  N   UNL     1      -1.745  12.029  17.529  0.00  0.00    +0.000 NA
ATOM      3  C   UNL     1      -0.754  11.850  18.477  0.00  0.00    +0.000 A 
ATOM      4  C   UNL     1      -0.865  10.587  19.044  0.00  0.00    +0.000 A 
ATOM      5  O   UNL     1      -1.901   9.958  18.383  0.00  0.00    +0.000 OA
ENDROOT
BRANCH   4   6
ATOM      6  C   UNL     1      -0.094   9.891  20.057  0.00  0.00    +0.000 C 
ATOM      7  O   UNL     1      -0.393   9.969  21.251  0.00  0.00    +0.000 OA
ATOM      8  N   UNL     1       0.958   9.040  19.679  0.00  0.00    +0.000 N 
ATOM      9  C   UNL     1       1.638   8.249  20.726  0.00  0.00    +0.000 C 
ATOM     10  C   UNL     1       1.953   6.813  20.243  0.00  0.00    +0.000 C 
ATOM     11  N   UNL     1       2.748   6.908  19.007  0.00  0.00    +0.000 N 
ATOM     12  C   UNL     1       2.034   7.613  17.926  0.00  0.00    +0.000 C 
ATOM     13  C   UNL     1       1.650   9.028  18.381  0.00  0.00    +0.000 C 
BRANCH  11  14
ATOM     14  C   UNL     1       3.506   5.834  18.553  0.00  0.00    +0.000 A 
ATOM     15  C   UNL     1       3.050   4.854  17.669  0.00  0.00    +0.000 A 
ATOM     16  C   UNL     1       3.917   3.849  17.217  0.00  0.00    +0.000 A 
ATOM     17  C   UNL     1       5.238   3.799  17.669  0.00  0.00    +0.000 A 
ATOM     18  C   UNL     1       5.690   4.728  18.601  0.00  0.00    +0.000 A 
ATOM     19  C   UNL     1       4.829   5.739  19.018  0.00  0.00    +0.000 A 
BRANCH  18  20
ATOM     20  O   UNL     1       6.987   4.593  19.019  0.00  0.00    +0.000 OA
ATOM     21  C   UNL     1       7.709   5.818  19.134  0.00  0.00    +0.000 C 
ENDBRANCH  18  20
ENDBRANCH  11  14
ENDBRANCH   4   6
BRANCH   3  22
ATOM     22  C   UNL     1       0.191  12.919  18.755  0.00  0.00    +0.000 A 
ATOM     23  C   UNL     1      -0.180  14.216  19.107  0.00  0.00    +0.000 A 
ATOM     24  C   UNL     1       0.792  15.212  19.300  0.00  0.00    +0.000 A 
ATOM     25  C   UNL     1       2.165  14.950  19.142  0.00  0.00    +0.000 A 
ATOM     26  C   UNL     1       2.522  13.645  18.773  0.00  0.00    +0.000 A 
ATOM     27  C   UNL     1       1.556  12.651  18.590  0.00  0.00    +0.000 A 
BRANCH  25  28
ATOM     28  C   UNL     1       3.223  16.058  19.281  0.00  0.00    +0.000 C 
ATOM     29  C   UNL     1       4.499  15.572  20.006  0.00  0.00    +0.000 C 
ATOM     30  C   UNL     1       3.685  16.614  17.914  0.00  0.00    +0.000 C 
ATOM     31  C   UNL     1       2.606  17.210  20.099  0.00  0.00    +0.000 C 
ENDBRANCH  25  28
ENDBRANCH   3  22
BRANCH   1  33
ATOM     32  C   UNL     1      -3.280  10.656  15.207  0.00  0.00    +0.000 C 
ATOM     33  C   UNL     1      -3.564  10.510  16.694  0.00  0.00    +0.000 C 
ENDBRANCH   1  33
TORSDOF 6
ENDMDL
MODEL 2
REMARK VINA RESULT:      -8.0      1.237      1.585
REMARK  Name = 
REMARK  11 active torsions:
REMARK  status: ('A' for Active; 'I' for Inactive)
REMARK    1  A    between atoms: C_1  and  C_2
REMARK    2  A    between atoms: C_2  and  C_3
REMARK    3  A    between atoms: C_5  and  C_6
REMARK    4  A    between atoms: C_9  and  C_10
REMARK    5  A    between atoms: C_10  and  C_11
REMARK    6  A    between atoms: C_10  and  C_12
REMARK    7  A    between atoms: C_10  and  C_13
REMARK    8  A    between atoms: C_16  and  C_17
REMARK    9  A    between atoms: N_22  and  C_23
REMARK   10  A    between atoms: C_27  and  O_28
REMARK   11  A    between atoms: O_28  and  C_29
REMARK                            x       y       z     vdW  Elec       q    Type
REMARK                         _______ _______ _______ _____ _____    ______ ____
ROOT
ATOM      1  C   UNL     1      -2.253  11.073  17.522  0.00  0.00    +0.000 A 
ATOM      2  N   UNL     1      -1.612  12.206  17.668  0.00  0.00    +0.000 NA
ATOM      3  C   UNL     1      -0.627  11.923  18.598  0.00  0.00    +0.000 A 
ATOM      4  C   UNL     1      -0.735  10.602  19.013  0.00  0.00    +0.000 A 
ATOM      5  O   UNL     1      -1.760  10.049  18.273  0.00  0.00    +0.000 OA
ENDROOT
BRANCH   4   6
ATOM      6  C   UNL     1       0.032   9.797  19.946  0.00  0.00    +0.000 C 
ATOM      7  O   UNL     1      -0.299   9.704  21.130  0.00  0.00    +0.000 OA
ATOM      8  N   UNL     1       1.119   9.034  19.488  0.00  0.00    +0.000 N 
ATOM      9  C   UNL     1       1.797   8.128  20.438  0.00  0.00    +0.000 C 
ATOM     10  C   UNL     1       2.170   6.780  19.776  0.00  0.00    +0.000 C 
ATOM     11  N   UNL     1       2.991   7.063  18.587  0.00  0.00    +0.000 N 
ATOM     12  C   UNL     1       2.283   7.888  17.590  0.00  0.00    +0.000 C 
ATOM     13  C   UNL     1       1.843   9.217  18.220  0.00  0.00    +0.000 C 
BRANCH  11  14
ATOM     14  C   UNL     1       3.795   6.081  18.016  0.00  0.00    +0.000 A 
ATOM     15  C   UNL     1       3.886   4.764  18.471  0.00  0.00    +0.000 A 
ATOM     16  C   UNL     1       4.673   3.831  17.781  0.00  0.00    +0.000 A 
ATOM     17  C   UNL     1       5.396   4.214  16.649  0.00  0.00    +0.000 A 
ATOM     18  C   UNL     1       5.368   5.537  16.220  0.00  0.00    +0.000 A 
ATOM     19  C   UNL     1       4.559   6.447  16.895  0.00  0.00    +0.000 A 
BRANCH  18  20
ATOM     20  O   UNL     1       6.128   5.841  15.124  0.00  0.00    +0.000 OA
ATOM     21  C   UNL     1       7.026   4.811  14.714  0.00  0.00    +0.000 C 
ENDBRANCH  18  20
ENDBRANCH  11  14
ENDBRANCH   4   6
BRANCH   3  22
ATOM     22  C   UNL     1       0.308  12.958  19.008  0.00  0.00    +0.000 A 
ATOM     23  C   UNL     1       0.012  13.951  19.942  0.00  0.00    +0.000 A 
ATOM     24  C   UNL     1       0.948  14.955  20.241  0.00  0.00    +0.000 A 
ATOM     25  C   UNL     1       2.207  15.006  19.615  0.00  0.00    +0.000 A 
ATOM     26  C   UNL     1       2.484  14.010  18.668  0.00  0.00    +0.000 A 
ATOM     27  C   UNL     1       1.557  13.005  18.377  0.00  0.00    +0.000 A 
BRANCH  25  28
ATOM     28  C   UNL     1       3.202  16.147  19.889  0.00  0.00    +0.000 C 
ATOM     29  C   UNL     1       2.502  17.506  20.112  0.00  0.00    +0.000 C 
ATOM     30  C   UNL     1       4.067  15.892  21.146  0.00  0.00    +0.000 C 
ATOM     31  C   UNL     1       4.134  16.272  18.667  0.00  0.00    +0.000 C 
ENDBRANCH  25  28
ENDBRANCH   3  22
BRANCH   1  33
ATOM     32  C   UNL     1      -3.008   9.985  15.414  0.00  0.00    +0.000 C 
ATOM     33  C   UNL     1      -3.412  10.783  16.643  0.00  0.00    +0.000 C 
ENDBRANCH   1  33
TORSDOF 6
ENDMDL
MODEL 3
REMARK VINA RESULT:      -7.9      1.121      1.714
REMARK  Name = 
REMARK  11 active torsions:
REMARK  status: ('A' for Active; 'I' for Inactive)
REMARK    1  A    between atoms: C_1  and  C_2
REMARK    2  A    between atoms: C_2  and  C_3
REMARK    3  A    between atoms: C_5  and  C_6
REMARK    4  A    between atoms: C_9  and  C_10
REMARK    5  A    between atoms: C_10  and  C_11
REMARK    6  A    between atoms: C_10  and  C_12
REMARK    7  A    between atoms: C_10  and  C_13
REMARK    8  A    between atoms: C_16  and  C_17
REMARK    9  A    between atoms: N_22  and  C_23
REMARK   10  A    between atoms: C_27  and  O_28
REMARK   11  A    between atoms: O_28  and  C_29
REMARK                            x       y       z     vdW  Elec       q    Type
REMARK                         _______ _______ _______ _____ _____    ______ ____
ROOT
ATOM      1  C   UNL     1      -2.384  11.129  17.750  0.00  0.00    +0.000 A 
ATOM      2  N   UNL     1      -1.712  12.251  17.836  0.00  0.00    +0.000 NA
ATOM      3  C   UNL     1      -0.669  11.957  18.696  0.00  0.00    +0.000 A 
ATOM      4  C   UNL     1      -0.772  10.643  19.132  0.00  0.00    +0.000 A 
ATOM      5  O   UNL     1      -1.858  10.103  18.475  0.00  0.00    +0.000 OA
ENDROOT
BRANCH   4   6
ATOM      6  C   UNL     1       0.045   9.832  20.017  0.00  0.00    +0.000 C 
ATOM      7  O   UNL     1      -0.224   9.727  21.215  0.00  0.00    +0.000 OA
ATOM      8  N   UNL     1       1.109   9.077  19.495  0.00  0.00    +0.000 N 
ATOM      9  C   UNL     1       1.839   8.165  20.401  0.00  0.00    +0.000 C 
ATOM     10  C   UNL     1       2.180   6.824  19.707  0.00  0.00    +0.000 C 
ATOM     11  N   UNL     1       2.939   7.122  18.481  0.00  0.00    +0.000 N 
ATOM     12  C   UNL     1       2.177   7.953  17.529  0.00  0.00    +0.000 C 
ATOM     13  C   UNL     1       1.766   9.274  18.194  0.00  0.00    +0.000 C 
BRANCH  11  14
ATOM     14  C   UNL     1       3.714   6.148  17.859  0.00  0.00    +0.000 A 
ATOM     15  C   UNL     1       4.827   6.409  17.056  0.00  0.00    +0.000 A 
ATOM     16  C   UNL     1       5.584   5.352  16.532  0.00  0.00    +0.000 A 
ATOM     17  C   UNL     1       5.218   4.027  16.782  0.00  0.00    +0.000 A 
ATOM     18  C   UNL     1       4.075   3.749  17.525  0.00  0.00    +0.000 A 
ATOM     19  C   UNL     1       3.349   4.806  18.065  0.00  0.00    +0.000 A 
BRANCH  18  20
ATOM     20  O   UNL     1       3.765   2.427  17.698  0.00  0.00    +0.000 OA
ATOM     21  C   UNL     1       3.204   2.107  18.970  0.00  0.00    +0.000 C 
ENDBRANCH  18  20
ENDBRANCH  11  14
ENDBRANCH   4   6
BRANCH   3  22
ATOM     22  C   UNL     1       0.313  12.977  19.025  0.00  0.00    +0.000 A 
ATOM     23  C   UNL     1       0.054  14.072  19.849  0.00  0.00    +0.000 A 
ATOM     24  C   UNL     1       1.038  15.051  20.071  0.00  0.00    +0.000 A 
ATOM     25  C   UNL     1       2.309  14.973  19.475  0.00  0.00    +0.000 A 
ATOM     26  C   UNL     1       2.550  13.875  18.638  0.00  0.00    +0.000 A 
ATOM     27  C   UNL     1       1.575  12.896  18.424  0.00  0.00    +0.000 A 
BRANCH  25  28
ATOM     28  C   UNL     1       3.360  16.081  19.660  0.00  0.00    +0.000 C 
ATOM     29  C   UNL     1       2.775  17.352  20.317  0.00  0.00    +0.000 C 
ATOM     30  C   UNL     1       4.543  15.636  20.553  0.00  0.00    +0.000 C 
ATOM     31  C   UNL     1       3.908  16.458  18.270  0.00  0.00    +0.000 C 
ENDBRANCH  25  28
ENDBRANCH   3  22
BRANCH   1  33
ATOM     32  C   UNL     1      -3.327  10.818  15.467  0.00  0.00    +0.000 C 
ATOM     33  C   UNL     1      -3.609  10.854  16.960  0.00  0.00    +0.000 C 
ENDBRANCH   1  33
TORSDOF 6
ENDMDL
MODEL 4
REMARK VINA RESULT:      -7.9      1.446      1.600
REMARK  Name = 
REMARK  11 active torsions:
REMARK  status: ('A' for Active; 'I' for Inactive)
REMARK    1  A    between atoms: C_1  and  C_2
REMARK    2  A    between atoms: C_2  and  C_3
REMARK    3  A    between atoms: C_5  and  C_6
REMARK    4  A    between atoms: C_9  and  C_10
REMARK    5  A    between atoms: C_10  and  C_11
REMARK    6  A    between atoms: C_10  and  C_12
REMARK    7  A    between atoms: C_10  and  C_13
REMARK    8  A    between atoms: C_16  and  C_17
REMARK    9  A    between atoms: N_22  and  C_23
REMARK   10  A    between atoms: C_27  and  O_28
REMARK   11  A    between atoms: O_28  and  C_29
REMARK                            x       y       z     vdW  Elec       q    Type
REMARK                         _______ _______ _______ _____ _____    ______ ____
ROOT
ATOM      1  C   UNL     1      -1.906  11.358  17.711  0.00  0.00    +0.000 A 
ATOM      2  N   UNL     1      -1.181  12.421  17.957  0.00  0.00    +0.000 NA
ATOM      3  C   UNL     1      -0.233  11.985  18.864  0.00  0.00    +0.000 A 
ATOM      4  C   UNL     1      -0.447  10.646  19.163  0.00  0.00    +0.000 A 
ATOM      5  O   UNL     1      -1.503  10.239  18.374  0.00  0.00    +0.000 OA
ENDROOT
BRANCH   4   6
ATOM      6  C   UNL     1       0.244   9.707  20.028  0.00  0.00    +0.000 C 
ATOM      7  O   UNL     1      -0.112   9.534  21.196  0.00  0.00    +0.000 OA
ATOM      8  N   UNL     1       1.281   8.910  19.514  0.00  0.00    +0.000 N 
ATOM      9  C   UNL     1       1.876   7.876  20.386  0.00  0.00    +0.000 C 
ATOM     10  C   UNL     1       2.161   6.568  19.609  0.00  0.00    +0.000 C 
ATOM     11  N   UNL     1       3.021   6.895  18.459  0.00  0.00    +0.000 N 
ATOM     12  C   UNL     1       2.390   7.854  17.533  0.00  0.00    +0.000 C 
ATOM     13  C   UNL     1       2.037   9.151  18.275  0.00  0.00    +0.000 C 
BRANCH  11  14
ATOM     14  C   UNL     1       3.760   5.911  17.810  0.00  0.00    +0.000 A 
ATOM     15  C   UNL     1       3.621   4.538  18.026  0.00  0.00    +0.000 A 
ATOM     16  C   UNL     1       4.366   3.624  17.269  0.00  0.00    +0.000 A 
ATOM     17  C   UNL     1       5.277   4.075  16.310  0.00  0.00    +0.000 A 
ATOM     18  C   UNL     1       5.476   5.440  16.128  0.00  0.00    +0.000 A 
ATOM     19  C   UNL     1       4.708   6.338  16.864  0.00  0.00    +0.000 A 
BRANCH  18  20
ATOM     20  O   UNL     1       6.408   5.803  15.193  0.00  0.00    +0.000 OA
ATOM     21  C   UNL     1       6.802   4.758  14.305  0.00  0.00    +0.000 C 
ENDBRANCH  18  20
ENDBRANCH  11  14
ENDBRANCH   4   6
BRANCH   3  22
ATOM     22  C   UNL     1       0.774  12.905  19.365  0.00  0.00    +0.000 A 
ATOM     23  C   UNL     1       0.805  13.391  20.672  0.00  0.00    +0.000 A 
ATOM     24  C   UNL     1       1.776  14.328  21.066  0.00  0.00    +0.000 A 
ATOM     25  C   UNL     1       2.744  14.815  20.169  0.00  0.00    +0.000 A 
ATOM     26  C   UNL     1       2.691  14.328  18.855  0.00  0.00    +0.000 A 
ATOM     27  C   UNL     1       1.731  13.389  18.465  0.00  0.00    +0.000 A 
BRANCH  25  28
ATOM     28  C   UNL     1       3.760  15.894  20.580  0.00  0.00    +0.000 C 
ATOM     29  C   UNL     1       5.099  15.294  21.068  0.00  0.00    +0.000 C 
ATOM     30  C   UNL     1       4.112  16.853  19.418  0.00  0.00    +0.000 C 
ATOM     31  C   UNL     1       3.147  16.717  21.729  0.00  0.00    +0.000 C 
ENDBRANCH  25  28
ENDBRANCH   3  22
BRANCH   1  33
ATOM     32  C   UNL     1      -3.036   9.947  15.998  0.00  0.00    +0.000 C 
ATOM     33  C   UNL     1      -3.074  11.236  16.804  0.00  0.00    +0.000 C 
ENDBRANCH   1  33
TORSDOF 6
ENDMDL
MODEL 5
REMARK VINA RESULT:      -7.9      0.864      1.157
REMARK  Name = 
REMARK  11 active torsions:
REMARK  status: ('A' for Active; 'I' for Inactive)
REMARK    1  A    between atoms: C_1  and  C_2
REMARK    2  A    between atoms: C_2  and  C_3
REMARK    3  A    between atoms: C_5  and  C_6
REMARK    4  A    between atoms: C_9  and  C_10
REMARK    5  A    between atoms: C_10  and  C_11
REMARK    6  A    between atoms: C_10  and  C_12
REMARK    7  A    between atoms: C_10  and  C_13
REMARK    8  A    between atoms: C_16  and  C_17
REMARK    9  A    between atoms: N_22  and  C_23
REMARK   10  A    between atoms: C_27  and  O_28
REMARK   11  A    between atoms: O_28  and  C_29
REMARK                            x       y       z     vdW  Elec       q    Type
REMARK                         _______ _______ _______ _____ _____    ______ ____
ROOT
ATOM      1  C   UNL     1      -2.348  10.871  17.435  0.00  0.00    +0.000 A 
ATOM      2  N   UNL     1      -1.706  12.012  17.380  0.00  0.00    +0.000 NA
ATOM      3  C   UNL     1      -0.780  11.931  18.404  0.00  0.00    +0.000 A 
ATOM      4  C   UNL     1      -0.924  10.725  19.076  0.00  0.00    +0.000 A 
ATOM      5  O   UNL     1      -1.909  10.027  18.409  0.00  0.00    +0.000 OA
ENDROOT
BRANCH   4   6
ATOM      6  C   UNL     1      -0.220  10.134  20.199  0.00  0.00    +0.000 C 
ATOM      7  O   UNL     1      -0.563  10.365  21.361  0.00  0.00    +0.000 OA
ATOM      8  N   UNL     1       0.815   9.210  19.973  0.00  0.00    +0.000 N 
ATOM      9  C   UNL     1       1.424   8.532  21.136  0.00  0.00    +0.000 C 
ATOM     10  C   UNL     1       1.706   7.038  20.843  0.00  0.00    +0.000 C 
ATOM     11  N   UNL     1       2.552   6.958  19.641  0.00  0.00    +0.000 N 
ATOM     12  C   UNL     1       1.907   7.548  18.452  0.00  0.00    +0.000 C 
ATOM     13  C   UNL     1       1.557   9.019  18.717  0.00  0.00    +0.000 C 
BRANCH  11  14
ATOM     14  C   UNL     1       3.288   5.813  19.354  0.00  0.00    +0.000 A 
ATOM     15  C   UNL     1       3.094   4.569  19.959  0.00  0.00    +0.000 A 
ATOM     16  C   UNL     1       3.844   3.458  19.548  0.00  0.00    +0.000 A 
ATOM     17  C   UNL     1       4.813   3.588  18.550  0.00  0.00    +0.000 A 
ATOM     18  C   UNL     1       5.065   4.833  17.983  0.00  0.00    +0.000 A 
ATOM     19  C   UNL     1       4.293   5.922  18.378  0.00  0.00    +0.000 A 
BRANCH  18  20
ATOM     20  O   UNL     1       6.052   4.886  17.036  0.00  0.00    +0.000 OA
ATOM     21  C   UNL     1       7.378   4.751  17.545  0.00  0.00    +0.000 C 
ENDBRANCH  18  20
ENDBRANCH  11  14
ENDBRANCH   4   6
BRANCH   3  22
ATOM     22  C   UNL     1       0.139  13.032  18.644  0.00  0.00    +0.000 A 
ATOM     23  C   UNL     1      -0.260  14.310  19.035  0.00  0.00    +0.000 A 
ATOM     24  C   UNL     1       0.684  15.340  19.188  0.00  0.00    +0.000 A 
ATOM     25  C   UNL     1       2.054  15.131  18.951  0.00  0.00    +0.000 A 
ATOM     26  C   UNL     1       2.438  13.845  18.544  0.00  0.00    +0.000 A 
ATOM     27  C   UNL     1       1.501  12.817  18.401  0.00  0.00    +0.000 A 
BRANCH  25  28
ATOM     28  C   UNL     1       3.077  16.276  19.047  0.00  0.00    +0.000 C 
ATOM     29  C   UNL     1       2.570  17.455  19.908  0.00  0.00    +0.000 C 
ATOM     30  C   UNL     1       4.417  15.825  19.675  0.00  0.00    +0.000 C 
ATOM     31  C   UNL     1       3.352  16.795  17.622  0.00  0.00    +0.000 C 
ENDBRANCH  25  28
ENDBRANCH   3  22
BRANCH   1  33
ATOM     32  C   UNL     1      -2.992  10.129  15.147  0.00  0.00    +0.000 C 
ATOM     33  C   UNL     1      -3.457  10.402  16.568  0.00  0.00    +0.000 C 
ENDBRANCH   1  33
TORSDOF 6
ENDMDL
MODEL 6
REMARK VINA RESULT:      -7.8      1.155      1.265
REMARK  Name = 
REMARK  11 active torsions:
REMARK  status: ('A' for Active; 'I' for Inactive)
REMARK    1  A    between atoms: C_1  and  C_2
REMARK    2  A    between atoms: C_2  and  C_3
REMARK    3  A    between atoms: C_5  and  C_6
REMARK    4  A    between atoms: C_9  and  C_10
REMARK    5  A    between atoms: C_10  and  C_11
REMARK    6  A    between atoms: C_10  and  C_12
REMARK    7  A    between atoms: C_10  and  C_13
REMARK    8  A    between atoms: C_16  and  C_17
REMARK    9  A    between atoms: N_22  and  C_23
REMARK   10  A    between atoms: C_27  and  O_28
REMARK   11  A    between atoms: O_28  and  C_29
REMARK                            x       y       z     vdW  Elec       q    Type
REMARK                         _______ _______ _______ _____ _____    ______ ____
ROOT
ATOM      1  C   UNL     1      -1.982  11.551  18.278  0.00  0.00    +0.000 A 
ATOM      2  N   UNL     1      -1.086  12.507  18.282  0.00  0.00    +0.000 NA
ATOM      3  C   UNL     1      -0.069  12.018  19.082  0.00  0.00    +0.000 A 
ATOM      4  C   UNL     1      -0.413  10.764  19.569  0.00  0.00    +0.000 A 
ATOM      5  O   UNL     1      -1.632  10.452  19.002  0.00  0.00    +0.000 OA
ENDROOT
BRANCH   4   6
ATOM      6  C   UNL     1       0.276   9.817  20.426  0.00  0.00    +0.000 C 
ATOM      7  O   UNL     1      -0.000   9.722  21.624  0.00  0.00    +0.000 OA
ATOM      8  N   UNL     1       1.214   8.926  19.878  0.00  0.00    +0.000 N 
ATOM      9  C   UNL     1       1.802   7.891  20.754  0.00  0.00    +0.000 C 
ATOM     10  C   UNL     1       1.936   6.533  20.024  0.00  0.00    +0.000 C 
ATOM     11  N   UNL     1       2.726   6.746  18.800  0.00  0.00    +0.000 N 
ATOM     12  C   UNL     1       2.093   7.706  17.875  0.00  0.00    +0.000 C 
ATOM     13  C   UNL     1       1.888   9.056  18.577  0.00  0.00    +0.000 C 
BRANCH  11  14
ATOM     14  C   UNL     1       3.344   5.684  18.147  0.00  0.00    +0.000 A 
ATOM     15  C   UNL     1       2.709   4.493  17.786  0.00  0.00    +0.000 A 
ATOM     16  C   UNL     1       3.405   3.511  17.068  0.00  0.00    +0.000 A 
ATOM     17  C   UNL     1       4.748   3.697  16.731  0.00  0.00    +0.000 A 
ATOM     18  C   UNL     1       5.414   4.849  17.140  0.00  0.00    +0.000 A 
ATOM     19  C   UNL     1       4.704   5.830  17.826  0.00  0.00    +0.000 A 
BRANCH  18  20
ATOM     20  O   UNL     1       6.736   4.943  16.800  0.00  0.00    +0.000 OA
ATOM     21  C   UNL     1       7.647   4.776  17.885  0.00  0.00    +0.000 C 
ENDBRANCH  18  20
ENDBRANCH  11  14
ENDBRANCH   4   6
BRANCH   3  22
ATOM     22  C   UNL     1       1.125  12.814  19.311  0.00  0.00    +0.000 A 
ATOM     23  C   UNL     1       1.395  13.489  20.502  0.00  0.00    +0.000 A 
ATOM     24  C   UNL     1       2.543  14.291  20.626  0.00  0.00    +0.000 A 
ATOM     25  C   UNL     1       3.454  14.451  19.567  0.00  0.00    +0.000 A 
ATOM     26  C   UNL     1       3.161  13.779  18.372  0.00  0.00    +0.000 A 
ATOM     27  C   UNL     1       2.025  12.973  18.250  0.00  0.00    +0.000 A 
BRANCH  25  28
ATOM     28  C   UNL     1       4.671  15.386  19.679  0.00  0.00    +0.000 C 
ATOM     29  C   UNL     1       5.554  15.067  20.908  0.00  0.00    +0.000 C 
ATOM     30  C   UNL     1       5.600  15.303  18.445  0.00  0.00    +0.000 C 
ATOM     31  C   UNL     1       4.154  16.832  19.811  0.00  0.00    +0.000 C 
ENDBRANCH  25  28
ENDBRANCH   3  22
BRANCH   1  33
ATOM     32  C   UNL     1      -3.608  10.148  17.019  0.00  0.00    +0.000 C 
ATOM     33  C   UNL     1      -3.290  11.525  17.579  0.00  0.00    +0.000 C 
ENDBRANCH   1  33
TORSDOF 6
ENDMDL
MODEL 7
REMARK VINA RESULT:      -7.8      0.443      1.176
REMARK  Name = 
REMARK  11 active torsions:
REMARK  status: ('A' for Active; 'I' for Inactive)
REMARK    1  A    between atoms: C_1  and  C_2
REMARK    2  A    between atoms: C_2  and  C_3
REMARK    3  A    between atoms: C_5  and  C_6
REMARK    4  A    between atoms: C_9  and  C_10
REMARK    5  A    between atoms: C_10  and  C_11
REMARK    6  A    between atoms: C_10  and  C_12
REMARK    7  A    between atoms: C_10  and  C_13
REMARK    8  A    between atoms: C_16  and  C_17
REMARK    9  A    between atoms: N_22  and  C_23
REMARK   10  A    between atoms: C_27  and  O_28
REMARK   11  A    between atoms: O_28  and  C_29
REMARK                            x       y       z     vdW  Elec       q    Type
REMARK                         _______ _______ _______ _____ _____    ______ ____
ROOT
ATOM      1  C   UNL     1      -2.326  11.047  17.617  0.00  0.00    +0.000 A 
ATOM      2  N   UNL     1      -1.612  12.145  17.564  0.00  0.00    +0.000 NA
ATOM      3  C   UNL     1      -0.583  11.925  18.462  0.00  0.00    +0.000 A 
ATOM      4  C   UNL     1      -0.737  10.682  19.062  0.00  0.00    +0.000 A 
ATOM      5  O   UNL     1      -1.841  10.103  18.471  0.00  0.00    +0.000 OA
ENDROOT
BRANCH   4   6
ATOM      6  C   UNL     1       0.046   9.961  20.048  0.00  0.00    +0.000 C 
ATOM      7  O   UNL     1      -0.212  10.042  21.251  0.00  0.00    +0.000 OA
ATOM      8  N   UNL     1       1.063   9.083  19.635  0.00  0.00    +0.000 N 
ATOM      9  C   UNL     1       1.753   8.270  20.657  0.00  0.00    +0.000 C 
ATOM     10  C   UNL     1       2.014   6.828  20.159  0.00  0.00    +0.000 C 
ATOM     11  N   UNL     1       2.772   6.907  18.899  0.00  0.00    +0.000 N 
ATOM     12  C   UNL     1       2.044   7.635  17.843  0.00  0.00    +0.000 C 
ATOM     13  C   UNL     1       1.713   9.058  18.315  0.00  0.00    +0.000 C 
BRANCH  11  14
ATOM     14  C   UNL     1       3.486   5.814  18.419  0.00  0.00    +0.000 A 
ATOM     15  C   UNL     1       2.935   4.766  17.677  0.00  0.00    +0.000 A 
ATOM     16  C   UNL     1       3.756   3.745  17.178  0.00  0.00    +0.000 A 
ATOM     17  C   UNL     1       5.128   3.747  17.441  0.00  0.00    +0.000 A 
ATOM     18  C   UNL     1       5.683   4.747  18.234  0.00  0.00    +0.000 A 
ATOM     19  C   UNL     1       4.863   5.772  18.697  0.00  0.00    +0.000 A 
BRANCH  18  20
ATOM     20  O   UNL     1       7.028   4.662  18.473  0.00  0.00    +0.000 OA
ATOM     21  C   UNL     1       7.551   5.685  19.319  0.00  0.00    +0.000 C 
ENDBRANCH  18  20
ENDBRANCH  11  14
ENDBRANCH   4   6
BRANCH   3  22
ATOM     22  C   UNL     1       0.436  12.941  18.665  0.00  0.00    +0.000 A 
ATOM     23  C   UNL     1       1.790  12.754  18.389  0.00  0.00    +0.000 A 
ATOM     24  C   UNL     1       2.726  13.764  18.670  0.00  0.00    +0.000 A 
ATOM     25  C   UNL     1       2.343  14.991  19.242  0.00  0.00    +0.000 A 
ATOM     26  C   UNL     1       0.980  15.159  19.527  0.00  0.00    +0.000 A 
ATOM     27  C   UNL     1       0.048  14.158  19.239  0.00  0.00    +0.000 A 
BRANCH  25  28
ATOM     28  C   UNL     1       3.376  16.068  19.617  0.00  0.00    +0.000 C 
ATOM     29  C   UNL     1       4.400  16.327  18.489  0.00  0.00    +0.000 C 
ATOM     30  C   UNL     1       2.722  17.435  19.932  0.00  0.00    +0.000 C 
ATOM     31  C   UNL     1       4.137  15.587  20.867  0.00  0.00    +0.000 C 
ENDBRANCH  25  28
ENDBRANCH   3  22
BRANCH   1  33
ATOM     32  C   UNL     1      -4.719  11.624  17.243  0.00  0.00    +0.000 C 
ATOM     33  C   UNL     1      -3.559  10.719  16.860  0.00  0.00    +0.000 C 
ENDBRANCH   1  33
TORSDOF 6
ENDMDL
MODEL 8
REMARK VINA RESULT:      -7.7      1.323      1.911
REMARK  Name = 
REMARK  11 active torsions:
REMARK  status: ('A' for Active; 'I' for Inactive)
REMARK    1  A    between atoms: C_1  and  C_2
REMARK    2  A    between atoms: C_2  and  C_3
REMARK    3  A    between atoms: C_5  and  C_6
REMARK    4  A    between atoms: C_9  and  C_10
REMARK    5  A    between atoms: C_10  and  C_11
REMARK    6  A    between atoms: C_10  and  C_12
REMARK    7  A    between atoms: C_10  and  C_13
REMARK    8  A    between atoms: C_16  and  C_17
REMARK    9  A    between atoms: N_22  and  C_23
REMARK   10  A    between atoms: C_27  and  O_28
REMARK   11  A    between atoms: O_28  and  C_29
REMARK                            x       y       z     vdW  Elec       q    Type
REMARK                         _______ _______ _______ _____ _____    ______ ____
ROOT
ATOM      1  C   UNL     1      -2.274  11.305  17.994  0.00  0.00    +0.000 A 
ATOM      2  N   UNL     1      -1.499  12.358  18.076  0.00  0.00    +0.000 NA
ATOM      3  C   UNL     1      -0.455  11.949  18.886  0.00  0.00    +0.000 A 
ATOM      4  C   UNL     1      -0.661  10.639  19.298  0.00  0.00    +0.000 A 
ATOM      5  O   UNL     1      -1.817  10.217  18.674  0.00  0.00    +0.000 OA
ENDROOT
BRANCH   4   6
ATOM      6  C   UNL     1       0.111   9.735  20.130  0.00  0.00    +0.000 C 
ATOM      7  O   UNL     1      -0.195   9.534  21.308  0.00  0.00    +0.000 OA
ATOM      8  N   UNL     1       1.174   9.003  19.575  0.00  0.00    +0.000 N 
ATOM      9  C   UNL     1       1.856   7.998  20.417  0.00  0.00    +0.000 C 
ATOM     10  C   UNL     1       2.188   6.714  19.619  0.00  0.00    +0.000 C 
ATOM     11  N   UNL     1       2.988   7.098  18.444  0.00  0.00    +0.000 N 
ATOM     12  C   UNL     1       2.273   8.026  17.548  0.00  0.00    +0.000 C 
ATOM     13  C   UNL     1       1.873   9.295  18.314  0.00  0.00    +0.000 C 
BRANCH  11  14
ATOM     14  C   UNL     1       3.760   6.163  17.761  0.00  0.00    +0.000 A 
ATOM     15  C   UNL     1       4.823   6.476  16.911  0.00  0.00    +0.000 A 
ATOM     16  C   UNL     1       5.584   5.455  16.324  0.00  0.00    +0.000 A 
ATOM     17  C   UNL     1       5.271   4.114  16.560  0.00  0.00    +0.000 A 
ATOM     18  C   UNL     1       4.175   3.785  17.352  0.00  0.00    +0.000 A 
ATOM     19  C   UNL     1       3.446   4.806  17.953  0.00  0.00    +0.000 A 
BRANCH  18  20
ATOM     20  O   UNL     1       3.914   2.450  17.509  0.00  0.00    +0.000 OA
ATOM     21  C   UNL     1       2.666   2.155  18.133  0.00  0.00    +0.000 C 
ENDBRANCH  18  20
ENDBRANCH  11  14
ENDBRANCH   4   6
BRANCH   3  22
ATOM     22  C   UNL     1       0.629  12.867  19.197  0.00  0.00    +0.000 A 
ATOM     23  C   UNL     1       0.692  13.634  20.360  0.00  0.00    +0.000 A 
ATOM     24  C   UNL     1       1.742  14.546  20.561  0.00  0.00    +0.000 A 
ATOM     25  C   UNL     1       2.759  14.727  19.607  0.00  0.00    +0.000 A 
ATOM     26  C   UNL     1       2.675  13.960  18.437  0.00  0.00    +0.000 A 
ATOM     27  C   UNL     1       1.635  13.045  18.240  0.00  0.00    +0.000 A 
BRANCH  25  28
ATOM     28  C   UNL     1       3.868  15.778  19.795  0.00  0.00    +0.000 C 
ATOM     29  C   UNL     1       4.668  16.035  18.498  0.00  0.00    +0.000 C 
ATOM     30  C   UNL     1       3.316  17.151  20.244  0.00  0.00    +0.000 C 
ATOM     31  C   UNL     1       4.840  15.261  20.874  0.00  0.00    +0.000 C 
ENDBRANCH  25  28
ENDBRANCH   3  22
BRANCH   1  33
ATOM     32  C   UNL     1      -4.752  11.520  18.107  0.00  0.00    +0.000 C 
ATOM     33  C   UNL     1      -3.550  11.163  17.249  0.00  0.00    +0.000 C 
ENDBRANCH   1  33
TORSDOF 6
ENDMDL
MODEL 9
REMARK VINA RESULT:      -7.6      3.619      6.898
REMARK  Name = 
REMARK  11 active torsions:
REMARK  status: ('A' for Active; 'I' for Inactive)
REMARK    1  A    between atoms: C_1  and  C_2
REMARK    2  A    between atoms: C_2  and  C_3
REMARK    3  A    between atoms: C_5  and  C_6
REMARK    4  A    between atoms: C_9  and  C_10
REMARK    5  A    between atoms: C_10  and  C_11
REMARK    6  A    between atoms: C_10  and  C_12
REMARK    7  A    between atoms: C_10  and  C_13
REMARK    8  A    between atoms: C_16  and  C_17
REMARK    9  A    between atoms: N_22  and  C_23
REMARK   10  A    between atoms: C_27  and  O_28
REMARK   11  A    between atoms: O_28  and  C_29
REMARK                            x       y       z     vdW  Elec       q    Type
REMARK                         _______ _______ _______ _____ _____    ______ ____
ROOT
ATOM      1  C   UNL     1       1.950   3.694  20.375  0.00  0.00    +0.000 A 
ATOM      2  N   UNL     1       1.375   4.872  20.384  0.00  0.00    +0.000 NA
ATOM      3  C   UNL     1       2.369   5.738  19.965  0.00  0.00    +0.000 A 
ATOM      4  C   UNL     1       3.546   5.036  19.744  0.00  0.00    +0.000 A 
ATOM      5  O   UNL     1       3.249   3.707  19.965  0.00  0.00    +0.000 OA
ENDROOT
BRANCH   4   6
ATOM      6  C   UNL     1       4.865   5.441  19.295  0.00  0.00    +0.000 C 
ATOM      7  O   UNL     1       5.756   5.721  20.101  0.00  0.00    +0.000 OA
ATOM      8  N   UNL     1       5.175   5.434  17.925  0.00  0.00    +0.000 N 
ATOM      9  C   UNL     1       6.563   5.729  17.512  0.00  0.00    +0.000 C 
ATOM     10  C   UNL     1       7.022   4.811  16.353  0.00  0.00    +0.000 C 
ATOM     11  N   UNL     1       6.064   4.958  15.244  0.00  0.00    +0.000 N 
ATOM     12  C   UNL     1       4.692   4.572  15.624  0.00  0.00    +0.000 C 
ATOM     13  C   UNL     1       4.214   5.420  16.811  0.00  0.00    +0.000 C 
BRANCH  11  14
ATOM     14  C   UNL     1       6.400   4.583  13.947  0.00  0.00    +0.000 A 
ATOM     15  C   UNL     1       7.536   5.019  13.262  0.00  0.00    +0.000 A 
ATOM     16  C   UNL     1       7.822   4.526  11.981  0.00  0.00    +0.000 A 
ATOM     17  C   UNL     1       6.959   3.616  11.364  0.00  0.00    +0.000 A 
ATOM     18  C   UNL     1       5.790   3.221  12.006  0.00  0.00    +0.000 A 
ATOM     19  C   UNL     1       5.533   3.694  13.290  0.00  0.00    +0.000 A 
BRANCH  18  20
ATOM     20  O   UNL     1       4.981   2.353  11.324  0.00  0.00    +0.000 OA
ATOM     21  C   UNL     1       3.734   2.904  10.901  0.00  0.00    +0.000 C 
ENDBRANCH  18  20
ENDBRANCH  11  14
ENDBRANCH   4   6
BRANCH   3  22
ATOM     22  C   UNL     1       2.090   7.159  19.838  0.00  0.00    +0.000 A 
ATOM     23  C   UNL     1       1.575   7.948  20.865  0.00  0.00    +0.000 A 
ATOM     24  C   UNL     1       1.273   9.303  20.646  0.00  0.00    +0.000 A 
ATOM     25  C   UNL     1       1.470   9.914  19.395  0.00  0.00    +0.000 A 
ATOM     26  C   UNL     1       1.975   9.105  18.367  0.00  0.00    +0.000 A 
ATOM     27  C   UNL     1       2.284   7.759  18.587  0.00  0.00    +0.000 A 
BRANCH  25  28
ATOM     28  C   UNL     1       1.072  11.378  19.135  0.00  0.00    +0.000 C 
ATOM     29  C   UNL     1       1.019  12.217  20.431  0.00  0.00    +0.000 C 
ATOM     30  C   UNL     1       2.058  12.103  18.188  0.00  0.00    +0.000 C 
ATOM     31  C   UNL     1      -0.327  11.386  18.490  0.00  0.00    +0.000 C 
ENDBRANCH  25  28
ENDBRANCH   3  22
BRANCH   1  33
ATOM     32  C   UNL     1       1.325   2.165  22.238  0.00  0.00    +0.000 C 
ATOM     33  C   UNL     1       1.356   2.383  20.734  0.00  0.00    +0.000 C 
ENDBRANCH   1  33
TORSDOF 6
ENDMDL
