MODEL 1
REMARK VINA RESULT:      -9.4      0.000      0.000
REMARK  Name = 
REMARK  4 active torsions:
REMARK  status: ('A' for Active; 'I' for Inactive)
REMARK    1  A    between atoms: C_1  and  O_2
REMARK    2  A    between atoms: O_2  and  C_3
REMARK    3  A    between atoms: C_6  and  C_7
REMARK    4  A    between atoms: C_9  and  C_10
REMARK                            x       y       z     vdW  Elec       q    Type
REMARK                         _______ _______ _______ _____ _____    ______ ____
ROOT
ATOM      1  C   UNL     1       2.513   6.182  18.935  0.00  0.00    +0.000 A 
ATOM      2  N   UNL     1       2.976   5.962  17.699  0.00  0.00    +0.000 NA
ATOM      3  C   UNL     1       3.383   4.628  17.623  0.00  0.00    +0.000 A 
ATOM      4  C   UNL     1       3.100   3.994  18.823  0.00  0.00    +0.000 A 
ATOM      5  C   UNL     1       3.209   2.674  19.376  0.00  0.00    +0.000 A 
ATOM      6  C   UNL     1       2.831   2.443  20.650  0.00  0.00    +0.000 A 
ATOM      7  C   UNL     1       2.352   3.504  21.509  0.00  0.00    +0.000 A 
ATOM      8  C   UNL     1       2.268   4.745  21.013  0.00  0.00    +0.000 A 
ATOM      9  N   UNL     1       2.601   4.996  19.672  0.00  0.00    +0.000 N 
ENDROOT
BRANCH   3  10
ATOM     10  C   UNL     1       3.898   4.059  16.370  0.00  0.00    +0.000 C 
ATOM     11  C   UNL     1       5.119   4.307  15.829  0.00  0.00    +0.000 C 
ATOM     12  C   UNL     1       6.096   5.029  16.709  0.00  0.00    +0.000 C 
ATOM     13  O   UNL     1       6.327   4.810  17.880  0.00  0.00    +0.000 OA
ATOM     14  N   UNL     1       6.934   5.708  15.838  0.00  0.00    +0.000 N 
ATOM     15  C   UNL     1       6.834   5.138  14.565  0.00  0.00    +0.000 A 
ATOM     16  C   UNL     1       7.751   5.398  13.561  0.00  0.00    +0.000 A 
ATOM     17  C   UNL     1       7.678   4.624  12.414  0.00  0.00    +0.000 A 
ATOM     18  C   UNL     1       6.652   3.667  12.290  0.00  0.00    +0.000 A 
ATOM     19  C   UNL     1       5.690   3.455  13.314  0.00  0.00    +0.000 A 
ATOM     20  C   UNL     1       5.794   4.184  14.498  0.00  0.00    +0.000 A 
ATOM     21  H   UNL     1       6.832   6.710  15.880  0.00  0.00    +0.000 HD
ENDBRANCH   3  10
BRANCH   1  25
ATOM     22  C   UNL     1       0.814   9.863  20.569  0.00  0.00    +0.000 A 
ATOM     23  C   UNL     1       1.250   9.804  19.245  0.00  0.00    +0.000 A 
ATOM     24  C   UNL     1       1.851   8.636  18.732  0.00  0.00    +0.000 A 
ATOM     25  C   UNL     1       1.998   7.473  19.495  0.00  0.00    +0.000 A 
ATOM     26  C   UNL     1       1.599   7.559  20.850  0.00  0.00    +0.000 A 
ATOM     27  C   UNL     1       1.013   8.745  21.371  0.00  0.00    +0.000 A 
BRANCH  22  29
ATOM     28  C   UNL     1      -0.446  11.123  22.162  0.00  0.00    +0.000 C 
ATOM     29  O   UNL     1       0.273  11.062  20.934  0.00  0.00    +0.000 OA
ENDBRANCH  22  29
ENDBRANCH   1  25
TORSDOF 3
ENDMDL
MODEL 2
REMARK VINA RESULT:      -8.7      1.950      7.908
REMARK  Name = 
REMARK  4 active torsions:
REMARK  status: ('A' for Active; 'I' for Inactive)
REMARK    1  A    between atoms: C_1  and  O_2
REMARK    2  A    between atoms: O_2  and  C_3
REMARK    3  A    between atoms: C_6  and  C_7
REMARK    4  A    between atoms: C_9  and  C_10
REMARK                            x       y       z     vdW  Elec       q    Type
REMARK                         _______ _______ _______ _____ _____    ______ ____
ROOT
ATOM      1  C   UNL     1       3.728   5.937  18.477  0.00  0.00    +0.000 A 
ATOM      2  N   UNL     1       3.286   7.125  18.905  0.00  0.00    +0.000 NA
ATOM      3  C   UNL     1       2.201   6.900  19.755  0.00  0.00    +0.000 A 
ATOM      4  C   UNL     1       2.013   5.535  19.906  0.00  0.00    +0.000 A 
ATOM      5  C   UNL     1       1.148   4.659  20.643  0.00  0.00    +0.000 A 
ATOM      6  C   UNL     1       1.263   3.322  20.503  0.00  0.00    +0.000 A 
ATOM      7  C   UNL     1       2.213   2.729  19.587  0.00  0.00    +0.000 A 
ATOM      8  C   UNL     1       3.010   3.536  18.875  0.00  0.00    +0.000 A 
ATOM      9  N   UNL     1       2.947   4.927  19.049  0.00  0.00    +0.000 N 
ENDROOT
BRANCH   3  10
ATOM     10  C   UNL     1       1.519   8.013  20.431  0.00  0.00    +0.000 C 
ATOM     11  C   UNL     1       1.188   9.202  19.865  0.00  0.00    +0.000 C 
ATOM     12  C   UNL     1       1.318   9.281  18.373  0.00  0.00    +0.000 C 
ATOM     13  O   UNL     1       0.959   8.454  17.562  0.00  0.00    +0.000 OA
ATOM     14  N   UNL     1       1.565  10.619  18.102  0.00  0.00    +0.000 N 
ATOM     15  C   UNL     1       1.173  11.389  19.201  0.00  0.00    +0.000 A 
ATOM     16  C   UNL     1       1.019  12.764  19.127  0.00  0.00    +0.000 A 
ATOM     17  C   UNL     1       0.430  13.399  20.208  0.00  0.00    +0.000 A 
ATOM     18  C   UNL     1       0.077  12.646  21.344  0.00  0.00    +0.000 A 
ATOM     19  C   UNL     1       0.294  11.243  21.417  0.00  0.00    +0.000 A 
ATOM     20  C   UNL     1       0.827  10.585  20.310  0.00  0.00    +0.000 A 
ATOM     21  H   UNL     1       2.492  10.794  17.750  0.00  0.00    +0.000 HD
ENDBRANCH   3  10
BRANCH   1  25
ATOM     22  C   UNL     1       6.999   5.384  15.630  0.00  0.00    +0.000 A 
ATOM     23  C   UNL     1       5.738   4.840  15.384  0.00  0.00    +0.000 A 
ATOM     24  C   UNL     1       4.697   4.968  16.326  0.00  0.00    +0.000 A 
ATOM     25  C   UNL     1       4.853   5.678  17.522  0.00  0.00    +0.000 A 
ATOM     26  C   UNL     1       6.148   6.183  17.785  0.00  0.00    +0.000 A 
ATOM     27  C   UNL     1       7.203   6.034  16.842  0.00  0.00    +0.000 A 
BRANCH  22  29
ATOM     28  C   UNL     1       7.427   4.900  13.329  0.00  0.00    +0.000 C 
ATOM     29  O   UNL     1       7.914   5.165  14.640  0.00  0.00    +0.000 OA
ENDBRANCH  22  29
ENDBRANCH   1  25
TORSDOF 3
ENDMDL
MODEL 3
REMARK VINA RESULT:      -8.5      4.084     11.036
REMARK  Name = 
REMARK  4 active torsions:
REMARK  status: ('A' for Active; 'I' for Inactive)
REMARK    1  A    between atoms: C_1  and  O_2
REMARK    2  A    between atoms: O_2  and  C_3
REMARK    3  A    between atoms: C_6  and  C_7
REMARK    4  A    between atoms: C_9  and  C_10
REMARK                            x       y       z     vdW  Elec       q    Type
REMARK                         _______ _______ _______ _____ _____    ______ ____
ROOT
ATOM      1  C   UNL     1       0.860   9.990  19.594  0.00  0.00    +0.000 A 
ATOM      2  N   UNL     1       1.080  10.876  20.573  0.00  0.00    +0.000 NA
ATOM      3  C   UNL     1       0.083  11.852  20.501  0.00  0.00    +0.000 A 
ATOM      4  C   UNL     1      -0.811  11.521  19.495  0.00  0.00    +0.000 A 
ATOM      5  C   UNL     1      -2.032  12.041  18.950  0.00  0.00    +0.000 A 
ATOM      6  C   UNL     1      -2.622  11.421  17.907  0.00  0.00    +0.000 A 
ATOM      7  C   UNL     1      -2.036  10.257  17.279  0.00  0.00    +0.000 A 
ATOM      8  C   UNL     1      -0.884   9.776  17.763  0.00  0.00    +0.000 A 
ATOM      9  N   UNL     1      -0.284  10.371  18.884  0.00  0.00    +0.000 N 
ENDROOT
BRANCH   3  10
ATOM     10  C   UNL     1       0.020  12.948  21.479  0.00  0.00    +0.000 C 
ATOM     11  C   UNL     1      -0.842  13.027  22.526  0.00  0.00    +0.000 C 
ATOM     12  C   UNL     1      -1.619  11.783  22.836  0.00  0.00    +0.000 C 
ATOM     13  O   UNL     1      -1.195  10.648  22.884  0.00  0.00    +0.000 OA
ATOM     14  N   UNL     1      -2.794  12.228  23.424  0.00  0.00    +0.000 N 
ATOM     15  C   UNL     1      -2.612  13.538  23.879  0.00  0.00    +0.000 A 
ATOM     16  C   UNL     1      -3.491  14.146  24.760  0.00  0.00    +0.000 A 
ATOM     17  C   UNL     1      -3.108  15.361  25.306  0.00  0.00    +0.000 A 
ATOM     18  C   UNL     1      -1.894  15.949  24.902  0.00  0.00    +0.000 A 
ATOM     19  C   UNL     1      -1.034  15.328  23.955  0.00  0.00    +0.000 A 
ATOM     20  C   UNL     1      -1.379  14.077  23.448  0.00  0.00    +0.000 A 
ATOM     21  H   UNL     1      -3.613  12.069  22.860  0.00  0.00    +0.000 HD
ENDBRANCH   3  10
BRANCH   1  25
ATOM     22  C   UNL     1       3.120   6.422  18.467  0.00  0.00    +0.000 A 
ATOM     23  C   UNL     1       2.482   6.502  19.706  0.00  0.00    +0.000 A 
ATOM     24  C   UNL     1       1.801   7.673  20.095  0.00  0.00    +0.000 A 
ATOM     25  C   UNL     1       1.686   8.787  19.255  0.00  0.00    +0.000 A 
ATOM     26  C   UNL     1       2.378   8.715  18.024  0.00  0.00    +0.000 A 
ATOM     27  C   UNL     1       3.084   7.540  17.642  0.00  0.00    +0.000 A 
BRANCH  22  29
ATOM     28  C   UNL     1       4.908   4.934  19.015  0.00  0.00    +0.000 C 
ATOM     29  O   UNL     1       3.757   5.238  18.234  0.00  0.00    +0.000 OA
ENDBRANCH  22  29
ENDBRANCH   1  25
TORSDOF 3
ENDMDL
MODEL 4
REMARK VINA RESULT:      -8.1      4.348     11.243
REMARK  Name = 
REMARK  4 active torsions:
REMARK  status: ('A' for Active; 'I' for Inactive)
REMARK    1  A    between atoms: C_1  and  O_2
REMARK    2  A    between atoms: O_2  and  C_3
REMARK    3  A    between atoms: C_6  and  C_7
REMARK    4  A    between atoms: C_9  and  C_10
REMARK                            x       y       z     vdW  Elec       q    Type
REMARK                         _______ _______ _______ _____ _____    ______ ____
ROOT
ATOM      1  C   UNL     1       0.499  10.499  19.306  0.00  0.00    +0.000 A 
ATOM      2  N   UNL     1      -0.761  10.629  19.738  0.00  0.00    +0.000 NA
ATOM      3  C   UNL     1      -1.080  11.989  19.729  0.00  0.00    +0.000 A 
ATOM      4  C   UNL     1      -0.013  12.707  19.214  0.00  0.00    +0.000 A 
ATOM      5  C   UNL     1       0.291  14.073  18.896  0.00  0.00    +0.000 A 
ATOM      6  C   UNL     1       1.505  14.398  18.408  0.00  0.00    +0.000 A 
ATOM      7  C   UNL     1       2.546  13.410  18.230  0.00  0.00    +0.000 A 
ATOM      8  C   UNL     1       2.284  12.135  18.545  0.00  0.00    +0.000 A 
ATOM      9  N   UNL     1       1.008  11.766  19.000  0.00  0.00    +0.000 N 
ENDROOT
BRANCH   3  10
ATOM     10  C   UNL     1      -2.421  12.458  20.108  0.00  0.00    +0.000 C 
ATOM     11  C   UNL     1      -2.859  12.669  21.376  0.00  0.00    +0.000 C 
ATOM     12  C   UNL     1      -1.809  12.649  22.448  0.00  0.00    +0.000 C 
ATOM     13  O   UNL     1      -0.720  13.180  22.415  0.00  0.00    +0.000 OA
ATOM     14  N   UNL     1      -2.474  12.247  23.597  0.00  0.00    +0.000 N 
ATOM     15  C   UNL     1      -3.848  12.442  23.424  0.00  0.00    +0.000 A 
ATOM     16  C   UNL     1      -4.740  12.414  24.483  0.00  0.00    +0.000 A 
ATOM     17  C   UNL     1      -6.040  12.824  24.234  0.00  0.00    +0.000 A 
ATOM     18  C   UNL     1      -6.412  13.184  22.924  0.00  0.00    +0.000 A 
ATOM     19  C   UNL     1      -5.490  13.153  21.842  0.00  0.00    +0.000 A 
ATOM     20  C   UNL     1      -4.164  12.803  22.095  0.00  0.00    +0.000 A 
ATOM     21  H   UNL     1      -2.197  11.335  23.924  0.00  0.00    +0.000 HD
ENDBRANCH   3  10
BRANCH   1  25
ATOM     22  C   UNL     1       2.637   6.716  18.825  0.00  0.00    +0.000 A 
ATOM     23  C   UNL     1       2.144   7.105  20.071  0.00  0.00    +0.000 A 
ATOM     24  C   UNL     1       1.505   8.350  20.241  0.00  0.00    +0.000 A 
ATOM     25  C   UNL     1       1.289   9.233  19.176  0.00  0.00    +0.000 A 
ATOM     26  C   UNL     1       1.835   8.852  17.928  0.00  0.00    +0.000 A 
ATOM     27  C   UNL     1       2.499   7.605  17.764  0.00  0.00    +0.000 A 
BRANCH  22  29
ATOM     28  C   UNL     1       4.594   5.422  19.277  0.00  0.00    +0.000 C 
ATOM     29  O   UNL     1       3.250   5.497  18.813  0.00  0.00    +0.000 OA
ENDBRANCH  22  29
ENDBRANCH   1  25
TORSDOF 3
ENDMDL
MODEL 5
REMARK VINA RESULT:      -8.0      4.124     11.265
REMARK  Name = 
REMARK  4 active torsions:
REMARK  status: ('A' for Active; 'I' for Inactive)
REMARK    1  A    between atoms: C_1  and  O_2
REMARK    2  A    between atoms: O_2  and  C_3
REMARK    3  A    between atoms: C_6  and  C_7
REMARK    4  A    between atoms: C_9  and  C_10
REMARK                            x       y       z     vdW  Elec       q    Type
REMARK                         _______ _______ _______ _____ _____    ______ ____
ROOT
ATOM      1  C   UNL     1       0.449  10.623  19.205  0.00  0.00    +0.000 A 
ATOM      2  N   UNL     1      -0.809  10.753  19.644  0.00  0.00    +0.000 NA
ATOM      3  C   UNL     1      -1.104  12.117  19.706  0.00  0.00    +0.000 A 
ATOM      4  C   UNL     1      -0.023  12.842  19.230  0.00  0.00    +0.000 A 
ATOM      5  C   UNL     1       0.306  14.217  18.985  0.00  0.00    +0.000 A 
ATOM      6  C   UNL     1       1.527  14.545  18.514  0.00  0.00    +0.000 A 
ATOM      7  C   UNL     1       2.550  13.548  18.285  0.00  0.00    +0.000 A 
ATOM      8  C   UNL     1       2.264  12.263  18.532  0.00  0.00    +0.000 A 
ATOM      9  N   UNL     1       0.981  11.895  18.967  0.00  0.00    +0.000 N 
ENDROOT
BRANCH   3  10
ATOM     10  C   UNL     1      -2.436  12.590  20.109  0.00  0.00    +0.000 C 
ATOM     11  C   UNL     1      -2.867  12.753  21.387  0.00  0.00    +0.000 C 
ATOM     12  C   UNL     1      -1.816  12.669  22.453  0.00  0.00    +0.000 C 
ATOM     13  O   UNL     1      -0.718  13.184  22.441  0.00  0.00    +0.000 OA
ATOM     14  N   UNL     1      -2.485  12.228  23.585  0.00  0.00    +0.000 N 
ATOM     15  C   UNL     1      -3.856  12.452  23.426  0.00  0.00    +0.000 A 
ATOM     16  C   UNL     1      -4.746  12.392  24.485  0.00  0.00    +0.000 A 
ATOM     17  C   UNL     1      -6.039  12.833  24.257  0.00  0.00    +0.000 A 
ATOM     18  C   UNL     1      -6.409  13.256  22.966  0.00  0.00    +0.000 A 
ATOM     19  C   UNL     1      -5.489  13.258  21.881  0.00  0.00    +0.000 A 
ATOM     20  C   UNL     1      -4.169  12.876  22.115  0.00  0.00    +0.000 A 
ATOM     21  H   UNL     1      -2.222  11.298  23.872  0.00  0.00    +0.000 HD
ENDBRANCH   3  10
BRANCH   1  25
ATOM     22  C   UNL     1       2.844   6.996  18.745  0.00  0.00    +0.000 A 
ATOM     23  C   UNL     1       2.638   7.857  17.667  0.00  0.00    +0.000 A 
ATOM     24  C   UNL     1       1.818   8.997  17.797  0.00  0.00    +0.000 A 
ATOM     25  C   UNL     1       1.215   9.351  19.009  0.00  0.00    +0.000 A 
ATOM     26  C   UNL     1       1.390   8.446  20.082  0.00  0.00    +0.000 A 
ATOM     27  C   UNL     1       2.199   7.284  19.943  0.00  0.00    +0.000 A 
BRANCH  22  29
ATOM     28  C   UNL     1       3.046   4.795  17.835  0.00  0.00    +0.000 C 
ATOM     29  O   UNL     1       3.641   5.923  18.469  0.00  0.00    +0.000 OA
ENDBRANCH  22  29
ENDBRANCH   1  25
TORSDOF 3
ENDMDL
MODEL 6
REMARK VINA RESULT:      -8.0      5.028     10.885
REMARK  Name = 
REMARK  4 active torsions:
REMARK  status: ('A' for Active; 'I' for Inactive)
REMARK    1  A    between atoms: C_1  and  O_2
REMARK    2  A    between atoms: O_2  and  C_3
REMARK    3  A    between atoms: C_6  and  C_7
REMARK    4  A    between atoms: C_9  and  C_10
REMARK                            x       y       z     vdW  Elec       q    Type
REMARK                         _______ _______ _______ _____ _____    ______ ____
ROOT
ATOM      1  C   UNL     1       0.217  10.447  19.302  0.00  0.00    +0.000 A 
ATOM      2  N   UNL     1      -1.072  10.417  19.661  0.00  0.00    +0.000 NA
ATOM      3  C   UNL     1      -1.544  11.732  19.681  0.00  0.00    +0.000 A 
ATOM      4  C   UNL     1      -0.538  12.586  19.257  0.00  0.00    +0.000 A 
ATOM      5  C   UNL     1      -0.374  13.989  19.007  0.00  0.00    +0.000 A 
ATOM      6  C   UNL     1       0.821  14.468  18.605  0.00  0.00    +0.000 A 
ATOM      7  C   UNL     1       1.976  13.611  18.456  0.00  0.00    +0.000 A 
ATOM      8  C   UNL     1       1.844  12.302  18.710  0.00  0.00    +0.000 A 
ATOM      9  N   UNL     1       0.594  11.775  19.073  0.00  0.00    +0.000 N 
ENDROOT
BRANCH   3  10
ATOM     10  C   UNL     1      -2.948  12.032  19.994  0.00  0.00    +0.000 C 
ATOM     11  C   UNL     1      -3.979  12.015  19.110  0.00  0.00    +0.000 C 
ATOM     12  C   UNL     1      -3.688  11.408  17.769  0.00  0.00    +0.000 C 
ATOM     13  O   UNL     1      -3.086  10.379  17.547  0.00  0.00    +0.000 OA
ATOM     14  N   UNL     1      -4.560  12.036  16.892  0.00  0.00    +0.000 N 
ATOM     15  C   UNL     1      -5.604  12.616  17.618  0.00  0.00    +0.000 A 
ATOM     16  C   UNL     1      -6.772  13.056  17.018  0.00  0.00    +0.000 A 
ATOM     17  C   UNL     1      -7.819  13.420  17.848  0.00  0.00    +0.000 A 
ATOM     18  C   UNL     1      -7.636  13.392  19.245  0.00  0.00    +0.000 A 
ATOM     19  C   UNL     1      -6.408  12.987  19.836  0.00  0.00    +0.000 A 
ATOM     20  C   UNL     1      -5.370  12.558  19.011  0.00  0.00    +0.000 A 
ATOM     21  H   UNL     1      -4.099  12.637  16.228  0.00  0.00    +0.000 HD
ENDBRANCH   3  10
BRANCH   1  25
ATOM     22  C   UNL     1       2.792   6.947  18.824  0.00  0.00    +0.000 A 
ATOM     23  C   UNL     1       2.217   7.248  20.059  0.00  0.00    +0.000 A 
ATOM     24  C   UNL     1       1.433   8.407  20.230  0.00  0.00    +0.000 A 
ATOM     25  C   UNL     1       1.151   9.283  19.176  0.00  0.00    +0.000 A 
ATOM     26  C   UNL     1       1.778   8.996  17.941  0.00  0.00    +0.000 A 
ATOM     27  C   UNL     1       2.587   7.838  17.776  0.00  0.00    +0.000 A 
BRANCH  22  29
ATOM     28  C   UNL     1       4.766   5.823  18.082  0.00  0.00    +0.000 C 
ATOM     29  O   UNL     1       3.542   5.807  18.810  0.00  0.00    +0.000 OA
ENDBRANCH  22  29
ENDBRANCH   1  25
TORSDOF 3
ENDMDL
MODEL 7
REMARK VINA RESULT:      -7.9      3.528      5.440
REMARK  Name = 
REMARK  4 active torsions:
REMARK  status: ('A' for Active; 'I' for Inactive)
REMARK    1  A    between atoms: C_1  and  O_2
REMARK    2  A    between atoms: O_2  and  C_3
REMARK    3  A    between atoms: C_6  and  C_7
REMARK    4  A    between atoms: C_9  and  C_10
REMARK                            x       y       z     vdW  Elec       q    Type
REMARK                         _______ _______ _______ _____ _____    ______ ____
ROOT
ATOM      1  C   UNL     1      -0.328   9.744  18.327  0.00  0.00    +0.000 A 
ATOM      2  N   UNL     1       0.703   9.453  17.525  0.00  0.00    +0.000 NA
ATOM      3  C   UNL     1       1.760   9.015  18.326  0.00  0.00    +0.000 A 
ATOM      4  C   UNL     1       1.346   8.972  19.648  0.00  0.00    +0.000 A 
ATOM      5  C   UNL     1       1.892   8.586  20.918  0.00  0.00    +0.000 A 
ATOM      6  C   UNL     1       1.153   8.718  22.038  0.00  0.00    +0.000 A 
ATOM      7  C   UNL     1      -0.178   9.285  22.013  0.00  0.00    +0.000 A 
ATOM      8  C   UNL     1      -0.690   9.672  20.838  0.00  0.00    +0.000 A 
ATOM      9  N   UNL     1       0.040   9.490  19.653  0.00  0.00    +0.000 N 
ENDROOT
BRANCH   3  10
ATOM     10  C   UNL     1       3.030   8.571  17.734  0.00  0.00    +0.000 C 
ATOM     11  C   UNL     1       3.530   7.309  17.785  0.00  0.00    +0.000 C 
ATOM     12  C   UNL     1       2.592   6.247  18.276  0.00  0.00    +0.000 C 
ATOM     13  O   UNL     1       1.430   6.096  17.964  0.00  0.00    +0.000 OA
ATOM     14  N   UNL     1       3.408   5.275  18.835  0.00  0.00    +0.000 N 
ATOM     15  C   UNL     1       4.711   5.436  18.353  0.00  0.00    +0.000 A 
ATOM     16  C   UNL     1       5.680   4.456  18.492  0.00  0.00    +0.000 A 
ATOM     17  C   UNL     1       6.867   4.631  17.799  0.00  0.00    +0.000 A 
ATOM     18  C   UNL     1       7.063   5.806  17.048  0.00  0.00    +0.000 A 
ATOM     19  C   UNL     1       6.072   6.822  16.964  0.00  0.00    +0.000 A 
ATOM     20  C   UNL     1       4.850   6.627  17.605  0.00  0.00    +0.000 A 
ATOM     21  H   UNL     1       3.316   5.198  19.836  0.00  0.00    +0.000 HD
ENDBRANCH   3  10
BRANCH   1  25
ATOM     22  C   UNL     1      -4.139  11.429  17.003  0.00  0.00    +0.000 A 
ATOM     23  C   UNL     1      -3.571  11.813  18.219  0.00  0.00    +0.000 A 
ATOM     24  C   UNL     1      -2.372  11.230  18.675  0.00  0.00    +0.000 A 
ATOM     25  C   UNL     1      -1.668  10.281  17.925  0.00  0.00    +0.000 A 
ATOM     26  C   UNL     1      -2.276   9.862  16.718  0.00  0.00    +0.000 A 
ATOM     27  C   UNL     1      -3.498  10.436  16.270  0.00  0.00    +0.000 A 
BRANCH  22  29
ATOM     28  C   UNL     1      -6.256  12.252  17.746  0.00  0.00    +0.000 C 
ATOM     29  O   UNL     1      -5.310  12.061  16.699  0.00  0.00    +0.000 OA
ENDBRANCH  22  29
ENDBRANCH   1  25
TORSDOF 3
ENDMDL
MODEL 8
REMARK VINA RESULT:      -7.7      4.664     11.265
REMARK  Name = 
REMARK  4 active torsions:
REMARK  status: ('A' for Active; 'I' for Inactive)
REMARK    1  A    between atoms: C_1  and  O_2
REMARK    2  A    between atoms: O_2  and  C_3
REMARK    3  A    between atoms: C_6  and  C_7
REMARK    4  A    between atoms: C_9  and  C_10
REMARK                            x       y       z     vdW  Elec       q    Type
REMARK                         _______ _______ _______ _____ _____    ______ ____
ROOT
ATOM      1  C   UNL     1       0.162  10.514  19.150  0.00  0.00    +0.000 A 
ATOM      2  N   UNL     1      -1.175  10.576  19.140  0.00  0.00    +0.000 NA
ATOM      3  C   UNL     1      -1.542  11.920  19.035  0.00  0.00    +0.000 A 
ATOM      4  C   UNL     1      -0.402  12.698  18.910  0.00  0.00    +0.000 A 
ATOM      5  C   UNL     1      -0.080  14.083  18.722  0.00  0.00    +0.000 A 
ATOM      6  C   UNL     1       1.210  14.475  18.668  0.00  0.00    +0.000 A 
ATOM      7  C   UNL     1       2.300  13.539  18.839  0.00  0.00    +0.000 A 
ATOM      8  C   UNL     1       2.013  12.247  19.039  0.00  0.00    +0.000 A 
ATOM      9  N   UNL     1       0.679  11.810  19.041  0.00  0.00    +0.000 N 
ENDROOT
BRANCH   3  10
ATOM     10  C   UNL     1      -2.954  12.319  18.950  0.00  0.00    +0.000 C 
ATOM     11  C   UNL     1      -3.756  12.629  20.002  0.00  0.00    +0.000 C 
ATOM     12  C   UNL     1      -3.069  12.808  21.323  0.00  0.00    +0.000 C 
ATOM     13  O   UNL     1      -2.043  13.418  21.539  0.00  0.00    +0.000 OA
ATOM     14  N   UNL     1      -4.024  12.480  22.274  0.00  0.00    +0.000 N 
ATOM     15  C   UNL     1      -5.294  12.546  21.691  0.00  0.00    +0.000 A 
ATOM     16  C   UNL     1      -6.456  12.561  22.443  0.00  0.00    +0.000 A 
ATOM     17  C   UNL     1      -7.641  12.837  21.781  0.00  0.00    +0.000 A 
ATOM     18  C   UNL     1      -7.627  13.023  20.385  0.00  0.00    +0.000 A 
ATOM     19  C   UNL     1      -6.426  12.950  19.627  0.00  0.00    +0.000 A 
ATOM     20  C   UNL     1      -5.220  12.736  20.293  0.00  0.00    +0.000 A 
ATOM     21  H   UNL     1      -3.816  11.634  22.780  0.00  0.00    +0.000 HD
ENDBRANCH   3  10
BRANCH   1  25
ATOM     22  C   UNL     1       2.493   6.826  19.426  0.00  0.00    +0.000 A 
ATOM     23  C   UNL     1       1.865   7.361  20.552  0.00  0.00    +0.000 A 
ATOM     24  C   UNL     1       1.161   8.580  20.478  0.00  0.00    +0.000 A 
ATOM     25  C   UNL     1       1.013   9.288  19.280  0.00  0.00    +0.000 A 
ATOM     26  C   UNL     1       1.693   8.763  18.156  0.00  0.00    +0.000 A 
ATOM     27  C   UNL     1       2.422   7.544  18.238  0.00  0.00    +0.000 A 
BRANCH  22  29
ATOM     28  C   UNL     1       4.501   5.551  19.197  0.00  0.00    +0.000 C 
ATOM     29  O   UNL     1       3.155   5.653  19.650  0.00  0.00    +0.000 OA
ENDBRANCH  22  29
ENDBRANCH   1  25
TORSDOF 3
ENDMDL
MODEL 9
REMARK VINA RESULT:      -7.7      4.386      9.791
REMARK  Name = 
REMARK  4 active torsions:
REMARK  status: ('A' for Active; 'I' for Inactive)
REMARK    1  A    between atoms: C_1  and  O_2
REMARK    2  A    between atoms: O_2  and  C_3
REMARK    3  A    between atoms: C_6  and  C_7
REMARK    4  A    between atoms: C_9  and  C_10
REMARK                            x       y       z     vdW  Elec       q    Type
REMARK                         _______ _______ _______ _____ _____    ______ ____
ROOT
ATOM      1  C   UNL     1       1.075   9.795  19.503  0.00  0.00    +0.000 A 
ATOM      2  N   UNL     1       0.937  10.871  18.719  0.00  0.00    +0.000 NA
ATOM      3  C   UNL     1       0.155  11.804  19.403  0.00  0.00    +0.000 A 
ATOM      4  C   UNL     1      -0.139  11.317  20.667  0.00  0.00    +0.000 A 
ATOM      5  C   UNL     1      -0.828  11.766  21.843  0.00  0.00    +0.000 A 
ATOM      6  C   UNL     1      -0.925  10.958  22.918  0.00  0.00    +0.000 A 
ATOM      7  C   UNL     1      -0.390   9.614  22.914  0.00  0.00    +0.000 A 
ATOM      8  C   UNL     1       0.234   9.173  21.814  0.00  0.00    +0.000 A 
ATOM      9  N   UNL     1       0.397  10.019  20.706  0.00  0.00    +0.000 N 
ENDROOT
BRANCH   3  10
ATOM     10  C   UNL     1      -0.140  13.122  18.823  0.00  0.00    +0.000 C 
ATOM     11  C   UNL     1       0.497  14.283  19.125  0.00  0.00    +0.000 C 
ATOM     12  C   UNL     1       1.753  14.153  19.935  0.00  0.00    +0.000 C 
ATOM     13  O   UNL     1       2.650  13.353  19.771  0.00  0.00    +0.000 OA
ATOM     14  N   UNL     1       1.858  15.347  20.633  0.00  0.00    +0.000 N 
ATOM     15  C   UNL     1       1.059  16.313  20.013  0.00  0.00    +0.000 A 
ATOM     16  C   UNL     1       1.177  17.664  20.292  0.00  0.00    +0.000 A 
ATOM     17  C   UNL     1       0.488  18.547  19.476  0.00  0.00    +0.000 A 
ATOM     18  C   UNL     1      -0.339  18.042  18.454  0.00  0.00    +0.000 A 
ATOM     19  C   UNL     1      -0.484  16.647  18.221  0.00  0.00    +0.000 A 
ATOM     20  C   UNL     1       0.253  15.753  18.996  0.00  0.00    +0.000 A 
ATOM     21  H   UNL     1       1.732  15.245  21.627  0.00  0.00    +0.000 HD
ENDBRANCH   3  10
BRANCH   1  25
ATOM     22  C   UNL     1       3.352   6.150  18.704  0.00  0.00    +0.000 A 
ATOM     23  C   UNL     1       3.286   7.173  17.757  0.00  0.00    +0.000 A 
ATOM     24  C   UNL     1       2.505   8.324  17.988  0.00  0.00    +0.000 A 
ATOM     25  C   UNL     1       1.803   8.526  19.182  0.00  0.00    +0.000 A 
ATOM     26  C   UNL     1       1.837   7.462  20.114  0.00  0.00    +0.000 A 
ATOM     27  C   UNL     1       2.607   6.292  19.869  0.00  0.00    +0.000 A 
BRANCH  22  29
ATOM     28  C   UNL     1       5.336   4.865  19.056  0.00  0.00    +0.000 C 
ATOM     29  O   UNL     1       4.127   5.088  18.337  0.00  0.00    +0.000 OA
ENDBRANCH  22  29
ENDBRANCH   1  25
TORSDOF 3
ENDMDL
