MODEL 1
REMARK VINA RESULT:      -7.4      0.000      0.000
REMARK  Name = 
REMARK  8 active torsions:
REMARK  status: ('A' for Active; 'I' for Inactive)
REMARK    1  A    between atoms: C_1  and  C_2
REMARK    2  A    between atoms: C_2  and  C_3
REMARK    3  A    between atoms: C_3  and  N_4
REMARK    4  A    between atoms: N_9  and  C_10
REMARK    5  A    between atoms: C_10  and  C_11
REMARK    6  A    between atoms: C_16  and  O_17
REMARK    7  A    between atoms: O_17  and  C_18
REMARK    8  A    between atoms: C_18  and  C_19
REMARK                            x       y       z     vdW  Elec       q    Type
REMARK                         _______ _______ _______ _____ _____    ______ ____
ROOT
ATOM      1  N   UNL     1       7.001   4.640  16.529  0.00  0.00    +0.000 N 
ATOM      2  N   UNL     1       7.516   5.132  15.387  0.00  0.00    +0.000 NA
ATOM      3  N   UNL     1       6.507   5.146  14.531  0.00  0.00    +0.000 NA
ATOM      4  N   UNL     1       5.363   4.650  15.108  0.00  0.00    +0.000 NA
ATOM      5  C   UNL     1       5.675   4.307  16.341  0.00  0.00    +0.000 A 
ATOM      6  N   UNL     1       4.885   3.775  17.307  0.00  0.00    +0.000 N 
ATOM      7  H   UNL     1       5.271   3.216  18.060  0.00  0.00    +0.000 HD
ENDROOT
BRANCH   1   8
ATOM      8  C   UNL     1       7.822   4.588  17.716  0.00  0.00    +0.000 C 
BRANCH   8  10
ATOM      9  C   UNL     1       7.916   7.068  18.302  0.00  0.00    +0.000 C 
ATOM     10  C   UNL     1       7.501   5.674  18.749  0.00  0.00    +0.000 C 
ENDBRANCH   8  10
ENDBRANCH   1   8
BRANCH   6  11
ATOM     11  C   UNL     1       3.481   3.451  17.010  0.00  0.00    +0.000 C 
BRANCH  11  12
ATOM     12  C   UNL     1       2.638   3.637  18.262  0.00  0.00    +0.000 A 
ATOM     13  C   UNL     1       2.040   2.474  18.804  0.00  0.00    +0.000 A 
ATOM     14  C   UNL     1       1.266   2.518  19.961  0.00  0.00    +0.000 A 
ATOM     15  C   UNL     1       1.073   3.727  20.606  0.00  0.00    +0.000 A 
ATOM     16  C   UNL     1       1.665   4.884  20.100  0.00  0.00    +0.000 A 
ATOM     17  C   UNL     1       2.465   4.863  18.939  0.00  0.00    +0.000 A 
BRANCH  17  18
ATOM     18  O   UNL     1       3.090   5.993  18.448  0.00  0.00    +0.000 OA
BRANCH  18  19
ATOM     19  C   UNL     1       2.540   7.240  18.910  0.00  0.00    +0.000 C 
ATOM     20  C   UNL     1       2.507   8.299  17.824  0.00  0.00    +0.000 C 
ENDBRANCH  18  19
ENDBRANCH  17  18
ENDBRANCH  11  12
ENDBRANCH   6  11
TORSDOF 6
ENDMDL
MODEL 2
REMARK VINA RESULT:      -7.3      1.788      2.737
REMARK  Name = 
REMARK  8 active torsions:
REMARK  status: ('A' for Active; 'I' for Inactive)
REMARK    1  A    between atoms: C_1  and  C_2
REMARK    2  A    between atoms: C_2  and  C_3
REMARK    3  A    between atoms: C_3  and  N_4
REMARK    4  A    between atoms: N_9  and  C_10
REMARK    5  A    between atoms: C_10  and  C_11
REMARK    6  A    between atoms: C_16  and  O_17
REMARK    7  A    between atoms: O_17  and  C_18
REMARK    8  A    between atoms: C_18  and  C_19
REMARK                            x       y       z     vdW  Elec       q    Type
REMARK                         _______ _______ _______ _____ _____    ______ ____
ROOT
ATOM      1  N   UNL     1       6.468   4.698  15.813  0.00  0.00    +0.000 N 
ATOM      2  N   UNL     1       7.288   5.715  15.486  0.00  0.00    +0.000 NA
ATOM      3  N   UNL     1       7.519   6.351  16.623  0.00  0.00    +0.000 NA
ATOM      4  N   UNL     1       6.841   5.765  17.665  0.00  0.00    +0.000 NA
ATOM      5  C   UNL     1       6.163   4.755  17.158  0.00  0.00    +0.000 A 
ATOM      6  N   UNL     1       5.348   3.871  17.786  0.00  0.00    +0.000 N 
ATOM      7  H   UNL     1       4.606   3.390  17.291  0.00  0.00    +0.000 HD
ENDROOT
BRANCH   1   8
ATOM      8  C   UNL     1       6.097   3.730  14.808  0.00  0.00    +0.000 C 
BRANCH   8  10
ATOM      9  C   UNL     1       5.822   3.292  12.311  0.00  0.00    +0.000 C 
ATOM     10  C   UNL     1       6.526   4.107  13.385  0.00  0.00    +0.000 C 
ENDBRANCH   8  10
ENDBRANCH   1   8
BRANCH   6  11
ATOM     11  C   UNL     1       5.081   4.015  19.226  0.00  0.00    +0.000 C 
BRANCH  11  12
ATOM     12  C   UNL     1       3.619   3.707  19.507  0.00  0.00    +0.000 A 
ATOM     13  C   UNL     1       3.351   2.817  20.575  0.00  0.00    +0.000 A 
ATOM     14  C   UNL     1       2.051   2.479  20.941  0.00  0.00    +0.000 A 
ATOM     15  C   UNL     1       0.984   3.026  20.249  0.00  0.00    +0.000 A 
ATOM     16  C   UNL     1       1.222   3.918  19.204  0.00  0.00    +0.000 A 
ATOM     17  C   UNL     1       2.529   4.288  18.824  0.00  0.00    +0.000 A 
BRANCH  17  18
ATOM     18  O   UNL     1       2.779   5.200  17.817  0.00  0.00    +0.000 OA
BRANCH  18  19
ATOM     19  C   UNL     1       2.580   6.578  18.182  0.00  0.00    +0.000 C 
ATOM     20  C   UNL     1       3.631   7.496  17.587  0.00  0.00    +0.000 C 
ENDBRANCH  18  19
ENDBRANCH  17  18
ENDBRANCH  11  12
ENDBRANCH   6  11
TORSDOF 6
ENDMDL
MODEL 3
REMARK VINA RESULT:      -7.2      2.559      4.574
REMARK  Name = 
REMARK  8 active torsions:
REMARK  status: ('A' for Active; 'I' for Inactive)
REMARK    1  A    between atoms: C_1  and  C_2
REMARK    2  A    between atoms: C_2  and  C_3
REMARK    3  A    between atoms: C_3  and  N_4
REMARK    4  A    between atoms: N_9  and  C_10
REMARK    5  A    between atoms: C_10  and  C_11
REMARK    6  A    between atoms: C_16  and  O_17
REMARK    7  A    between atoms: O_17  and  C_18
REMARK    8  A    between atoms: C_18  and  C_19
REMARK                            x       y       z     vdW  Elec       q    Type
REMARK                         _______ _______ _______ _____ _____    ______ ____
ROOT
ATOM      1  N   UNL     1       6.726   4.264  13.101  0.00  0.00    +0.000 N 
ATOM      2  N   UNL     1       7.640   5.005  12.447  0.00  0.00    +0.000 NA
ATOM      3  N   UNL     1       8.256   5.704  13.388  0.00  0.00    +0.000 NA
ATOM      4  N   UNL     1       7.732   5.430  14.628  0.00  0.00    +0.000 NA
ATOM      5  C   UNL     1       6.762   4.558  14.450  0.00  0.00    +0.000 A 
ATOM      6  N   UNL     1       5.951   3.979  15.371  0.00  0.00    +0.000 N 
ATOM      7  H   UNL     1       5.031   3.632  15.123  0.00  0.00    +0.000 HD
ENDROOT
BRANCH   1   8
ATOM      8  C   UNL     1       5.940   3.296  12.373  0.00  0.00    +0.000 C 
BRANCH   8  10
ATOM      9  C   UNL     1       3.878   2.877  10.933  0.00  0.00    +0.000 C 
ATOM     10  C   UNL     1       4.581   3.821  11.898  0.00  0.00    +0.000 C 
ENDBRANCH   8  10
ENDBRANCH   1   8
BRANCH   6  11
ATOM     11  C   UNL     1       6.062   4.360  16.787  0.00  0.00    +0.000 C 
BRANCH  11  12
ATOM     12  C   UNL     1       4.761   4.997  17.249  0.00  0.00    +0.000 A 
ATOM     13  C   UNL     1       4.749   6.408  17.363  0.00  0.00    +0.000 A 
ATOM     14  C   UNL     1       3.608   7.104  17.753  0.00  0.00    +0.000 A 
ATOM     15  C   UNL     1       2.447   6.405  18.036  0.00  0.00    +0.000 A 
ATOM     16  C   UNL     1       2.429   5.016  17.916  0.00  0.00    +0.000 A 
ATOM     17  C   UNL     1       3.567   4.290  17.508  0.00  0.00    +0.000 A 
BRANCH  17  18
ATOM     18  O   UNL     1       3.554   2.917  17.346  0.00  0.00    +0.000 OA
BRANCH  18  19
ATOM     19  C   UNL     1       3.149   2.172  18.508  0.00  0.00    +0.000 C 
ATOM     20  C   UNL     1       4.149   2.278  19.644  0.00  0.00    +0.000 C 
ENDBRANCH  18  19
ENDBRANCH  17  18
ENDBRANCH  11  12
ENDBRANCH   6  11
TORSDOF 6
ENDMDL
MODEL 4
REMARK VINA RESULT:      -7.1      2.724      4.643
REMARK  Name = 
REMARK  8 active torsions:
REMARK  status: ('A' for Active; 'I' for Inactive)
REMARK    1  A    between atoms: C_1  and  C_2
REMARK    2  A    between atoms: C_2  and  C_3
REMARK    3  A    between atoms: C_3  and  N_4
REMARK    4  A    between atoms: N_9  and  C_10
REMARK    5  A    between atoms: C_10  and  C_11
REMARK    6  A    between atoms: C_16  and  O_17
REMARK    7  A    between atoms: O_17  and  C_18
REMARK    8  A    between atoms: C_18  and  C_19
REMARK                            x       y       z     vdW  Elec       q    Type
REMARK                         _______ _______ _______ _____ _____    ______ ____
ROOT
ATOM      1  N   UNL     1       6.682   4.077  12.657  0.00  0.00    +0.000 N 
ATOM      2  N   UNL     1       7.445   4.911  11.926  0.00  0.00    +0.000 NA
ATOM      3  N   UNL     1       8.090   5.654  12.812  0.00  0.00    +0.000 NA
ATOM      4  N   UNL     1       7.732   5.316  14.095  0.00  0.00    +0.000 NA
ATOM      5  C   UNL     1       6.835   4.356  14.001  0.00  0.00    +0.000 A 
ATOM      6  N   UNL     1       6.188   3.690  14.989  0.00  0.00    +0.000 N 
ATOM      7  H   UNL     1       5.283   3.259  14.834  0.00  0.00    +0.000 HD
ENDROOT
BRANCH   1   8
ATOM      8  C   UNL     1       5.917   3.046  11.995  0.00  0.00    +0.000 C 
BRANCH   8  10
ATOM      9  C   UNL     1       3.865   3.603  10.587  0.00  0.00    +0.000 C 
ATOM     10  C   UNL     1       4.406   3.300  11.977  0.00  0.00    +0.000 C 
ENDBRANCH   8  10
ENDBRANCH   1   8
BRANCH   6  11
ATOM     11  C   UNL     1       6.415   4.062  16.394  0.00  0.00    +0.000 C 
BRANCH  11  12
ATOM     12  C   UNL     1       5.284   4.958  16.875  0.00  0.00    +0.000 A 
ATOM     13  C   UNL     1       4.124   4.311  17.362  0.00  0.00    +0.000 A 
ATOM     14  C   UNL     1       3.034   5.027  17.851  0.00  0.00    +0.000 A 
ATOM     15  C   UNL     1       3.079   6.410  17.868  0.00  0.00    +0.000 A 
ATOM     16  C   UNL     1       4.218   7.070  17.408  0.00  0.00    +0.000 A 
ATOM     17  C   UNL     1       5.340   6.367  16.922  0.00  0.00    +0.000 A 
BRANCH  17  18
ATOM     18  O   UNL     1       6.491   7.006  16.500  0.00  0.00    +0.000 OA
BRANCH  18  19
ATOM     19  C   UNL     1       7.222   7.687  17.535  0.00  0.00    +0.000 C 
ATOM     20  C   UNL     1       7.877   6.730  18.512  0.00  0.00    +0.000 C 
ENDBRANCH  18  19
ENDBRANCH  17  18
ENDBRANCH  11  12
ENDBRANCH   6  11
TORSDOF 6
ENDMDL
MODEL 5
REMARK VINA RESULT:      -7.0      0.987      1.189
REMARK  Name = 
REMARK  8 active torsions:
REMARK  status: ('A' for Active; 'I' for Inactive)
REMARK    1  A    between atoms: C_1  and  C_2
REMARK    2  A    between atoms: C_2  and  C_3
REMARK    3  A    between atoms: C_3  and  N_4
REMARK    4  A    between atoms: N_9  and  C_10
REMARK    5  A    between atoms: C_10  and  C_11
REMARK    6  A    between atoms: C_16  and  O_17
REMARK    7  A    between atoms: O_17  and  C_18
REMARK    8  A    between atoms: C_18  and  C_19
REMARK                            x       y       z     vdW  Elec       q    Type
REMARK                         _______ _______ _______ _____ _____    ______ ____
ROOT
ATOM      1  N   UNL     1       6.553   5.766  16.454  0.00  0.00    +0.000 N 
ATOM      2  N   UNL     1       7.328   5.564  15.371  0.00  0.00    +0.000 NA
ATOM      3  N   UNL     1       6.925   4.407  14.869  0.00  0.00    +0.000 NA
ATOM      4  N   UNL     1       5.918   3.862  15.629  0.00  0.00    +0.000 NA
ATOM      5  C   UNL     1       5.706   4.690  16.631  0.00  0.00    +0.000 A 
ATOM      6  N   UNL     1       4.809   4.595  17.645  0.00  0.00    +0.000 N 
ATOM      7  H   UNL     1       4.965   5.055  18.536  0.00  0.00    +0.000 HD
ENDROOT
BRANCH   1   8
ATOM      8  C   UNL     1       6.662   7.006  17.186  0.00  0.00    +0.000 C 
BRANCH   8  10
ATOM      9  C   UNL     1       7.901   5.907  19.125  0.00  0.00    +0.000 C 
ATOM     10  C   UNL     1       7.858   7.068  18.142  0.00  0.00    +0.000 C 
ENDBRANCH   8  10
ENDBRANCH   1   8
BRANCH   6  11
ATOM     11  C   UNL     1       3.949   3.407  17.753  0.00  0.00    +0.000 C 
BRANCH  11  12
ATOM     12  C   UNL     1       3.071   3.522  18.990  0.00  0.00    +0.000 A 
ATOM     13  C   UNL     1       3.203   2.499  19.959  0.00  0.00    +0.000 A 
ATOM     14  C   UNL     1       2.469   2.510  21.142  0.00  0.00    +0.000 A 
ATOM     15  C   UNL     1       1.587   3.548  21.388  0.00  0.00    +0.000 A 
ATOM     16  C   UNL     1       1.452   4.576  20.455  0.00  0.00    +0.000 A 
ATOM     17  C   UNL     1       2.195   4.595  19.256  0.00  0.00    +0.000 A 
BRANCH  17  18
ATOM     18  O   UNL     1       2.101   5.626  18.341  0.00  0.00    +0.000 OA
BRANCH  18  19
ATOM     19  C   UNL     1       2.441   6.926  18.854  0.00  0.00    +0.000 C 
ATOM     20  C   UNL     1       3.011   7.843  17.788  0.00  0.00    +0.000 C 
ENDBRANCH  18  19
ENDBRANCH  17  18
ENDBRANCH  11  12
ENDBRANCH   6  11
TORSDOF 6
ENDMDL
MODEL 6
REMARK VINA RESULT:      -7.0      2.537      4.472
REMARK  Name = 
REMARK  8 active torsions:
REMARK  status: ('A' for Active; 'I' for Inactive)
REMARK    1  A    between atoms: C_1  and  C_2
REMARK    2  A    between atoms: C_2  and  C_3
REMARK    3  A    between atoms: C_3  and  N_4
REMARK    4  A    between atoms: N_9  and  C_10
REMARK    5  A    between atoms: C_10  and  C_11
REMARK    6  A    between atoms: C_16  and  O_17
REMARK    7  A    between atoms: O_17  and  C_18
REMARK    8  A    between atoms: C_18  and  C_19
REMARK                            x       y       z     vdW  Elec       q    Type
REMARK                         _______ _______ _______ _____ _____    ______ ____
ROOT
ATOM      1  N   UNL     1       6.497   4.212  13.556  0.00  0.00    +0.000 N 
ATOM      2  N   UNL     1       7.298   4.862  12.691  0.00  0.00    +0.000 NA
ATOM      3  N   UNL     1       8.063   5.636  13.445  0.00  0.00    +0.000 NA
ATOM      4  N   UNL     1       7.746   5.501  14.775  0.00  0.00    +0.000 NA
ATOM      5  C   UNL     1       6.753   4.638  14.844  0.00  0.00    +0.000 A 
ATOM      6  N   UNL     1       6.097   4.174  15.937  0.00  0.00    +0.000 N 
ATOM      7  H   UNL     1       5.146   3.826  15.878  0.00  0.00    +0.000 HD
ENDROOT
BRANCH   1   8
ATOM      8  C   UNL     1       5.597   3.194  13.066  0.00  0.00    +0.000 C 
BRANCH   8  10
ATOM      9  C   UNL     1       3.918   3.226  11.147  0.00  0.00    +0.000 C 
ATOM     10  C   UNL     1       5.385   3.222  11.548  0.00  0.00    +0.000 C 
ENDBRANCH   8  10
ENDBRANCH   1   8
BRANCH   6  11
ATOM     11  C   UNL     1       6.438   4.692  17.271  0.00  0.00    +0.000 C 
BRANCH  11  12
ATOM     12  C   UNL     1       5.187   5.230  17.946  0.00  0.00    +0.000 A 
ATOM     13  C   UNL     1       4.624   6.407  17.396  0.00  0.00    +0.000 A 
ATOM     14  C   UNL     1       3.466   6.979  17.914  0.00  0.00    +0.000 A 
ATOM     15  C   UNL     1       2.837   6.386  18.995  0.00  0.00    +0.000 A 
ATOM     16  C   UNL     1       3.364   5.217  19.545  0.00  0.00    +0.000 A 
ATOM     17  C   UNL     1       4.527   4.610  19.029  0.00  0.00    +0.000 A 
BRANCH  17  18
ATOM     18  O   UNL     1       5.038   3.431  19.537  0.00  0.00    +0.000 OA
BRANCH  18  19
ATOM     19  C   UNL     1       4.102   2.340  19.596  0.00  0.00    +0.000 C 
ATOM     20  C   UNL     1       3.579   1.946  18.228  0.00  0.00    +0.000 C 
ENDBRANCH  18  19
ENDBRANCH  17  18
ENDBRANCH  11  12
ENDBRANCH   6  11
TORSDOF 6
ENDMDL
MODEL 7
REMARK VINA RESULT:      -6.8      1.915      3.118
REMARK  Name = 
REMARK  8 active torsions:
REMARK  status: ('A' for Active; 'I' for Inactive)
REMARK    1  A    between atoms: C_1  and  C_2
REMARK    2  A    between atoms: C_2  and  C_3
REMARK    3  A    between atoms: C_3  and  N_4
REMARK    4  A    between atoms: N_9  and  C_10
REMARK    5  A    between atoms: C_10  and  C_11
REMARK    6  A    between atoms: C_16  and  O_17
REMARK    7  A    between atoms: O_17  and  C_18
REMARK    8  A    between atoms: C_18  and  C_19
REMARK                            x       y       z     vdW  Elec       q    Type
REMARK                         _______ _______ _______ _____ _____    ______ ____
ROOT
ATOM      1  N   UNL     1       6.617   4.314  14.365  0.00  0.00    +0.000 N 
ATOM      2  N   UNL     1       7.501   5.299  14.119  0.00  0.00    +0.000 NA
ATOM      3  N   UNL     1       7.783   5.813  15.305  0.00  0.00    +0.000 NA
ATOM      4  N   UNL     1       7.076   5.180  16.299  0.00  0.00    +0.000 NA
ATOM      5  C   UNL     1       6.328   4.268  15.714  0.00  0.00    +0.000 A 
ATOM      6  N   UNL     1       5.461   3.386  16.271  0.00  0.00    +0.000 N 
ATOM      7  H   UNL     1       4.684   3.002  15.745  0.00  0.00    +0.000 HD
ENDROOT
BRANCH   1   8
ATOM      8  C   UNL     1       6.174   3.467  13.281  0.00  0.00    +0.000 C 
BRANCH   8  10
ATOM      9  C   UNL     1       4.463   3.063  11.435  0.00  0.00    +0.000 C 
ATOM     10  C   UNL     1       4.870   3.925  12.620  0.00  0.00    +0.000 C 
ENDBRANCH   8  10
ENDBRANCH   1   8
BRANCH   6  11
ATOM     11  C   UNL     1       5.216   3.416  17.722  0.00  0.00    +0.000 C 
BRANCH  11  12
ATOM     12  C   UNL     1       3.723   3.314  17.990  0.00  0.00    +0.000 A 
ATOM     13  C   UNL     1       3.250   2.077  18.488  0.00  0.00    +0.000 A 
ATOM     14  C   UNL     1       1.907   1.873  18.794  0.00  0.00    +0.000 A 
ATOM     15  C   UNL     1       1.002   2.905  18.611  0.00  0.00    +0.000 A 
ATOM     16  C   UNL     1       1.447   4.138  18.136  0.00  0.00    +0.000 A 
ATOM     17  C   UNL     1       2.804   4.374  17.834  0.00  0.00    +0.000 A 
BRANCH  17  18
ATOM     18  O   UNL     1       3.266   5.602  17.401  0.00  0.00    +0.000 OA
BRANCH  18  19
ATOM     19  C   UNL     1       3.271   6.636  18.401  0.00  0.00    +0.000 C 
ATOM     20  C   UNL     1       2.430   7.835  18.004  0.00  0.00    +0.000 C 
ENDBRANCH  18  19
ENDBRANCH  17  18
ENDBRANCH  11  12
ENDBRANCH   6  11
TORSDOF 6
ENDMDL
MODEL 8
REMARK VINA RESULT:      -6.8      2.283      3.650
REMARK  Name = 
REMARK  8 active torsions:
REMARK  status: ('A' for Active; 'I' for Inactive)
REMARK    1  A    between atoms: C_1  and  C_2
REMARK    2  A    between atoms: C_2  and  C_3
REMARK    3  A    between atoms: C_3  and  N_4
REMARK    4  A    between atoms: N_9  and  C_10
REMARK    5  A    between atoms: C_10  and  C_11
REMARK    6  A    between atoms: C_16  and  O_17
REMARK    7  A    between atoms: O_17  and  C_18
REMARK    8  A    between atoms: C_18  and  C_19
REMARK                            x       y       z     vdW  Elec       q    Type
REMARK                         _______ _______ _______ _____ _____    ______ ____
ROOT
ATOM      1  N   UNL     1       6.667   4.197  13.137  0.00  0.00    +0.000 N 
ATOM      2  N   UNL     1       7.642   4.930  12.567  0.00  0.00    +0.000 NA
ATOM      3  N   UNL     1       8.166   5.636  13.557  0.00  0.00    +0.000 NA
ATOM      4  N   UNL     1       7.523   5.375  14.744  0.00  0.00    +0.000 NA
ATOM      5  C   UNL     1       6.572   4.504  14.479  0.00  0.00    +0.000 A 
ATOM      6  N   UNL     1       5.674   3.936  15.322  0.00  0.00    +0.000 N 
ATOM      7  H   UNL     1       4.780   3.589  14.990  0.00  0.00    +0.000 HD
ENDROOT
BRANCH   1   8
ATOM      8  C   UNL     1       5.952   3.224  12.344  0.00  0.00    +0.000 C 
BRANCH   8  10
ATOM      9  C   UNL     1       3.932   3.292  10.790  0.00  0.00    +0.000 C 
ATOM     10  C   UNL     1       4.453   3.509  12.203  0.00  0.00    +0.000 C 
ENDBRANCH   8  10
ENDBRANCH   1   8
BRANCH   6  11
ATOM     11  C   UNL     1       5.647   4.330  16.739  0.00  0.00    +0.000 C 
BRANCH  11  12
ATOM     12  C   UNL     1       4.247   4.132  17.299  0.00  0.00    +0.000 A 
ATOM     13  C   UNL     1       3.664   2.856  17.115  0.00  0.00    +0.000 A 
ATOM     14  C   UNL     1       2.397   2.550  17.605  0.00  0.00    +0.000 A 
ATOM     15  C   UNL     1       1.682   3.513  18.294  0.00  0.00    +0.000 A 
ATOM     16  C   UNL     1       2.241   4.774  18.502  0.00  0.00    +0.000 A 
ATOM     17  C   UNL     1       3.529   5.103  18.029  0.00  0.00    +0.000 A 
BRANCH  17  18
ATOM     18  O   UNL     1       4.113   6.334  18.262  0.00  0.00    +0.000 OA
BRANCH  18  19
ATOM     19  C   UNL     1       3.720   7.374  17.349  0.00  0.00    +0.000 C 
ATOM     20  C   UNL     1       2.612   8.249  17.905  0.00  0.00    +0.000 C 
ENDBRANCH  18  19
ENDBRANCH  17  18
ENDBRANCH  11  12
ENDBRANCH   6  11
TORSDOF 6
ENDMDL
MODEL 9
REMARK VINA RESULT:      -6.8      2.270      4.251
REMARK  Name = 
REMARK  8 active torsions:
REMARK  status: ('A' for Active; 'I' for Inactive)
REMARK    1  A    between atoms: C_1  and  C_2
REMARK    2  A    between atoms: C_2  and  C_3
REMARK    3  A    between atoms: C_3  and  N_4
REMARK    4  A    between atoms: N_9  and  C_10
REMARK    5  A    between atoms: C_10  and  C_11
REMARK    6  A    between atoms: C_16  and  O_17
REMARK    7  A    between atoms: O_17  and  C_18
REMARK    8  A    between atoms: C_18  and  C_19
REMARK                            x       y       z     vdW  Elec       q    Type
REMARK                         _______ _______ _______ _____ _____    ______ ____
ROOT
ATOM      1  N   UNL     1       6.412   4.151  14.075  0.00  0.00    +0.000 N 
ATOM      2  N   UNL     1       7.337   4.816  13.356  0.00  0.00    +0.000 NA
ATOM      3  N   UNL     1       8.000   5.546  14.238  0.00  0.00    +0.000 NA
ATOM      4  N   UNL     1       7.497   5.369  15.505  0.00  0.00    +0.000 NA
ATOM      5  C   UNL     1       6.491   4.526  15.401  0.00  0.00    +0.000 A 
ATOM      6  N   UNL     1       5.682   4.036  16.373  0.00  0.00    +0.000 N 
ATOM      7  H   UNL     1       4.743   3.710  16.168  0.00  0.00    +0.000 HD
ENDROOT
BRANCH   1   8
ATOM      8  C   UNL     1       5.574   3.171  13.425  0.00  0.00    +0.000 C 
BRANCH   8  10
ATOM      9  C   UNL     1       4.180   3.234  11.290  0.00  0.00    +0.000 C 
ATOM     10  C   UNL     1       5.576   3.260  11.895  0.00  0.00    +0.000 C 
ENDBRANCH   8  10
ENDBRANCH   1   8
BRANCH   6  11
ATOM     11  C   UNL     1       5.840   4.498  17.761  0.00  0.00    +0.000 C 
BRANCH  11  12
ATOM     12  C   UNL     1       4.642   5.346  18.158  0.00  0.00    +0.000 A 
ATOM     13  C   UNL     1       4.509   6.599  17.512  0.00  0.00    +0.000 A 
ATOM     14  C   UNL     1       3.440   7.451  17.776  0.00  0.00    +0.000 A 
ATOM     15  C   UNL     1       2.473   7.069  18.691  0.00  0.00    +0.000 A 
ATOM     16  C   UNL     1       2.574   5.832  19.328  0.00  0.00    +0.000 A 
ATOM     17  C   UNL     1       3.639   4.946  19.066  0.00  0.00    +0.000 A 
BRANCH  17  18
ATOM     18  O   UNL     1       3.731   3.700  19.659  0.00  0.00    +0.000 OA
BRANCH  18  19
ATOM     19  C   UNL     1       2.472   3.106  20.021  0.00  0.00    +0.000 C 
ATOM     20  C   UNL     1       2.342   2.884  21.516  0.00  0.00    +0.000 C 
ENDBRANCH  18  19
ENDBRANCH  17  18
ENDBRANCH  11  12
ENDBRANCH   6  11
TORSDOF 6
ENDMDL
