MODEL 1
REMARK VINA RESULT:      -7.6      0.000      0.000
REMARK  Name = 
REMARK  8 active torsions:
REMARK  status: ('A' for Active; 'I' for Inactive)
REMARK    1  A    between atoms: C_1  and  C_2
REMARK    2  A    between atoms: C_2  and  N_3
REMARK    3  A    between atoms: C_4  and  S_5
REMARK    4  A    between atoms: S_5  and  C_6
REMARK    5  A    between atoms: C_6  and  C_7
REMARK    6  A    between atoms: C_10  and  C_11
REMARK    7  A    between atoms: C_16  and  C_17
REMARK    8  A    between atoms: N_19  and  C_20
REMARK                            x       y       z     vdW  Elec       q    Type
REMARK                         _______ _______ _______ _____ _____    ______ ____
ROOT
ATOM      1  N   UNL     1       1.032   8.846  19.985  0.00  0.00    +0.000 N 
ATOM      2  C   UNL     1       1.934   8.104  19.260  0.00  0.00    +0.000 A 
ATOM      3  N   UNL     1       2.153   8.693  18.109  0.00  0.00    +0.000 NA
ATOM      4  N   UNL     1       1.380   9.832  18.064  0.00  0.00    +0.000 NA
ATOM      5  C   UNL     1       0.703   9.932  19.193  0.00  0.00    +0.000 A 
ENDROOT
BRANCH   5   6
ATOM      6  C   UNL     1      -0.196  11.031  19.494  0.00  0.00    +0.000 A 
ATOM      7  N   UNL     1      -1.436  11.016  19.082  0.00  0.00    +0.000 NA
ATOM      8  N   UNL     1      -2.242  12.098  19.386  0.00  0.00    +0.000 N 
ATOM      9  C   UNL     1      -1.786  13.168  20.132  0.00  0.00    +0.000 A 
ATOM     10  C   UNL     1      -0.550  13.297  20.611  0.00  0.00    +0.000 A 
ATOM     11  C   UNL     1       0.378  12.206  20.286  0.00  0.00    +0.000 A 
ATOM     12  O   UNL     1       1.555  12.297  20.600  0.00  0.00    +0.000 OA
BRANCH   8  13
ATOM     13  C   UNL     1      -3.606  12.001  18.951  0.00  0.00    +0.000 A 
ATOM     14  C   UNL     1      -4.656  12.441  19.773  0.00  0.00    +0.000 A 
ATOM     15  C   UNL     1      -5.988  12.387  19.345  0.00  0.00    +0.000 A 
ATOM     16  C   UNL     1      -6.301  11.877  18.088  0.00  0.00    +0.000 A 
ATOM     17  C   UNL     1      -5.281  11.422  17.256  0.00  0.00    +0.000 A 
ATOM     18  C   UNL     1      -3.951  11.485  17.685  0.00  0.00    +0.000 A 
ENDBRANCH   8  13
ENDBRANCH   5   6
BRANCH   1  20
ATOM     19  C   UNL     1       1.221   9.195  22.421  0.00  0.00    +0.000 C 
ATOM     20  C   UNL     1       0.461   8.540  21.280  0.00  0.00    +0.000 C 
ENDBRANCH   1  20
BRANCH   2  21
ATOM     21  S   UNL     1       2.638   6.603  19.786  0.00  0.00    +0.000 S 
BRANCH  21  22
ATOM     22  C   UNL     1       2.354   5.535  18.333  0.00  0.00    +0.000 C 
BRANCH  22  23
ATOM     23  C   UNL     1       3.595   5.322  17.483  0.00  0.00    +0.000 A 
ATOM     24  C   UNL     1       3.965   4.035  17.064  0.00  0.00    +0.000 A 
ATOM     25  C   UNL     1       5.079   3.837  16.237  0.00  0.00    +0.000 A 
ATOM     26  C   UNL     1       5.858   4.919  15.816  0.00  0.00    +0.000 A 
ATOM     27  C   UNL     1       7.059   4.717  14.936  0.00  0.00    +0.000 C 
ATOM     28  C   UNL     1       5.498   6.206  16.235  0.00  0.00    +0.000 A 
ATOM     29  C   UNL     1       4.382   6.405  17.060  0.00  0.00    +0.000 A 
ENDBRANCH  22  23
ENDBRANCH  21  22
ENDBRANCH   2  21
TORSDOF 6
ENDMDL
MODEL 2
REMARK VINA RESULT:      -7.5      2.839      4.068
REMARK  Name = 
REMARK  8 active torsions:
REMARK  status: ('A' for Active; 'I' for Inactive)
REMARK    1  A    between atoms: C_1  and  C_2
REMARK    2  A    between atoms: C_2  and  N_3
REMARK    3  A    between atoms: C_4  and  S_5
REMARK    4  A    between atoms: S_5  and  C_6
REMARK    5  A    between atoms: C_6  and  C_7
REMARK    6  A    between atoms: C_10  and  C_11
REMARK    7  A    between atoms: C_16  and  C_17
REMARK    8  A    between atoms: N_19  and  C_20
REMARK                            x       y       z     vdW  Elec       q    Type
REMARK                         _______ _______ _______ _____ _____    ______ ____
ROOT
ATOM      1  N   UNL     1      -0.019  10.444  21.034  0.00  0.00    +0.000 N 
ATOM      2  C   UNL     1       0.783   9.396  21.421  0.00  0.00    +0.000 A 
ATOM      3  N   UNL     1       0.848   9.361  22.730  0.00  0.00    +0.000 NA
ATOM      4  N   UNL     1       0.092  10.403  23.218  0.00  0.00    +0.000 NA
ATOM      5  C   UNL     1      -0.437  11.060  22.202  0.00  0.00    +0.000 A 
ENDROOT
BRANCH   5   6
ATOM      6  C   UNL     1      -1.313  12.205  22.356  0.00  0.00    +0.000 A 
ATOM      7  N   UNL     1      -2.611  12.055  22.409  0.00  0.00    +0.000 NA
ATOM      8  N   UNL     1      -3.397  13.185  22.541  0.00  0.00    +0.000 N 
ATOM      9  C   UNL     1      -2.854  14.451  22.649  0.00  0.00    +0.000 A 
ATOM     10  C   UNL     1      -1.553  14.732  22.614  0.00  0.00    +0.000 A 
ATOM     11  C   UNL     1      -0.656  13.584  22.426  0.00  0.00    +0.000 A 
ATOM     12  O   UNL     1       0.542  13.768  22.280  0.00  0.00    +0.000 OA
BRANCH   8  13
ATOM     13  C   UNL     1      -4.809  12.952  22.646  0.00  0.00    +0.000 A 
ATOM     14  C   UNL     1      -5.577  12.666  21.504  0.00  0.00    +0.000 A 
ATOM     15  C   UNL     1      -6.948  12.398  21.597  0.00  0.00    +0.000 A 
ATOM     16  C   UNL     1      -7.586  12.424  22.834  0.00  0.00    +0.000 A 
ATOM     17  C   UNL     1      -6.853  12.716  23.981  0.00  0.00    +0.000 A 
ATOM     18  C   UNL     1      -5.481  12.976  23.885  0.00  0.00    +0.000 A 
ENDBRANCH   8  13
ENDBRANCH   5   6
BRANCH   1  20
ATOM     19  C   UNL     1       0.664  11.932  19.187  0.00  0.00    +0.000 C 
ATOM     20  C   UNL     1      -0.320  10.889  19.690  0.00  0.00    +0.000 C 
ENDBRANCH   1  20
BRANCH   2  21
ATOM     21  S   UNL     1       1.602   8.317  20.331  0.00  0.00    +0.000 S 
BRANCH  21  22
ATOM     22  C   UNL     1       1.281   6.696  21.106  0.00  0.00    +0.000 C 
BRANCH  22  23
ATOM     23  C   UNL     1       1.583   5.517  20.198  0.00  0.00    +0.000 A 
ATOM     24  C   UNL     1       2.283   5.699  18.995  0.00  0.00    +0.000 A 
ATOM     25  C   UNL     1       2.611   4.609  18.178  0.00  0.00    +0.000 A 
ATOM     26  C   UNL     1       2.238   3.310  18.535  0.00  0.00    +0.000 A 
ATOM     27  C   UNL     1       2.578   2.135  17.662  0.00  0.00    +0.000 C 
ATOM     28  C   UNL     1       1.534   3.122  19.731  0.00  0.00    +0.000 A 
ATOM     29  C   UNL     1       1.209   4.211  20.551  0.00  0.00    +0.000 A 
ENDBRANCH  22  23
ENDBRANCH  21  22
ENDBRANCH   2  21
TORSDOF 6
ENDMDL
MODEL 3
REMARK VINA RESULT:      -7.4      3.319     10.156
REMARK  Name = 
REMARK  8 active torsions:
REMARK  status: ('A' for Active; 'I' for Inactive)
REMARK    1  A    between atoms: C_1  and  C_2
REMARK    2  A    between atoms: C_2  and  N_3
REMARK    3  A    between atoms: C_4  and  S_5
REMARK    4  A    between atoms: S_5  and  C_6
REMARK    5  A    between atoms: C_6  and  C_7
REMARK    6  A    between atoms: C_10  and  C_11
REMARK    7  A    between atoms: C_16  and  C_17
REMARK    8  A    between atoms: N_19  and  C_20
REMARK                            x       y       z     vdW  Elec       q    Type
REMARK                         _______ _______ _______ _____ _____    ______ ____
ROOT
ATOM      1  N   UNL     1       3.293   5.944  19.115  0.00  0.00    +0.000 N 
ATOM      2  C   UNL     1       2.363   6.943  19.283  0.00  0.00    +0.000 A 
ATOM      3  N   UNL     1       2.645   7.936  18.476  0.00  0.00    +0.000 NA
ATOM      4  N   UNL     1       3.780   7.600  17.772  0.00  0.00    +0.000 NA
ATOM      5  C   UNL     1       4.176   6.398  18.151  0.00  0.00    +0.000 A 
ENDROOT
BRANCH   5   6
ATOM      6  C   UNL     1       5.332   5.722  17.592  0.00  0.00    +0.000 A 
ATOM      7  N   UNL     1       5.380   5.414  16.322  0.00  0.00    +0.000 NA
ATOM      8  N   UNL     1       6.501   4.756  15.849  0.00  0.00    +0.000 N 
ATOM      9  C   UNL     1       7.572   4.446  16.666  0.00  0.00    +0.000 A 
ATOM     10  C   UNL     1       7.644   4.712  17.969  0.00  0.00    +0.000 A 
ATOM     11  C   UNL     1       6.467   5.368  18.553  0.00  0.00    +0.000 A 
ATOM     12  O   UNL     1       6.411   5.552  19.759  0.00  0.00    +0.000 OA
BRANCH   8  13
ATOM     13  C   UNL     1       6.518   4.491  14.439  0.00  0.00    +0.000 A 
ATOM     14  C   UNL     1       7.527   5.023  13.620  0.00  0.00    +0.000 A 
ATOM     15  C   UNL     1       7.578   4.741  12.249  0.00  0.00    +0.000 A 
ATOM     16  C   UNL     1       6.609   3.929  11.665  0.00  0.00    +0.000 A 
ATOM     17  C   UNL     1       5.591   3.397  12.450  0.00  0.00    +0.000 A 
ATOM     18  C   UNL     1       5.548   3.676  13.821  0.00  0.00    +0.000 A 
ENDBRANCH   8  13
ENDBRANCH   5   6
BRANCH   1  20
ATOM     19  C   UNL     1       2.681   3.553  19.146  0.00  0.00    +0.000 C 
ATOM     20  C   UNL     1       3.404   4.695  19.840  0.00  0.00    +0.000 C 
ENDBRANCH   1  20
BRANCH   2  21
ATOM     21  S   UNL     1       1.048   6.894  20.419  0.00  0.00    +0.000 S 
BRANCH  21  22
ATOM     22  C   UNL     1       1.520   8.217  21.585  0.00  0.00    +0.000 C 
BRANCH  22  23
ATOM     23  C   UNL     1       0.487   9.324  21.699  0.00  0.00    +0.000 A 
ATOM     24  C   UNL     1      -0.054   9.676  22.945  0.00  0.00    +0.000 A 
ATOM     25  C   UNL     1      -0.969  10.731  23.065  0.00  0.00    +0.000 A 
ATOM     26  C   UNL     1      -1.375  11.455  21.941  0.00  0.00    +0.000 A 
ATOM     27  C   UNL     1      -2.361  12.583  22.057  0.00  0.00    +0.000 C 
ATOM     28  C   UNL     1      -0.844  11.107  20.693  0.00  0.00    +0.000 A 
ATOM     29  C   UNL     1       0.073  10.053  20.573  0.00  0.00    +0.000 A 
ENDBRANCH  22  23
ENDBRANCH  21  22
ENDBRANCH   2  21
TORSDOF 6
ENDMDL
MODEL 4
REMARK VINA RESULT:      -7.4      2.743      3.957
REMARK  Name = 
REMARK  8 active torsions:
REMARK  status: ('A' for Active; 'I' for Inactive)
REMARK    1  A    between atoms: C_1  and  C_2
REMARK    2  A    between atoms: C_2  and  N_3
REMARK    3  A    between atoms: C_4  and  S_5
REMARK    4  A    between atoms: S_5  and  C_6
REMARK    5  A    between atoms: C_6  and  C_7
REMARK    6  A    between atoms: C_10  and  C_11
REMARK    7  A    between atoms: C_16  and  C_17
REMARK    8  A    between atoms: N_19  and  C_20
REMARK                            x       y       z     vdW  Elec       q    Type
REMARK                         _______ _______ _______ _____ _____    ______ ____
ROOT
ATOM      1  N   UNL     1       0.108  10.411  21.014  0.00  0.00    +0.000 N 
ATOM      2  C   UNL     1       0.872   9.345  21.427  0.00  0.00    +0.000 A 
ATOM      3  N   UNL     1       0.870   9.293  22.737  0.00  0.00    +0.000 NA
ATOM      4  N   UNL     1       0.106  10.340  23.200  0.00  0.00    +0.000 NA
ATOM      5  C   UNL     1      -0.360  11.019  22.167  0.00  0.00    +0.000 A 
ENDROOT
BRANCH   5   6
ATOM      6  C   UNL     1      -1.226  12.176  22.291  0.00  0.00    +0.000 A 
ATOM      7  N   UNL     1      -2.521  12.037  22.400  0.00  0.00    +0.000 NA
ATOM      8  N   UNL     1      -3.297  13.177  22.500  0.00  0.00    +0.000 N 
ATOM      9  C   UNL     1      -2.745  14.444  22.520  0.00  0.00    +0.000 A 
ATOM     10  C   UNL     1      -1.445  14.715  22.423  0.00  0.00    +0.000 A 
ATOM     11  C   UNL     1      -0.560  13.553  22.265  0.00  0.00    +0.000 A 
ATOM     12  O   UNL     1       0.633  13.721  22.066  0.00  0.00    +0.000 OA
BRANCH   8  13
ATOM     13  C   UNL     1      -4.705  12.958  22.668  0.00  0.00    +0.000 A 
ATOM     14  C   UNL     1      -5.285  12.955  23.948  0.00  0.00    +0.000 A 
ATOM     15  C   UNL     1      -6.663  12.781  24.123  0.00  0.00    +0.000 A 
ATOM     16  C   UNL     1      -7.492  12.592  23.020  0.00  0.00    +0.000 A 
ATOM     17  C   UNL     1      -6.944  12.579  21.741  0.00  0.00    +0.000 A 
ATOM     18  C   UNL     1      -5.566  12.761  21.570  0.00  0.00    +0.000 A 
ENDBRANCH   8  13
ENDBRANCH   5   6
BRANCH   1  20
ATOM     19  C   UNL     1      -1.380  10.300  19.048  0.00  0.00    +0.000 C 
ATOM     20  C   UNL     1      -0.117  10.879  19.662  0.00  0.00    +0.000 C 
ENDBRANCH   1  20
BRANCH   2  21
ATOM     21  S   UNL     1       1.730   8.268  20.365  0.00  0.00    +0.000 S 
BRANCH  21  22
ATOM     22  C   UNL     1       1.307   6.640  21.074  0.00  0.00    +0.000 C 
BRANCH  22  23
ATOM     23  C   UNL     1       1.611   5.476  20.147  0.00  0.00    +0.000 A 
ATOM     24  C   UNL     1       2.347   5.671  18.968  0.00  0.00    +0.000 A 
ATOM     25  C   UNL     1       2.676   4.593  18.134  0.00  0.00    +0.000 A 
ATOM     26  C   UNL     1       2.268   3.294  18.451  0.00  0.00    +0.000 A 
ATOM     27  C   UNL     1       2.608   2.133  17.560  0.00  0.00    +0.000 C 
ATOM     28  C   UNL     1       1.528   3.093  19.623  0.00  0.00    +0.000 A 
ATOM     29  C   UNL     1       1.202   4.170  20.459  0.00  0.00    +0.000 A 
ENDBRANCH  22  23
ENDBRANCH  21  22
ENDBRANCH   2  21
TORSDOF 6
ENDMDL
MODEL 5
REMARK VINA RESULT:      -7.4      0.738      1.293
REMARK  Name = 
REMARK  8 active torsions:
REMARK  status: ('A' for Active; 'I' for Inactive)
REMARK    1  A    between atoms: C_1  and  C_2
REMARK    2  A    between atoms: C_2  and  N_3
REMARK    3  A    between atoms: C_4  and  S_5
REMARK    4  A    between atoms: S_5  and  C_6
REMARK    5  A    between atoms: C_6  and  C_7
REMARK    6  A    between atoms: C_10  and  C_11
REMARK    7  A    between atoms: C_16  and  C_17
REMARK    8  A    between atoms: N_19  and  C_20
REMARK                            x       y       z     vdW  Elec       q    Type
REMARK                         _______ _______ _______ _____ _____    ______ ____
ROOT
ATOM      1  N   UNL     1       1.242   9.074  19.911  0.00  0.00    +0.000 N 
ATOM      2  C   UNL     1       1.866   8.129  19.130  0.00  0.00    +0.000 A 
ATOM      3  N   UNL     1       1.772   8.479  17.870  0.00  0.00    +0.000 NA
ATOM      4  N   UNL     1       1.070   9.662  17.811  0.00  0.00    +0.000 NA
ATOM      5  C   UNL     1       0.749  10.029  19.038  0.00  0.00    +0.000 A 
ENDROOT
BRANCH   5   6
ATOM      6  C   UNL     1       0.024  11.247  19.347  0.00  0.00    +0.000 A 
ATOM      7  N   UNL     1      -1.281  11.248  19.434  0.00  0.00    +0.000 NA
ATOM      8  N   UNL     1      -1.918  12.443  19.715  0.00  0.00    +0.000 N 
ATOM      9  C   UNL     1      -1.221  13.615  19.936  0.00  0.00    +0.000 A 
ATOM     10  C   UNL     1       0.104  13.741  19.881  0.00  0.00    +0.000 A 
ATOM     11  C   UNL     1       0.847  12.521  19.539  0.00  0.00    +0.000 A 
ATOM     12  O   UNL     1       2.055  12.575  19.367  0.00  0.00    +0.000 OA
BRANCH   8  13
ATOM     13  C   UNL     1      -3.345  12.370  19.848  0.00  0.00    +0.000 A 
ATOM     14  C   UNL     1      -3.984  12.834  21.011  0.00  0.00    +0.000 A 
ATOM     15  C   UNL     1      -5.378  12.805  21.137  0.00  0.00    +0.000 A 
ATOM     16  C   UNL     1      -6.165  12.296  20.107  0.00  0.00    +0.000 A 
ATOM     17  C   UNL     1      -5.559  11.819  18.949  0.00  0.00    +0.000 A 
ATOM     18  C   UNL     1      -4.166  11.857  18.823  0.00  0.00    +0.000 A 
ENDBRANCH   8  13
ENDBRANCH   5   6
BRANCH   1  20
ATOM     19  C   UNL     1      -0.304   8.510  21.750  0.00  0.00    +0.000 C 
ATOM     20  C   UNL     1       1.052   9.064  21.346  0.00  0.00    +0.000 C 
ENDBRANCH   1  20
BRANCH   2  21
ATOM     21  S   UNL     1       2.622   6.685  19.734  0.00  0.00    +0.000 S 
BRANCH  21  22
ATOM     22  C   UNL     1       2.342   5.520  18.356  0.00  0.00    +0.000 C 
BRANCH  22  23
ATOM     23  C   UNL     1       3.561   5.320  17.472  0.00  0.00    +0.000 A 
ATOM     24  C   UNL     1       4.399   6.398  17.151  0.00  0.00    +0.000 A 
ATOM     25  C   UNL     1       5.554   6.211  16.379  0.00  0.00    +0.000 A 
ATOM     26  C   UNL     1       5.894   4.943  15.898  0.00  0.00    +0.000 A 
ATOM     27  C   UNL     1       7.125   4.733  15.063  0.00  0.00    +0.000 C 
ATOM     28  C   UNL     1       5.059   3.864  16.210  0.00  0.00    +0.000 A 
ATOM     29  C   UNL     1       3.906   4.049  16.985  0.00  0.00    +0.000 A 
ENDBRANCH  22  23
ENDBRANCH  21  22
ENDBRANCH   2  21
TORSDOF 6
ENDMDL
MODEL 6
REMARK VINA RESULT:      -7.3      2.554      4.511
REMARK  Name = 
REMARK  8 active torsions:
REMARK  status: ('A' for Active; 'I' for Inactive)
REMARK    1  A    between atoms: C_1  and  C_2
REMARK    2  A    between atoms: C_2  and  N_3
REMARK    3  A    between atoms: C_4  and  S_5
REMARK    4  A    between atoms: S_5  and  C_6
REMARK    5  A    between atoms: C_6  and  C_7
REMARK    6  A    between atoms: C_10  and  C_11
REMARK    7  A    between atoms: C_16  and  C_17
REMARK    8  A    between atoms: N_19  and  C_20
REMARK                            x       y       z     vdW  Elec       q    Type
REMARK                         _______ _______ _______ _____ _____    ______ ____
ROOT
ATOM      1  N   UNL     1       1.638   8.684  19.546  0.00  0.00    +0.000 N 
ATOM      2  C   UNL     1       2.101   7.545  18.931  0.00  0.00    +0.000 A 
ATOM      3  N   UNL     1       2.164   7.746  17.637  0.00  0.00    +0.000 NA
ATOM      4  N   UNL     1       1.728   9.029  17.388  0.00  0.00    +0.000 NA
ATOM      5  C   UNL     1       1.412   9.602  18.535  0.00  0.00    +0.000 A 
ENDROOT
BRANCH   5   6
ATOM      6  C   UNL     1       0.937  10.969  18.644  0.00  0.00    +0.000 A 
ATOM      7  N   UNL     1       1.774  11.973  18.622  0.00  0.00    +0.000 NA
ATOM      8  N   UNL     1       1.265  13.253  18.746  0.00  0.00    +0.000 N 
ATOM      9  C   UNL     1      -0.090  13.499  18.859  0.00  0.00    +0.000 A 
ATOM     10  C   UNL     1      -1.039  12.564  18.888  0.00  0.00    +0.000 A 
ATOM     11  C   UNL     1      -0.569  11.175  18.810  0.00  0.00    +0.000 A 
ATOM     12  O   UNL     1      -1.365  10.257  18.933  0.00  0.00    +0.000 OA
BRANCH   8  13
ATOM     13  C   UNL     1       2.226  14.316  18.664  0.00  0.00    +0.000 A 
ATOM     14  C   UNL     1       1.885  15.625  19.043  0.00  0.00    +0.000 A 
ATOM     15  C   UNL     1       2.824  16.662  19.004  0.00  0.00    +0.000 A 
ATOM     16  C   UNL     1       4.124  16.416  18.571  0.00  0.00    +0.000 A 
ATOM     17  C   UNL     1       4.486  15.131  18.177  0.00  0.00    +0.000 A 
ATOM     18  C   UNL     1       3.547  14.095  18.224  0.00  0.00    +0.000 A 
ENDBRANCH   8  13
ENDBRANCH   5   6
BRANCH   1  20
ATOM     19  C   UNL     1      -0.022   8.394  21.349  0.00  0.00    +0.000 C 
ATOM     20  C   UNL     1       1.358   8.889  20.952  0.00  0.00    +0.000 C 
ENDBRANCH   1  20
BRANCH   2  21
ATOM     21  S   UNL     1       2.500   6.065  19.752  0.00  0.00    +0.000 S 
BRANCH  21  22
ATOM     22  C   UNL     1       4.298   5.952  19.452  0.00  0.00    +0.000 C 
BRANCH  22  23
ATOM     23  C   UNL     1       4.652   5.486  18.050  0.00  0.00    +0.000 A 
ATOM     24  C   UNL     1       5.226   6.371  17.124  0.00  0.00    +0.000 A 
ATOM     25  C   UNL     1       5.603   5.936  15.846  0.00  0.00    +0.000 A 
ATOM     26  C   UNL     1       5.406   4.607  15.457  0.00  0.00    +0.000 A 
ATOM     27  C   UNL     1       5.800   4.132  14.087  0.00  0.00    +0.000 C 
ATOM     28  C   UNL     1       4.829   3.720  16.374  0.00  0.00    +0.000 A 
ATOM     29  C   UNL     1       4.454   4.154  17.653  0.00  0.00    +0.000 A 
ENDBRANCH  22  23
ENDBRANCH  21  22
ENDBRANCH   2  21
TORSDOF 6
ENDMDL
MODEL 7
REMARK VINA RESULT:      -7.2      2.346      3.398
REMARK  Name = 
REMARK  8 active torsions:
REMARK  status: ('A' for Active; 'I' for Inactive)
REMARK    1  A    between atoms: C_1  and  C_2
REMARK    2  A    between atoms: C_2  and  N_3
REMARK    3  A    between atoms: C_4  and  S_5
REMARK    4  A    between atoms: S_5  and  C_6
REMARK    5  A    between atoms: C_6  and  C_7
REMARK    6  A    between atoms: C_10  and  C_11
REMARK    7  A    between atoms: C_16  and  C_17
REMARK    8  A    between atoms: N_19  and  C_20
REMARK                            x       y       z     vdW  Elec       q    Type
REMARK                         _______ _______ _______ _____ _____    ______ ____
ROOT
ATOM      1  N   UNL     1       0.438  10.646  19.830  0.00  0.00    +0.000 N 
ATOM      2  C   UNL     1       1.151   9.470  19.826  0.00  0.00    +0.000 A 
ATOM      3  N   UNL     1       1.378   9.097  21.062  0.00  0.00    +0.000 NA
ATOM      4  N   UNL     1       0.820  10.039  21.897  0.00  0.00    +0.000 NA
ATOM      5  C   UNL     1       0.249  10.976  21.161  0.00  0.00    +0.000 A 
ENDROOT
BRANCH   5   6
ATOM      6  C   UNL     1      -0.458  12.114  21.719  0.00  0.00    +0.000 A 
ATOM      7  N   UNL     1      -1.715  12.018  22.067  0.00  0.00    +0.000 NA
ATOM      8  N   UNL     1      -2.341  13.140  22.579  0.00  0.00    +0.000 N 
ATOM      9  C   UNL     1      -1.674  14.337  22.760  0.00  0.00    +0.000 A 
ATOM     10  C   UNL     1      -0.397  14.557  22.451  0.00  0.00    +0.000 A 
ATOM     11  C   UNL     1       0.321  13.422  21.856  0.00  0.00    +0.000 A 
ATOM     12  O   UNL     1       1.463  13.573  21.450  0.00  0.00    +0.000 OA
BRANCH   8  13
ATOM     13  C   UNL     1      -3.703  12.959  22.989  0.00  0.00    +0.000 A 
ATOM     14  C   UNL     1      -4.758  13.126  22.076  0.00  0.00    +0.000 A 
ATOM     15  C   UNL     1      -6.089  12.915  22.454  0.00  0.00    +0.000 A 
ATOM     16  C   UNL     1      -6.397  12.545  23.760  0.00  0.00    +0.000 A 
ATOM     17  C   UNL     1      -5.374  12.383  24.690  0.00  0.00    +0.000 A 
ATOM     18  C   UNL     1      -4.044  12.588  24.306  0.00  0.00    +0.000 A 
ENDBRANCH   8  13
ENDBRANCH   5   6
BRANCH   1  20
ATOM     19  C   UNL     1      -1.349  11.051  18.177  0.00  0.00    +0.000 C 
ATOM     20  C   UNL     1       0.024  11.444  18.695  0.00  0.00    +0.000 C 
ENDBRANCH   1  20
BRANCH   2  21
ATOM     21  S   UNL     1       1.691   8.642  18.396  0.00  0.00    +0.000 S 
BRANCH  21  22
ATOM     22  C   UNL     1       2.446   7.138  19.105  0.00  0.00    +0.000 C 
BRANCH  22  23
ATOM     23  C   UNL     1       3.281   6.350  18.111  0.00  0.00    +0.000 A 
ATOM     24  C   UNL     1       4.227   6.994  17.299  0.00  0.00    +0.000 A 
ATOM     25  C   UNL     1       5.037   6.267  16.416  0.00  0.00    +0.000 A 
ATOM     26  C   UNL     1       4.916   4.878  16.315  0.00  0.00    +0.000 A 
ATOM     27  C   UNL     1       5.774   4.089  15.367  0.00  0.00    +0.000 C 
ATOM     28  C   UNL     1       3.970   4.229  17.118  0.00  0.00    +0.000 A 
ATOM     29  C   UNL     1       3.161   4.956  18.003  0.00  0.00    +0.000 A 
ENDBRANCH  22  23
ENDBRANCH  21  22
ENDBRANCH   2  21
TORSDOF 6
ENDMDL
MODEL 8
REMARK VINA RESULT:      -7.2      2.625      4.479
REMARK  Name = 
REMARK  8 active torsions:
REMARK  status: ('A' for Active; 'I' for Inactive)
REMARK    1  A    between atoms: C_1  and  C_2
REMARK    2  A    between atoms: C_2  and  N_3
REMARK    3  A    between atoms: C_4  and  S_5
REMARK    4  A    between atoms: S_5  and  C_6
REMARK    5  A    between atoms: C_6  and  C_7
REMARK    6  A    between atoms: C_10  and  C_11
REMARK    7  A    between atoms: C_16  and  C_17
REMARK    8  A    between atoms: N_19  and  C_20
REMARK                            x       y       z     vdW  Elec       q    Type
REMARK                         _______ _______ _______ _____ _____    ______ ____
ROOT
ATOM      1  N   UNL     1       1.369   8.875  19.994  0.00  0.00    +0.000 N 
ATOM      2  C   UNL     1       1.872   7.670  19.562  0.00  0.00    +0.000 A 
ATOM      3  N   UNL     1       2.062   7.720  18.266  0.00  0.00    +0.000 NA
ATOM      4  N   UNL     1       1.672   8.966  17.829  0.00  0.00    +0.000 NA
ATOM      5  C   UNL     1       1.254   9.670  18.866  0.00  0.00    +0.000 A 
ENDROOT
BRANCH   5   6
ATOM      6  C   UNL     1       0.791  11.042  18.771  0.00  0.00    +0.000 A 
ATOM      7  N   UNL     1       1.640  12.034  18.715  0.00  0.00    +0.000 NA
ATOM      8  N   UNL     1       1.140  13.322  18.640  0.00  0.00    +0.000 N 
ATOM      9  C   UNL     1      -0.215  13.583  18.591  0.00  0.00    +0.000 A 
ATOM     10  C   UNL     1      -1.176  12.661  18.635  0.00  0.00    +0.000 A 
ATOM     11  C   UNL     1      -0.721  11.270  18.763  0.00  0.00    +0.000 A 
ATOM     12  O   UNL     1      -1.539  10.376  18.913  0.00  0.00    +0.000 OA
BRANCH   8  13
ATOM     13  C   UNL     1       2.120  14.364  18.531  0.00  0.00    +0.000 A 
ATOM     14  C   UNL     1       1.750  15.714  18.645  0.00  0.00    +0.000 A 
ATOM     15  C   UNL     1       2.701  16.739  18.578  0.00  0.00    +0.000 A 
ATOM     16  C   UNL     1       4.046  16.436  18.382  0.00  0.00    +0.000 A 
ATOM     17  C   UNL     1       4.440  15.108  18.253  0.00  0.00    +0.000 A 
ATOM     18  C   UNL     1       3.487  14.086  18.328  0.00  0.00    +0.000 A 
ENDBRANCH   8  13
ENDBRANCH   5   6
BRANCH   1  20
ATOM     19  C   UNL     1      -0.421   8.710  21.685  0.00  0.00    +0.000 C 
ATOM     20  C   UNL     1       0.957   9.243  21.332  0.00  0.00    +0.000 C 
ENDBRANCH   1  20
BRANCH   2  21
ATOM     21  S   UNL     1       2.169   6.294  20.583  0.00  0.00    +0.000 S 
BRANCH  21  22
ATOM     22  C   UNL     1       2.206   4.934  19.366  0.00  0.00    +0.000 C 
BRANCH  22  23
ATOM     23  C   UNL     1       3.516   4.837  18.603  0.00  0.00    +0.000 A 
ATOM     24  C   UNL     1       4.718   5.270  19.183  0.00  0.00    +0.000 A 
ATOM     25  C   UNL     1       5.937   5.136  18.505  0.00  0.00    +0.000 A 
ATOM     26  C   UNL     1       5.986   4.575  17.226  0.00  0.00    +0.000 A 
ATOM     27  C   UNL     1       7.286   4.433  16.487  0.00  0.00    +0.000 C 
ATOM     28  C   UNL     1       4.789   4.146  16.638  0.00  0.00    +0.000 A 
ATOM     29  C   UNL     1       3.570   4.277  17.317  0.00  0.00    +0.000 A 
ENDBRANCH  22  23
ENDBRANCH  21  22
ENDBRANCH   2  21
TORSDOF 6
ENDMDL
MODEL 9
REMARK VINA RESULT:      -7.2      2.764      4.005
REMARK  Name = 
REMARK  8 active torsions:
REMARK  status: ('A' for Active; 'I' for Inactive)
REMARK    1  A    between atoms: C_1  and  C_2
REMARK    2  A    between atoms: C_2  and  N_3
REMARK    3  A    between atoms: C_4  and  S_5
REMARK    4  A    between atoms: S_5  and  C_6
REMARK    5  A    between atoms: C_6  and  C_7
REMARK    6  A    between atoms: C_10  and  C_11
REMARK    7  A    between atoms: C_16  and  C_17
REMARK    8  A    between atoms: N_19  and  C_20
REMARK                            x       y       z     vdW  Elec       q    Type
REMARK                         _______ _______ _______ _____ _____    ______ ____
ROOT
ATOM      1  N   UNL     1       0.158  10.804  19.906  0.00  0.00    +0.000 N 
ATOM      2  C   UNL     1       0.866   9.625  19.921  0.00  0.00    +0.000 A 
ATOM      3  N   UNL     1       0.937   9.179  21.151  0.00  0.00    +0.000 NA
ATOM      4  N   UNL     1       0.279  10.074  21.964  0.00  0.00    +0.000 NA
ATOM      5  C   UNL     1      -0.196  11.057  21.220  0.00  0.00    +0.000 A 
ENDROOT
BRANCH   5   6
ATOM      6  C   UNL     1      -0.967  12.165  21.751  0.00  0.00    +0.000 A 
ATOM      7  N   UNL     1      -2.263  12.070  21.901  0.00  0.00    +0.000 NA
ATOM      8  N   UNL     1      -2.947  13.164  22.397  0.00  0.00    +0.000 N 
ATOM      9  C   UNL     1      -2.303  14.330  22.766  0.00  0.00    +0.000 A 
ATOM     10  C   UNL     1      -0.992  14.546  22.667  0.00  0.00    +0.000 A 
ATOM     11  C   UNL     1      -0.205  13.443  22.101  0.00  0.00    +0.000 A 
ATOM     12  O   UNL     1       0.986  13.599  21.882  0.00  0.00    +0.000 OA
BRANCH   8  13
ATOM     13  C   UNL     1      -4.358  12.982  22.586  0.00  0.00    +0.000 A 
ATOM     14  C   UNL     1      -5.204  12.736  21.492  0.00  0.00    +0.000 A 
ATOM     15  C   UNL     1      -6.576  12.518  21.667  0.00  0.00    +0.000 A 
ATOM     16  C   UNL     1      -7.135  12.556  22.941  0.00  0.00    +0.000 A 
ATOM     17  C   UNL     1      -6.323  12.809  24.042  0.00  0.00    +0.000 A 
ATOM     18  C   UNL     1      -4.951  13.019  23.864  0.00  0.00    +0.000 A 
ENDBRANCH   8  13
ENDBRANCH   5   6
BRANCH   1  20
ATOM     19  C   UNL     1       0.970  12.717  18.574  0.00  0.00    +0.000 C 
ATOM     20  C   UNL     1      -0.112  11.670  18.777  0.00  0.00    +0.000 C 
ENDBRANCH   1  20
BRANCH   2  21
ATOM     21  S   UNL     1       1.581   8.878  18.523  0.00  0.00    +0.000 S 
BRANCH  21  22
ATOM     22  C   UNL     1       2.720   7.675  19.290  0.00  0.00    +0.000 C 
BRANCH  22  23
ATOM     23  C   UNL     1       2.242   6.237  19.192  0.00  0.00    +0.000 A 
ATOM     24  C   UNL     1       1.763   5.561  20.325  0.00  0.00    +0.000 A 
ATOM     25  C   UNL     1       1.273   4.251  20.231  0.00  0.00    +0.000 A 
ATOM     26  C   UNL     1       1.258   3.579  19.006  0.00  0.00    +0.000 A 
ATOM     27  C   UNL     1       0.742   2.173  18.896  0.00  0.00    +0.000 C 
ATOM     28  C   UNL     1       1.740   4.246  17.872  0.00  0.00    +0.000 A 
ATOM     29  C   UNL     1       2.228   5.557  17.964  0.00  0.00    +0.000 A 
ENDBRANCH  22  23
ENDBRANCH  21  22
ENDBRANCH   2  21
TORSDOF 6
ENDMDL
