MODEL 1
REMARK VINA RESULT:      -7.0      0.000      0.000
REMARK  Name = 
REMARK  5 active torsions:
REMARK  status: ('A' for Active; 'I' for Inactive)
REMARK    1  A    between atoms: C_1  and  C_2
REMARK    2  A    between atoms: C_4  and  C_5
REMARK    3  A    between atoms: N_7  and  C_8
REMARK    4  A    between atoms: C_8  and  C_9
REMARK    5  A    between atoms: C_8  and  C_10
REMARK                            x       y       z     vdW  Elec       q    Type
REMARK                         _______ _______ _______ _____ _____    ______ ____
ROOT
ATOM      1  C   UNL     1       5.237   4.245  18.493  0.00  0.00    +0.000 C 
ATOM      2  O   UNL     1       6.073   4.194  19.394  0.00  0.00    +0.000 OA
ATOM      3  N   UNL     1       5.554   4.657  17.219  0.00  0.00    +0.000 N 
ATOM      4  H   UNL     1       4.829   4.734  16.517  0.00  0.00    +0.000 HD
ENDROOT
BRANCH   1   8
ATOM      5  C   UNL     1       1.540   2.654  21.584  0.00  0.00    +0.000 C 
ATOM      6  C   UNL     1       2.034   3.059  20.228  0.00  0.00    +0.000 A 
ATOM      7  C   UNL     1       3.364   3.476  20.039  0.00  0.00    +0.000 A 
ATOM      8  C   UNL     1       3.824   3.841  18.761  0.00  0.00    +0.000 A 
ATOM      9  C   UNL     1       2.933   3.798  17.677  0.00  0.00    +0.000 A 
ATOM     10  C   UNL     1       1.609   3.393  17.863  0.00  0.00    +0.000 A 
ATOM     11  C   UNL     1       1.173   3.021  19.130  0.00  0.00    +0.000 A 
ATOM     12  F   UNL     1      -0.096   2.619  19.290  0.00  0.00    +0.000 F 
ENDBRANCH   1   8
BRANCH   3  13
ATOM     13  C   UNL     1       6.911   5.052  16.823  0.00  0.00    +0.000 C 
ATOM     14  C   UNL     1       7.058   5.055  15.297  0.00  0.00    +0.000 C 
BRANCH  13  15
ATOM     15  C   UNL     1       7.301   6.456  17.350  0.00  0.00    +0.000 C 
ATOM     16  N   UNL     1       7.921   6.566  18.555  0.00  0.00    +0.000 N 
ATOM     17  O   UNL     1       7.123   7.486  16.698  0.00  0.00    +0.000 OA
ATOM     18  H   UNL     1       8.113   5.778  19.179  0.00  0.00    +0.000 HD
ATOM     19  H   UNL     1       8.154   7.494  18.860  0.00  0.00    +0.000 HD
ENDBRANCH  13  15
ENDBRANCH   3  13
TORSDOF 3
ENDMDL
MODEL 2
REMARK VINA RESULT:      -6.9      1.871      2.121
REMARK  Name = 
REMARK  5 active torsions:
REMARK  status: ('A' for Active; 'I' for Inactive)
REMARK    1  A    between atoms: C_1  and  C_2
REMARK    2  A    between atoms: C_4  and  C_5
REMARK    3  A    between atoms: N_7  and  C_8
REMARK    4  A    between atoms: C_8  and  C_9
REMARK    5  A    between atoms: C_8  and  C_10
REMARK                            x       y       z     vdW  Elec       q    Type
REMARK                         _______ _______ _______ _____ _____    ______ ____
ROOT
ATOM      1  C   UNL     1       4.404   4.504  16.845  0.00  0.00    +0.000 C 
ATOM      2  O   UNL     1       4.651   5.674  16.558  0.00  0.00    +0.000 OA
ATOM      3  N   UNL     1       5.148   3.455  16.357  0.00  0.00    +0.000 N 
ATOM      4  H   UNL     1       4.884   2.503  16.575  0.00  0.00    +0.000 HD
ENDROOT
BRANCH   1   8
ATOM      5  C   UNL     1       1.462   5.508  20.857  0.00  0.00    +0.000 C 
ATOM      6  C   UNL     1       1.853   4.638  19.700  0.00  0.00    +0.000 A 
ATOM      7  C   UNL     1       2.900   5.011  18.838  0.00  0.00    +0.000 A 
ATOM      8  C   UNL     1       3.269   4.183  17.763  0.00  0.00    +0.000 A 
ATOM      9  C   UNL     1       2.569   2.985  17.552  0.00  0.00    +0.000 A 
ATOM     10  C   UNL     1       1.522   2.615  18.401  0.00  0.00    +0.000 A 
ATOM     11  C   UNL     1       1.178   3.437  19.468  0.00  0.00    +0.000 A 
ATOM     12  F   UNL     1       0.182   3.063  20.284  0.00  0.00    +0.000 F 
ENDBRANCH   1   8
BRANCH   3  13
ATOM     13  C   UNL     1       6.303   3.642  15.471  0.00  0.00    +0.000 C 
ATOM     14  C   UNL     1       5.863   4.182  14.105  0.00  0.00    +0.000 C 
BRANCH  13  15
ATOM     15  C   UNL     1       7.357   4.613  16.060  0.00  0.00    +0.000 C 
ATOM     16  N   UNL     1       7.515   5.842  15.501  0.00  0.00    +0.000 N 
ATOM     17  O   UNL     1       8.029   4.343  17.057  0.00  0.00    +0.000 OA
ATOM     18  H   UNL     1       7.013   6.167  14.670  0.00  0.00    +0.000 HD
ATOM     19  H   UNL     1       8.211   6.438  15.912  0.00  0.00    +0.000 HD
ENDBRANCH  13  15
ENDBRANCH   3  13
TORSDOF 3
ENDMDL
MODEL 3
REMARK VINA RESULT:      -6.9      1.501      1.853
REMARK  Name = 
REMARK  5 active torsions:
REMARK  status: ('A' for Active; 'I' for Inactive)
REMARK    1  A    between atoms: C_1  and  C_2
REMARK    2  A    between atoms: C_4  and  C_5
REMARK    3  A    between atoms: N_7  and  C_8
REMARK    4  A    between atoms: C_8  and  C_9
REMARK    5  A    between atoms: C_8  and  C_10
REMARK                            x       y       z     vdW  Elec       q    Type
REMARK                         _______ _______ _______ _____ _____    ______ ____
ROOT
ATOM      1  C   UNL     1       4.350   5.697  18.382  0.00  0.00    +0.000 C 
ATOM      2  O   UNL     1       4.166   6.775  17.820  0.00  0.00    +0.000 OA
ATOM      3  N   UNL     1       5.608   5.235  18.695  0.00  0.00    +0.000 N 
ATOM      4  H   UNL     1       5.722   4.320  19.111  0.00  0.00    +0.000 HD
ENDROOT
BRANCH   1   8
ATOM      5  C   UNL     1       1.713   2.927  21.719  0.00  0.00    +0.000 C 
ATOM      6  C   UNL     1       1.908   3.489  20.343  0.00  0.00    +0.000 A 
ATOM      7  C   UNL     1       3.000   4.328  20.054  0.00  0.00    +0.000 A 
ATOM      8  C   UNL     1       3.184   4.842  18.758  0.00  0.00    +0.000 A 
ATOM      9  C   UNL     1       2.254   4.517  17.757  0.00  0.00    +0.000 A 
ATOM     10  C   UNL     1       1.163   3.691  18.043  0.00  0.00    +0.000 A 
ATOM     11  C   UNL     1       1.003   3.179  19.326  0.00  0.00    +0.000 A 
ATOM     12  F   UNL     1      -0.039   2.375  19.581  0.00  0.00    +0.000 F 
ENDBRANCH   1   8
BRANCH   3  13
ATOM     13  C   UNL     1       6.830   5.994  18.403  0.00  0.00    +0.000 C 
ATOM     14  C   UNL     1       7.893   5.755  19.481  0.00  0.00    +0.000 C 
BRANCH  13  15
ATOM     15  C   UNL     1       7.444   5.631  17.027  0.00  0.00    +0.000 C 
ATOM     16  N   UNL     1       7.810   4.346  16.780  0.00  0.00    +0.000 N 
ATOM     17  O   UNL     1       7.568   6.450  16.115  0.00  0.00    +0.000 OA
ATOM     18  H   UNL     1       7.755   3.588  17.466  0.00  0.00    +0.000 HD
ATOM     19  H   UNL     1       8.207   4.155  15.878  0.00  0.00    +0.000 HD
ENDBRANCH  13  15
ENDBRANCH   3  13
TORSDOF 3
ENDMDL
MODEL 4
REMARK VINA RESULT:      -6.7      1.233      1.263
REMARK  Name = 
REMARK  5 active torsions:
REMARK  status: ('A' for Active; 'I' for Inactive)
REMARK    1  A    between atoms: C_1  and  C_2
REMARK    2  A    between atoms: C_4  and  C_5
REMARK    3  A    between atoms: N_7  and  C_8
REMARK    4  A    between atoms: C_8  and  C_9
REMARK    5  A    between atoms: C_8  and  C_10
REMARK                            x       y       z     vdW  Elec       q    Type
REMARK                         _______ _______ _______ _____ _____    ______ ____
ROOT
ATOM      1  C   UNL     1       4.912   4.997  18.270  0.00  0.00    +0.000 C 
ATOM      2  O   UNL     1       4.961   6.190  17.975  0.00  0.00    +0.000 OA
ATOM      3  N   UNL     1       6.026   4.190  18.260  0.00  0.00    +0.000 N 
ATOM      4  H   UNL     1       5.938   3.202  18.459  0.00  0.00    +0.000 HD
ENDROOT
BRANCH   1   8
ATOM      5  C   UNL     1       1.845   2.800  21.665  0.00  0.00    +0.000 C 
ATOM      6  C   UNL     1       2.125   3.303  20.281  0.00  0.00    +0.000 A 
ATOM      7  C   UNL     1       3.350   3.921  19.971  0.00  0.00    +0.000 A 
ATOM      8  C   UNL     1       3.611   4.378  18.667  0.00  0.00    +0.000 A 
ATOM      9  C   UNL     1       2.626   4.223  17.680  0.00  0.00    +0.000 A 
ATOM     10  C   UNL     1       1.403   3.618  17.986  0.00  0.00    +0.000 A 
ATOM     11  C   UNL     1       1.166   3.158  19.276  0.00  0.00    +0.000 A 
ATOM     12  F   UNL     1      -0.005   2.565  19.552  0.00  0.00    +0.000 F 
ENDBRANCH   1   8
BRANCH   3  13
ATOM     13  C   UNL     1       7.364   4.685  17.914  0.00  0.00    +0.000 C 
ATOM     14  C   UNL     1       7.385   5.264  16.495  0.00  0.00    +0.000 C 
BRANCH  13  15
ATOM     15  C   UNL     1       7.867   5.779  18.891  0.00  0.00    +0.000 C 
ATOM     16  N   UNL     1       8.140   5.446  20.180  0.00  0.00    +0.000 N 
ATOM     17  O   UNL     1       8.084   6.939  18.538  0.00  0.00    +0.000 OA
ATOM     18  H   UNL     1       7.992   4.515  20.579  0.00  0.00    +0.000 HD
ATOM     19  H   UNL     1       8.460   6.185  20.779  0.00  0.00    +0.000 HD
ENDBRANCH  13  15
ENDBRANCH   3  13
TORSDOF 3
ENDMDL
MODEL 5
REMARK VINA RESULT:      -6.7      1.940      2.654
REMARK  Name = 
REMARK  5 active torsions:
REMARK  status: ('A' for Active; 'I' for Inactive)
REMARK    1  A    between atoms: C_1  and  C_2
REMARK    2  A    between atoms: C_4  and  C_5
REMARK    3  A    between atoms: N_7  and  C_8
REMARK    4  A    between atoms: C_8  and  C_9
REMARK    5  A    between atoms: C_8  and  C_10
REMARK                            x       y       z     vdW  Elec       q    Type
REMARK                         _______ _______ _______ _____ _____    ______ ____
ROOT
ATOM      1  C   UNL     1       4.060   5.938  17.769  0.00  0.00    +0.000 C 
ATOM      2  O   UNL     1       3.759   7.095  17.480  0.00  0.00    +0.000 OA
ATOM      3  N   UNL     1       5.201   5.335  17.294  0.00  0.00    +0.000 N 
ATOM      4  H   UNL     1       5.390   4.365  17.512  0.00  0.00    +0.000 HD
ENDROOT
BRANCH   1   8
ATOM      5  C   UNL     1       0.745   2.194  18.637  0.00  0.00    +0.000 C 
ATOM      6  C   UNL     1       1.568   3.355  19.109  0.00  0.00    +0.000 A 
ATOM      7  C   UNL     1       2.419   4.044  18.226  0.00  0.00    +0.000 A 
ATOM      8  C   UNL     1       3.178   5.140  18.673  0.00  0.00    +0.000 A 
ATOM      9  C   UNL     1       3.086   5.530  20.018  0.00  0.00    +0.000 A 
ATOM     10  C   UNL     1       2.249   4.843  20.901  0.00  0.00    +0.000 A 
ATOM     11  C   UNL     1       1.494   3.770  20.441  0.00  0.00    +0.000 A 
ATOM     12  F   UNL     1       0.683   3.130  21.295  0.00  0.00    +0.000 F 
ENDBRANCH   1   8
BRANCH   3  13
ATOM     13  C   UNL     1       6.161   6.022  16.422  0.00  0.00    +0.000 C 
ATOM     14  C   UNL     1       7.293   6.653  17.241  0.00  0.00    +0.000 C 
BRANCH  13  15
ATOM     15  C   UNL     1       6.794   5.077  15.369  0.00  0.00    +0.000 C 
ATOM     16  N   UNL     1       6.249   3.849  15.164  0.00  0.00    +0.000 N 
ATOM     17  O   UNL     1       7.748   5.409  14.662  0.00  0.00    +0.000 OA
ATOM     18  H   UNL     1       5.461   3.471  15.697  0.00  0.00    +0.000 HD
ATOM     19  H   UNL     1       6.692   3.267  14.476  0.00  0.00    +0.000 HD
ENDBRANCH  13  15
ENDBRANCH   3  13
TORSDOF 3
ENDMDL
MODEL 6
REMARK VINA RESULT:      -6.7      1.967      2.330
REMARK  Name = 
REMARK  5 active torsions:
REMARK  status: ('A' for Active; 'I' for Inactive)
REMARK    1  A    between atoms: C_1  and  C_2
REMARK    2  A    between atoms: C_4  and  C_5
REMARK    3  A    between atoms: N_7  and  C_8
REMARK    4  A    between atoms: C_8  and  C_9
REMARK    5  A    between atoms: C_8  and  C_10
REMARK                            x       y       z     vdW  Elec       q    Type
REMARK                         _______ _______ _______ _____ _____    ______ ____
ROOT
ATOM      1  C   UNL     1       4.558   4.807  16.842  0.00  0.00    +0.000 C 
ATOM      2  O   UNL     1       4.922   5.937  16.519  0.00  0.00    +0.000 OA
ATOM      3  N   UNL     1       5.111   3.673  16.295  0.00  0.00    +0.000 N 
ATOM      4  H   UNL     1       4.751   2.762  16.548  0.00  0.00    +0.000 HD
ENDROOT
BRANCH   1   8
ATOM      5  C   UNL     1       0.642   2.279  18.849  0.00  0.00    +0.000 C 
ATOM      6  C   UNL     1       1.590   3.440  18.842  0.00  0.00    +0.000 A 
ATOM      7  C   UNL     1       2.611   3.533  17.879  0.00  0.00    +0.000 A 
ATOM      8  C   UNL     1       3.488   4.632  17.870  0.00  0.00    +0.000 A 
ATOM      9  C   UNL     1       3.341   5.630  18.846  0.00  0.00    +0.000 A 
ATOM     10  C   UNL     1       2.334   5.537  19.810  0.00  0.00    +0.000 A 
ATOM     11  C   UNL     1       1.465   4.451  19.797  0.00  0.00    +0.000 A 
ATOM     12  F   UNL     1       0.493   4.383  20.718  0.00  0.00    +0.000 F 
ENDBRANCH   1   8
BRANCH   3  13
ATOM     13  C   UNL     1       6.187   3.712  15.297  0.00  0.00    +0.000 C 
ATOM     14  C   UNL     1       5.648   4.134  13.926  0.00  0.00    +0.000 C 
BRANCH  13  15
ATOM     15  C   UNL     1       7.329   4.684  15.689  0.00  0.00    +0.000 C 
ATOM     16  N   UNL     1       7.913   4.567  16.911  0.00  0.00    +0.000 N 
ATOM     17  O   UNL     1       7.775   5.534  14.917  0.00  0.00    +0.000 OA
ATOM     18  H   UNL     1       7.619   3.901  17.630  0.00  0.00    +0.000 HD
ATOM     19  H   UNL     1       8.646   5.219  17.125  0.00  0.00    +0.000 HD
ENDBRANCH  13  15
ENDBRANCH   3  13
TORSDOF 3
ENDMDL
MODEL 7
REMARK VINA RESULT:      -6.7      1.309      1.803
REMARK  Name = 
REMARK  5 active torsions:
REMARK  status: ('A' for Active; 'I' for Inactive)
REMARK    1  A    between atoms: C_1  and  C_2
REMARK    2  A    between atoms: C_4  and  C_5
REMARK    3  A    between atoms: N_7  and  C_8
REMARK    4  A    between atoms: C_8  and  C_9
REMARK    5  A    between atoms: C_8  and  C_10
REMARK                            x       y       z     vdW  Elec       q    Type
REMARK                         _______ _______ _______ _____ _____    ______ ____
ROOT
ATOM      1  C   UNL     1       4.923   4.846  18.429  0.00  0.00    +0.000 C 
ATOM      2  O   UNL     1       5.548   5.497  19.264  0.00  0.00    +0.000 OA
ATOM      3  N   UNL     1       5.412   4.608  17.165  0.00  0.00    +0.000 N 
ATOM      4  H   UNL     1       4.847   4.112  16.488  0.00  0.00    +0.000 HD
ENDROOT
BRANCH   1   8
ATOM      5  C   UNL     1       1.683   2.670  21.674  0.00  0.00    +0.000 C 
ATOM      6  C   UNL     1       2.018   3.209  20.316  0.00  0.00    +0.000 A 
ATOM      7  C   UNL     1       3.276   3.782  20.055  0.00  0.00    +0.000 A 
ATOM      8  C   UNL     1       3.587   4.273  18.775  0.00  0.00    +0.000 A 
ATOM      9  C   UNL     1       2.618   4.198  17.762  0.00  0.00    +0.000 A 
ATOM     10  C   UNL     1       1.364   3.639  18.019  0.00  0.00    +0.000 A 
ATOM     11  C   UNL     1       1.076   3.144  19.286  0.00  0.00    +0.000 A 
ATOM     12  F   UNL     1      -0.126   2.595  19.514  0.00  0.00    +0.000 F 
ENDBRANCH   1   8
BRANCH   3  13
ATOM     13  C   UNL     1       6.722   5.093  16.714  0.00  0.00    +0.000 C 
ATOM     14  C   UNL     1       7.850   4.488  17.557  0.00  0.00    +0.000 C 
BRANCH  13  15
ATOM     15  C   UNL     1       7.000   4.764  15.225  0.00  0.00    +0.000 C 
ATOM     16  N   UNL     1       6.388   3.692  14.654  0.00  0.00    +0.000 N 
ATOM     17  O   UNL     1       7.716   5.467  14.509  0.00  0.00    +0.000 OA
ATOM     18  H   UNL     1       5.779   3.041  15.157  0.00  0.00    +0.000 HD
ATOM     19  H   UNL     1       6.599   3.513  13.689  0.00  0.00    +0.000 HD
ENDBRANCH  13  15
ENDBRANCH   3  13
TORSDOF 3
ENDMDL
MODEL 8
REMARK VINA RESULT:      -6.7      1.802      2.469
REMARK  Name = 
REMARK  5 active torsions:
REMARK  status: ('A' for Active; 'I' for Inactive)
REMARK    1  A    between atoms: C_1  and  C_2
REMARK    2  A    between atoms: C_4  and  C_5
REMARK    3  A    between atoms: N_7  and  C_8
REMARK    4  A    between atoms: C_8  and  C_9
REMARK    5  A    between atoms: C_8  and  C_10
REMARK                            x       y       z     vdW  Elec       q    Type
REMARK                         _______ _______ _______ _____ _____    ______ ____
ROOT
ATOM      1  C   UNL     1       4.587   4.926  17.349  0.00  0.00    +0.000 C 
ATOM      2  O   UNL     1       4.564   4.468  16.207  0.00  0.00    +0.000 OA
ATOM      3  N   UNL     1       5.523   5.852  17.750  0.00  0.00    +0.000 N 
ATOM      4  H   UNL     1       5.542   6.168  18.711  0.00  0.00    +0.000 HD
ENDROOT
BRANCH   1   8
ATOM      5  C   UNL     1       0.586   2.136  18.748  0.00  0.00    +0.000 C 
ATOM      6  C   UNL     1       1.634   3.167  19.040  0.00  0.00    +0.000 A 
ATOM      7  C   UNL     1       2.598   3.510  18.075  0.00  0.00    +0.000 A 
ATOM      8  C   UNL     1       3.571   4.488  18.351  0.00  0.00    +0.000 A 
ATOM      9  C   UNL     1       3.575   5.108  19.610  0.00  0.00    +0.000 A 
ATOM     10  C   UNL     1       2.624   4.764  20.575  0.00  0.00    +0.000 A 
ATOM     11  C   UNL     1       1.660   3.805  20.282  0.00  0.00    +0.000 A 
ATOM     12  F   UNL     1       0.744   3.497  21.211  0.00  0.00    +0.000 F 
ENDBRANCH   1   8
BRANCH   3  13
ATOM     13  C   UNL     1       6.556   6.381  16.851  0.00  0.00    +0.000 C 
ATOM     14  C   UNL     1       7.540   7.276  17.614  0.00  0.00    +0.000 C 
BRANCH  13  15
ATOM     15  C   UNL     1       7.364   5.263  16.146  0.00  0.00    +0.000 C 
ATOM     16  N   UNL     1       7.426   5.240  14.789  0.00  0.00    +0.000 N 
ATOM     17  O   UNL     1       8.007   4.413  16.766  0.00  0.00    +0.000 OA
ATOM     18  H   UNL     1       6.928   5.894  14.178  0.00  0.00    +0.000 HD
ATOM     19  H   UNL     1       7.958   4.497  14.373  0.00  0.00    +0.000 HD
ENDBRANCH  13  15
ENDBRANCH   3  13
TORSDOF 3
ENDMDL
MODEL 9
REMARK VINA RESULT:      -6.6      3.657      6.590
REMARK  Name = 
REMARK  5 active torsions:
REMARK  status: ('A' for Active; 'I' for Inactive)
REMARK    1  A    between atoms: C_1  and  C_2
REMARK    2  A    between atoms: C_4  and  C_5
REMARK    3  A    between atoms: N_7  and  C_8
REMARK    4  A    between atoms: C_8  and  C_9
REMARK    5  A    between atoms: C_8  and  C_10
REMARK                            x       y       z     vdW  Elec       q    Type
REMARK                         _______ _______ _______ _____ _____    ______ ____
ROOT
ATOM      1  C   UNL     1       5.458   4.202  16.609  0.00  0.00    +0.000 C 
ATOM      2  O   UNL     1       6.243   4.393  17.536  0.00  0.00    +0.000 OA
ATOM      3  N   UNL     1       4.126   3.926  16.817  0.00  0.00    +0.000 N 
ATOM      4  H   UNL     1       3.522   3.726  16.032  0.00  0.00    +0.000 HD
ENDROOT
BRANCH   1   8
ATOM      5  C   UNL     1       5.108   3.015  11.687  0.00  0.00    +0.000 C 
ATOM      6  C   UNL     1       5.798   3.704  12.825  0.00  0.00    +0.000 A 
ATOM      7  C   UNL     1       5.277   3.640  14.130  0.00  0.00    +0.000 A 
ATOM      8  C   UNL     1       5.938   4.278  15.196  0.00  0.00    +0.000 A 
ATOM      9  C   UNL     1       7.118   4.993  14.937  0.00  0.00    +0.000 A 
ATOM     10  C   UNL     1       7.633   5.067  13.640  0.00  0.00    +0.000 A 
ATOM     11  C   UNL     1       6.976   4.418  12.599  0.00  0.00    +0.000 A 
ATOM     12  F   UNL     1       7.491   4.484  11.363  0.00  0.00    +0.000 F 
ENDBRANCH   1   8
BRANCH   3  13
ATOM     13  C   UNL     1       3.529   3.853  18.156  0.00  0.00    +0.000 C 
ATOM     14  C   UNL     1       2.010   4.052  18.090  0.00  0.00    +0.000 C 
BRANCH  13  15
ATOM     15  C   UNL     1       3.809   2.502  18.862  0.00  0.00    +0.000 C 
ATOM     16  N   UNL     1       4.880   2.394  19.692  0.00  0.00    +0.000 N 
ATOM     17  O   UNL     1       3.069   1.523  18.747  0.00  0.00    +0.000 OA
ATOM     18  H   UNL     1       5.561   3.141  19.855  0.00  0.00    +0.000 HD
ATOM     19  H   UNL     1       5.027   1.501  20.126  0.00  0.00    +0.000 HD
ENDBRANCH  13  15
ENDBRANCH   3  13
TORSDOF 3
ENDMDL
