MODEL 1
REMARK VINA RESULT:      -6.9      0.000      0.000
REMARK  Name = 
REMARK  20 active torsions:
REMARK  status: ('A' for Active; 'I' for Inactive)
REMARK    1  A    between atoms: C_1  and  C_2
REMARK    2  A    between atoms: C_2  and  O_3
REMARK    3  A    between atoms: O_3  and  C_4
REMARK    4  A    between atoms: C_4  and  C_6
REMARK    5  A    between atoms: C_6  and  C_7
REMARK    6  A    between atoms: C_7  and  C_8
REMARK    7  A    between atoms: C_8  and  N_9
REMARK    8  A    between atoms: C_8  and  C_28
REMARK    9  A    between atoms: C_10  and  C_12
REMARK   10  A    between atoms: C_12  and  N_13
REMARK   11  A    between atoms: C_12  and  C_14
REMARK   12  A    between atoms: C_14  and  C_15
REMARK   13  A    between atoms: C_18  and  N_19
REMARK   14  A    between atoms: N_19  and  C_20
REMARK   15  A    between atoms: N_19  and  C_23
REMARK   16  A    between atoms: C_20  and  C_21
REMARK   17  A    between atoms: C_23  and  C_24
REMARK   18  A    between atoms: C_28  and  O_30
REMARK   19  A    between atoms: O_30  and  C_31
REMARK   20  A    between atoms: C_31  and  C_32
REMARK                            x       y       z     vdW  Elec       q    Type
REMARK                         _______ _______ _______ _____ _____    ______ ____
ROOT
ATOM      1  C   UNL     1       2.580   4.778  17.691  0.00  0.00    +0.000 C 
ENDROOT
BRANCH   1   3
ATOM      2  N   UNL     1       4.858   4.646  16.761  0.00  0.00    +0.000 N 
ATOM      3  C   UNL     1       3.787   3.928  17.244  0.00  0.00    +0.000 C 
ATOM      4  O   UNL     1       3.840   2.718  17.443  0.00  0.00    +0.000 OA
ATOM      5  H   UNL     1       4.725   5.608  16.481  0.00  0.00    +0.000 HD
BRANCH   2   6
ATOM      6  C   UNL     1       6.057   4.000  16.237  0.00  0.00    +0.000 C 
BRANCH   6   7
ATOM      7  C   UNL     1       6.311   4.345  14.760  0.00  0.00    +0.000 C 
ATOM      8  O   UNL     1       6.674   5.444  14.377  0.00  0.00    +0.000 OA
BRANCH   7   9
ATOM      9  O   UNL     1       5.936   3.314  13.939  0.00  0.00    +0.000 OA
BRANCH   9  10
ATOM     10  C   UNL     1       5.678   3.684  12.577  0.00  0.00    +0.000 C 
ATOM     11  C   UNL     1       5.935   2.461  11.714  0.00  0.00    +0.000 C 
ENDBRANCH   9  10
ENDBRANCH   7   9
ENDBRANCH   6   7
BRANCH   6  12
ATOM     12  C   UNL     1       7.270   4.473  17.044  0.00  0.00    +0.000 C 
BRANCH  12  13
ATOM     13  C   UNL     1       6.972   5.756  17.817  0.00  0.00    +0.000 C 
BRANCH  13  14
ATOM     14  C   UNL     1       7.989   5.989  18.900  0.00  0.00    +0.000 C 
ATOM     15  O   UNL     1       8.365   5.157  19.710  0.00  0.00    +0.000 OA
BRANCH  14  16
ATOM     16  O   UNL     1       8.364   7.298  18.871  0.00  0.00    +0.000 OA
BRANCH  16  18
ATOM     17  C   UNL     1       8.274   9.495  17.956  0.00  0.00    +0.000 C 
ATOM     18  C   UNL     1       7.869   8.045  17.754  0.00  0.00    +0.000 C 
ENDBRANCH  16  18
ENDBRANCH  14  16
ENDBRANCH  13  14
ENDBRANCH  12  13
ENDBRANCH   6  12
ENDBRANCH   2   6
ENDBRANCH   1   3
BRANCH   1  19
ATOM     19  N   UNL     1       1.350   3.993  17.435  0.00  0.00    +0.000 NA
ATOM     20  H   UNL     1       0.553   4.438  17.882  0.00  0.00    +0.000 HD
ATOM     21  H   UNL     1       1.460   3.083  17.885  0.00  0.00    +0.000 HD
ENDBRANCH   1  19
BRANCH   1  22
ATOM     22  C   UNL     1       2.725   5.254  19.156  0.00  0.00    +0.000 C 
BRANCH  22  23
ATOM     23  C   UNL     1       2.292   6.679  19.356  0.00  0.00    +0.000 A 
ATOM     24  C   UNL     1       1.801   7.095  20.593  0.00  0.00    +0.000 A 
ATOM     25  C   UNL     1       1.285   8.386  20.764  0.00  0.00    +0.000 A 
ATOM     26  C   UNL     1       1.251   9.317  19.719  0.00  0.00    +0.000 A 
ATOM     27  C   UNL     1       1.793   8.881  18.496  0.00  0.00    +0.000 A 
ATOM     28  C   UNL     1       2.308   7.590  18.310  0.00  0.00    +0.000 A 
BRANCH  26  29
ATOM     29  N   UNL     1       0.706  10.587  19.879  0.00  0.00    +0.000 N 
BRANCH  29  30
ATOM     30  C   UNL     1       0.268  11.391  18.718  0.00  0.00    +0.000 C 
BRANCH  30  31
ATOM     31  C   UNL     1       0.795  12.825  18.800  0.00  0.00    +0.000 C 
ATOM     32 CL   UNL     1      -0.558  13.985  18.796  0.00  0.00    +0.000 Cl
ENDBRANCH  30  31
ENDBRANCH  29  30
BRANCH  29  33
ATOM     33  C   UNL     1       0.581  11.233  21.199  0.00  0.00    +0.000 C 
BRANCH  33  34
ATOM     34  C   UNL     1      -0.855  11.255  21.735  0.00  0.00    +0.000 C 
ATOM     35 CL   UNL     1      -1.054  10.292  23.223  0.00  0.00    +0.000 Cl
ENDBRANCH  33  34
ENDBRANCH  29  33
ENDBRANCH  26  29
ENDBRANCH  22  23
ENDBRANCH   1  22
TORSDOF 18
ENDMDL
MODEL 2
REMARK VINA RESULT:      -6.3      1.476      1.894
REMARK  Name = 
REMARK  20 active torsions:
REMARK  status: ('A' for Active; 'I' for Inactive)
REMARK    1  A    between atoms: C_1  and  C_2
REMARK    2  A    between atoms: C_2  and  O_3
REMARK    3  A    between atoms: O_3  and  C_4
REMARK    4  A    between atoms: C_4  and  C_6
REMARK    5  A    between atoms: C_6  and  C_7
REMARK    6  A    between atoms: C_7  and  C_8
REMARK    7  A    between atoms: C_8  and  N_9
REMARK    8  A    between atoms: C_8  and  C_28
REMARK    9  A    between atoms: C_10  and  C_12
REMARK   10  A    between atoms: C_12  and  N_13
REMARK   11  A    between atoms: C_12  and  C_14
REMARK   12  A    between atoms: C_14  and  C_15
REMARK   13  A    between atoms: C_18  and  N_19
REMARK   14  A    between atoms: N_19  and  C_20
REMARK   15  A    between atoms: N_19  and  C_23
REMARK   16  A    between atoms: C_20  and  C_21
REMARK   17  A    between atoms: C_23  and  C_24
REMARK   18  A    between atoms: C_28  and  O_30
REMARK   19  A    between atoms: O_30  and  C_31
REMARK   20  A    between atoms: C_31  and  C_32
REMARK                            x       y       z     vdW  Elec       q    Type
REMARK                         _______ _______ _______ _____ _____    ______ ____
ROOT
ATOM      1  C   UNL     1       2.528   5.253  18.061  0.00  0.00    +0.000 C 
ENDROOT
BRANCH   1   3
ATOM      2  N   UNL     1       4.749   5.059  17.010  0.00  0.00    +0.000 N 
ATOM      3  C   UNL     1       3.555   4.422  17.264  0.00  0.00    +0.000 C 
ATOM      4  O   UNL     1       3.373   3.236  17.006  0.00  0.00    +0.000 OA
ATOM      5  H   UNL     1       4.806   6.063  17.107  0.00  0.00    +0.000 HD
BRANCH   2   6
ATOM      6  C   UNL     1       5.808   4.444  16.216  0.00  0.00    +0.000 C 
BRANCH   6   7
ATOM      7  C   UNL     1       5.670   4.754  14.716  0.00  0.00    +0.000 C 
ATOM      8  O   UNL     1       5.502   5.878  14.273  0.00  0.00    +0.000 OA
BRANCH   7   9
ATOM      9  O   UNL     1       5.614   3.604  13.975  0.00  0.00    +0.000 OA
BRANCH   9  10
ATOM     10  C   UNL     1       6.314   3.651  12.724  0.00  0.00    +0.000 C 
ATOM     11  C   UNL     1       5.669   2.634  11.800  0.00  0.00    +0.000 C 
ENDBRANCH   9  10
ENDBRANCH   7   9
ENDBRANCH   6   7
BRANCH   6  12
ATOM     12  C   UNL     1       7.161   4.987  16.685  0.00  0.00    +0.000 C 
BRANCH  12  13
ATOM     13  C   UNL     1       7.515   4.496  18.088  0.00  0.00    +0.000 C 
BRANCH  13  14
ATOM     14  C   UNL     1       7.566   5.636  19.068  0.00  0.00    +0.000 C 
ATOM     15  O   UNL     1       7.699   5.526  20.276  0.00  0.00    +0.000 OA
BRANCH  14  16
ATOM     16  O   UNL     1       7.367   6.801  18.391  0.00  0.00    +0.000 OA
BRANCH  16  18
ATOM     17  C   UNL     1       7.967   9.030  17.806  0.00  0.00    +0.000 C 
ATOM     18  C   UNL     1       8.395   7.784  18.561  0.00  0.00    +0.000 C 
ENDBRANCH  16  18
ENDBRANCH  14  16
ENDBRANCH  13  14
ENDBRANCH  12  13
ENDBRANCH   6  12
ENDBRANCH   2   6
ENDBRANCH   1   3
BRANCH   1  19
ATOM     19  N   UNL     1       1.673   4.312  18.820  0.00  0.00    +0.000 NA
ATOM     20  H   UNL     1       0.927   3.960  18.226  0.00  0.00    +0.000 HD
ATOM     21  H   UNL     1       1.218   4.837  19.570  0.00  0.00    +0.000 HD
ENDBRANCH   1  19
BRANCH   1  22
ATOM     22  C   UNL     1       3.217   6.322  18.942  0.00  0.00    +0.000 C 
BRANCH  22  23
ATOM     23  C   UNL     1       2.446   7.611  19.010  0.00  0.00    +0.000 A 
ATOM     24  C   UNL     1       1.739   7.944  20.164  0.00  0.00    +0.000 A 
ATOM     25  C   UNL     1       0.923   9.081  20.204  0.00  0.00    +0.000 A 
ATOM     26  C   UNL     1       0.788   9.939  19.105  0.00  0.00    +0.000 A 
ATOM     27  C   UNL     1       1.549   9.598  17.970  0.00  0.00    +0.000 A 
ATOM     28  C   UNL     1       2.365   8.461  17.916  0.00  0.00    +0.000 A 
BRANCH  26  29
ATOM     29  N   UNL     1      -0.050  11.049  19.131  0.00  0.00    +0.000 N 
BRANCH  29  30
ATOM     30  C   UNL     1      -1.123  11.231  18.132  0.00  0.00    +0.000 C 
BRANCH  30  31
ATOM     31  C   UNL     1      -2.028  10.001  18.052  0.00  0.00    +0.000 C 
ATOM     32 CL   UNL     1      -2.564   9.732  16.373  0.00  0.00    +0.000 Cl
ENDBRANCH  30  31
ENDBRANCH  29  30
BRANCH  29  33
ATOM     33  C   UNL     1       0.110  12.135  20.116  0.00  0.00    +0.000 C 
BRANCH  33  34
ATOM     34  C   UNL     1      -0.379  13.497  19.609  0.00  0.00    +0.000 C 
ATOM     35 CL   UNL     1       0.762  14.820  19.968  0.00  0.00    +0.000 Cl
ENDBRANCH  33  34
ENDBRANCH  29  33
ENDBRANCH  26  29
ENDBRANCH  22  23
ENDBRANCH   1  22
TORSDOF 18
ENDMDL
MODEL 3
REMARK VINA RESULT:      -6.3      1.449      4.561
REMARK  Name = 
REMARK  20 active torsions:
REMARK  status: ('A' for Active; 'I' for Inactive)
REMARK    1  A    between atoms: C_1  and  C_2
REMARK    2  A    between atoms: C_2  and  O_3
REMARK    3  A    between atoms: O_3  and  C_4
REMARK    4  A    between atoms: C_4  and  C_6
REMARK    5  A    between atoms: C_6  and  C_7
REMARK    6  A    between atoms: C_7  and  C_8
REMARK    7  A    between atoms: C_8  and  N_9
REMARK    8  A    between atoms: C_8  and  C_28
REMARK    9  A    between atoms: C_10  and  C_12
REMARK   10  A    between atoms: C_12  and  N_13
REMARK   11  A    between atoms: C_12  and  C_14
REMARK   12  A    between atoms: C_14  and  C_15
REMARK   13  A    between atoms: C_18  and  N_19
REMARK   14  A    between atoms: N_19  and  C_20
REMARK   15  A    between atoms: N_19  and  C_23
REMARK   16  A    between atoms: C_20  and  C_21
REMARK   17  A    between atoms: C_23  and  C_24
REMARK   18  A    between atoms: C_28  and  O_30
REMARK   19  A    between atoms: O_30  and  C_31
REMARK   20  A    between atoms: C_31  and  C_32
REMARK                            x       y       z     vdW  Elec       q    Type
REMARK                         _______ _______ _______ _____ _____    ______ ____
ROOT
ATOM      1  C   UNL     1       2.771   5.258  17.882  0.00  0.00    +0.000 C 
ENDROOT
BRANCH   1   3
ATOM      2  N   UNL     1       4.673   5.755  16.396  0.00  0.00    +0.000 N 
ATOM      3  C   UNL     1       4.021   4.779  17.116  0.00  0.00    +0.000 C 
ATOM      4  O   UNL     1       4.478   3.649  17.259  0.00  0.00    +0.000 OA
ATOM      5  H   UNL     1       4.196   6.620  16.188  0.00  0.00    +0.000 HD
BRANCH   2   6
ATOM      6  C   UNL     1       5.837   5.464  15.565  0.00  0.00    +0.000 C 
BRANCH   6   7
ATOM      7  C   UNL     1       7.144   5.439  16.375  0.00  0.00    +0.000 C 
ATOM      8  O   UNL     1       7.583   4.437  16.914  0.00  0.00    +0.000 OA
BRANCH   7   9
ATOM      9  O   UNL     1       7.656   6.699  16.530  0.00  0.00    +0.000 OA
BRANCH   9  10
ATOM     10  C   UNL     1       7.688   7.182  17.880  0.00  0.00    +0.000 C 
ATOM     11  C   UNL     1       7.990   8.669  17.827  0.00  0.00    +0.000 C 
ENDBRANCH   9  10
ENDBRANCH   7   9
ENDBRANCH   6   7
BRANCH   6  12
ATOM     12  C   UNL     1       5.656   4.086  14.922  0.00  0.00    +0.000 C 
BRANCH  12  13
ATOM     13  C   UNL     1       6.562   3.903  13.706  0.00  0.00    +0.000 C 
BRANCH  13  14
ATOM     14  C   UNL     1       5.774   3.472  12.499  0.00  0.00    +0.000 C 
ATOM     15  O   UNL     1       4.666   3.883  12.193  0.00  0.00    +0.000 OA
BRANCH  14  16
ATOM     16  O   UNL     1       6.468   2.497  11.851  0.00  0.00    +0.000 OA
BRANCH  16  18
ATOM     17  C   UNL     1       6.359   0.165  11.378  0.00  0.00    +0.000 C 
ATOM     18  C   UNL     1       5.662   1.503  11.208  0.00  0.00    +0.000 C 
ENDBRANCH  16  18
ENDBRANCH  14  16
ENDBRANCH  13  14
ENDBRANCH  12  13
ENDBRANCH   6  12
ENDBRANCH   2   6
ENDBRANCH   1   3
BRANCH   1  19
ATOM     19  N   UNL     1       1.902   4.082  18.117  0.00  0.00    +0.000 NA
ATOM     20  H   UNL     1       2.084   3.368  17.417  0.00  0.00    +0.000 HD
ATOM     21  H   UNL     1       0.933   4.375  17.982  0.00  0.00    +0.000 HD
ENDBRANCH   1  19
BRANCH   1  22
ATOM     22  C   UNL     1       3.148   6.025  19.172  0.00  0.00    +0.000 C 
BRANCH  22  23
ATOM     23  C   UNL     1       2.345   7.281  19.362  0.00  0.00    +0.000 A 
ATOM     24  C   UNL     1       2.217   8.196  18.317  0.00  0.00    +0.000 A 
ATOM     25  C   UNL     1       1.573   9.424  18.512  0.00  0.00    +0.000 A 
ATOM     26  C   UNL     1       1.018   9.785  19.746  0.00  0.00    +0.000 A 
ATOM     27  C   UNL     1       1.126   8.823  20.768  0.00  0.00    +0.000 A 
ATOM     28  C   UNL     1       1.773   7.592  20.587  0.00  0.00    +0.000 A 
BRANCH  26  29
ATOM     29  N   UNL     1       0.410  11.020  19.950  0.00  0.00    +0.000 N 
BRANCH  29  30
ATOM     30  C   UNL     1       1.202  12.261  20.074  0.00  0.00    +0.000 C 
BRANCH  30  31
ATOM     31  C   UNL     1       1.193  13.063  18.773  0.00  0.00    +0.000 C 
ATOM     32 CL   UNL     1       2.840  13.167  18.096  0.00  0.00    +0.000 Cl
ENDBRANCH  30  31
ENDBRANCH  29  30
BRANCH  29  33
ATOM     33  C   UNL     1      -1.050  11.164  20.109  0.00  0.00    +0.000 C 
BRANCH  33  34
ATOM     34  C   UNL     1      -1.452  11.999  21.330  0.00  0.00    +0.000 C 
ATOM     35 CL   UNL     1      -0.972  11.246  22.874  0.00  0.00    +0.000 Cl
ENDBRANCH  33  34
ENDBRANCH  29  33
ENDBRANCH  26  29
ENDBRANCH  22  23
ENDBRANCH   1  22
TORSDOF 18
ENDMDL
MODEL 4
REMARK VINA RESULT:      -6.2      4.078      7.885
REMARK  Name = 
REMARK  20 active torsions:
REMARK  status: ('A' for Active; 'I' for Inactive)
REMARK    1  A    between atoms: C_1  and  C_2
REMARK    2  A    between atoms: C_2  and  O_3
REMARK    3  A    between atoms: O_3  and  C_4
REMARK    4  A    between atoms: C_4  and  C_6
REMARK    5  A    between atoms: C_6  and  C_7
REMARK    6  A    between atoms: C_7  and  C_8
REMARK    7  A    between atoms: C_8  and  N_9
REMARK    8  A    between atoms: C_8  and  C_28
REMARK    9  A    between atoms: C_10  and  C_12
REMARK   10  A    between atoms: C_12  and  N_13
REMARK   11  A    between atoms: C_12  and  C_14
REMARK   12  A    between atoms: C_14  and  C_15
REMARK   13  A    between atoms: C_18  and  N_19
REMARK   14  A    between atoms: N_19  and  C_20
REMARK   15  A    between atoms: N_19  and  C_23
REMARK   16  A    between atoms: C_20  and  C_21
REMARK   17  A    between atoms: C_23  and  C_24
REMARK   18  A    between atoms: C_28  and  O_30
REMARK   19  A    between atoms: O_30  and  C_31
REMARK   20  A    between atoms: C_31  and  C_32
REMARK                            x       y       z     vdW  Elec       q    Type
REMARK                         _______ _______ _______ _____ _____    ______ ____
ROOT
ATOM      1  C   UNL     1       7.389   6.029  18.029  0.00  0.00    +0.000 C 
ENDROOT
BRANCH   1   3
ATOM      2  N   UNL     1       4.931   5.878  18.122  0.00  0.00    +0.000 N 
ATOM      3  C   UNL     1       6.110   5.603  18.778  0.00  0.00    +0.000 C 
ATOM      4  O   UNL     1       6.152   4.939  19.810  0.00  0.00    +0.000 OA
ATOM      5  H   UNL     1       4.930   6.541  17.361  0.00  0.00    +0.000 HD
BRANCH   2   6
ATOM      6  C   UNL     1       3.627   5.599  18.714  0.00  0.00    +0.000 C 
BRANCH   6   7
ATOM      7  C   UNL     1       2.861   6.883  19.074  0.00  0.00    +0.000 C 
ATOM      8  O   UNL     1       2.125   6.980  20.042  0.00  0.00    +0.000 OA
BRANCH   7   9
ATOM      9  O   UNL     1       2.999   7.833  18.097  0.00  0.00    +0.000 OA
BRANCH   9  10
ATOM     10  C   UNL     1       1.788   8.509  17.729  0.00  0.00    +0.000 C 
ATOM     11  C   UNL     1       1.988   9.988  18.005  0.00  0.00    +0.000 C 
ENDBRANCH   9  10
ENDBRANCH   7   9
ENDBRANCH   6   7
BRANCH   6  12
ATOM     12  C   UNL     1       2.781   4.815  17.706  0.00  0.00    +0.000 C 
BRANCH  12  13
ATOM     13  C   UNL     1       3.477   3.532  17.257  0.00  0.00    +0.000 C 
BRANCH  13  14
ATOM     14  C   UNL     1       3.057   2.360  18.101  0.00  0.00    +0.000 C 
ATOM     15  O   UNL     1       3.684   1.321  18.233  0.00  0.00    +0.000 OA
BRANCH  14  16
ATOM     16  O   UNL     1       1.831   2.623  18.631  0.00  0.00    +0.000 OA
BRANCH  16  18
ATOM     17  C   UNL     1       1.116   3.552  20.705  0.00  0.00    +0.000 C 
ATOM     18  C   UNL     1       1.697   2.324  20.026  0.00  0.00    +0.000 C 
ENDBRANCH  16  18
ENDBRANCH  14  16
ENDBRANCH  13  14
ENDBRANCH  12  13
ENDBRANCH   6  12
ENDBRANCH   2   6
ENDBRANCH   1   3
BRANCH   1  19
ATOM     19  N   UNL     1       7.834   4.886  17.200  0.00  0.00    +0.000 NA
ATOM     20  H   UNL     1       8.142   5.214  16.288  0.00  0.00    +0.000 HD
ATOM     21  H   UNL     1       7.025   4.286  17.031  0.00  0.00    +0.000 HD
ENDBRANCH   1  19
BRANCH   1  22
ATOM     22  C   UNL     1       7.175   7.336  17.228  0.00  0.00    +0.000 C 
BRANCH  22  23
ATOM     23  C   UNL     1       7.846   8.525  17.857  0.00  0.00    +0.000 A 
ATOM     24  C   UNL     1       7.662   9.798  17.319  0.00  0.00    +0.000 A 
ATOM     25  C   UNL     1       8.370  10.899  17.818  0.00  0.00    +0.000 A 
ATOM     26  C   UNL     1       9.276  10.780  18.880  0.00  0.00    +0.000 A 
ATOM     27  C   UNL     1       9.407   9.490  19.428  0.00  0.00    +0.000 A 
ATOM     28  C   UNL     1       8.708   8.380  18.934  0.00  0.00    +0.000 A 
BRANCH  26  29
ATOM     29  N   UNL     1      10.006  11.866  19.353  0.00  0.00    +0.000 N 
BRANCH  29  30
ATOM     30  C   UNL     1       9.380  12.912  20.190  0.00  0.00    +0.000 C 
BRANCH  30  31
ATOM     31  C   UNL     1       9.661  12.683  21.675  0.00  0.00    +0.000 C 
ATOM     32 CL   UNL     1       8.298  11.825  22.440  0.00  0.00    +0.000 Cl
ENDBRANCH  30  31
ENDBRANCH  29  30
BRANCH  29  33
ATOM     33  C   UNL     1      11.425  12.073  19.010  0.00  0.00    +0.000 C 
BRANCH  33  34
ATOM     34  C   UNL     1      11.687  13.382  18.256  0.00  0.00    +0.000 C 
ATOM     35 CL   UNL     1      11.279  13.275  16.523  0.00  0.00    +0.000 Cl
ENDBRANCH  33  34
ENDBRANCH  29  33
ENDBRANCH  26  29
ENDBRANCH  22  23
ENDBRANCH   1  22
TORSDOF 18
ENDMDL
MODEL 5
REMARK VINA RESULT:      -6.2      2.524      4.518
REMARK  Name = 
REMARK  20 active torsions:
REMARK  status: ('A' for Active; 'I' for Inactive)
REMARK    1  A    between atoms: C_1  and  C_2
REMARK    2  A    between atoms: C_2  and  O_3
REMARK    3  A    between atoms: O_3  and  C_4
REMARK    4  A    between atoms: C_4  and  C_6
REMARK    5  A    between atoms: C_6  and  C_7
REMARK    6  A    between atoms: C_7  and  C_8
REMARK    7  A    between atoms: C_8  and  N_9
REMARK    8  A    between atoms: C_8  and  C_28
REMARK    9  A    between atoms: C_10  and  C_12
REMARK   10  A    between atoms: C_12  and  N_13
REMARK   11  A    between atoms: C_12  and  C_14
REMARK   12  A    between atoms: C_14  and  C_15
REMARK   13  A    between atoms: C_18  and  N_19
REMARK   14  A    between atoms: N_19  and  C_20
REMARK   15  A    between atoms: N_19  and  C_23
REMARK   16  A    between atoms: C_20  and  C_21
REMARK   17  A    between atoms: C_23  and  C_24
REMARK   18  A    between atoms: C_28  and  O_30
REMARK   19  A    between atoms: O_30  and  C_31
REMARK   20  A    between atoms: C_31  and  C_32
REMARK                            x       y       z     vdW  Elec       q    Type
REMARK                         _______ _______ _______ _____ _____    ______ ____
ROOT
ATOM      1  C   UNL     1       1.774   6.741  19.614  0.00  0.00    +0.000 C 
ENDROOT
BRANCH   1   3
ATOM      2  N   UNL     1       3.694   5.913  18.310  0.00  0.00    +0.000 N 
ATOM      3  C   UNL     1       2.322   5.927  18.425  0.00  0.00    +0.000 C 
ATOM      4  O   UNL     1       1.595   5.226  17.726  0.00  0.00    +0.000 OA
ATOM      5  H   UNL     1       4.239   6.605  18.804  0.00  0.00    +0.000 HD
BRANCH   2   6
ATOM      6  C   UNL     1       4.378   5.245  17.208  0.00  0.00    +0.000 C 
BRANCH   6   7
ATOM      7  C   UNL     1       5.399   6.159  16.512  0.00  0.00    +0.000 C 
ATOM      8  O   UNL     1       5.880   5.923  15.416  0.00  0.00    +0.000 OA
BRANCH   7   9
ATOM      9  O   UNL     1       5.799   7.176  17.339  0.00  0.00    +0.000 OA
BRANCH   9  10
ATOM     10  C   UNL     1       7.217   7.380  17.411  0.00  0.00    +0.000 C 
ATOM     11  C   UNL     1       7.758   6.457  18.489  0.00  0.00    +0.000 C 
ENDBRANCH   9  10
ENDBRANCH   7   9
ENDBRANCH   6   7
BRANCH   6  12
ATOM     12  C   UNL     1       5.132   4.030  17.755  0.00  0.00    +0.000 C 
BRANCH  12  13
ATOM     13  C   UNL     1       4.181   2.904  18.156  0.00  0.00    +0.000 C 
BRANCH  13  14
ATOM     14  C   UNL     1       4.221   2.658  19.639  0.00  0.00    +0.000 C 
ATOM     15  O   UNL     1       5.025   1.944  20.217  0.00  0.00    +0.000 OA
BRANCH  14  16
ATOM     16  O   UNL     1       3.171   3.304  20.216  0.00  0.00    +0.000 OA
BRANCH  16  18
ATOM     17  C   UNL     1       1.406   2.627  21.666  0.00  0.00    +0.000 C 
ATOM     18  C   UNL     1       1.946   2.561  20.248  0.00  0.00    +0.000 C 
ENDBRANCH  16  18
ENDBRANCH  14  16
ENDBRANCH  13  14
ENDBRANCH  12  13
ENDBRANCH   6  12
ENDBRANCH   2   6
ENDBRANCH   1   3
BRANCH   1  19
ATOM     19  N   UNL     1       2.275   6.120  20.862  0.00  0.00    +0.000 NA
ATOM     20  H   UNL     1       2.573   5.165  20.681  0.00  0.00    +0.000 HD
ATOM     21  H   UNL     1       1.493   6.057  21.517  0.00  0.00    +0.000 HD
ENDBRANCH   1  19
BRANCH   1  22
ATOM     22  C   UNL     1       2.115   8.245  19.484  0.00  0.00    +0.000 C 
BRANCH  22  23
ATOM     23  C   UNL     1       1.049   9.139  20.051  0.00  0.00    +0.000 A 
ATOM     24  C   UNL     1       0.220   9.868  19.199  0.00  0.00    +0.000 A 
ATOM     25  C   UNL     1      -0.700  10.794  19.709  0.00  0.00    +0.000 A 
ATOM     26  C   UNL     1      -0.843  11.019  21.084  0.00  0.00    +0.000 A 
ATOM     27  C   UNL     1      -0.023  10.237  21.918  0.00  0.00    +0.000 A 
ATOM     28  C   UNL     1       0.905   9.311  21.420  0.00  0.00    +0.000 A 
BRANCH  26  29
ATOM     29  N   UNL     1      -1.731  11.964  21.589  0.00  0.00    +0.000 N 
BRANCH  29  30
ATOM     30  C   UNL     1      -2.181  13.114  20.777  0.00  0.00    +0.000 C 
BRANCH  30  31
ATOM     31  C   UNL     1      -1.187  14.274  20.851  0.00  0.00    +0.000 C 
ATOM     32 CL   UNL     1      -2.051  15.833  20.837  0.00  0.00    +0.000 Cl
ENDBRANCH  30  31
ENDBRANCH  29  30
BRANCH  29  33
ATOM     33  C   UNL     1      -2.235  11.911  22.974  0.00  0.00    +0.000 C 
BRANCH  33  34
ATOM     34  C   UNL     1      -3.571  12.638  23.166  0.00  0.00    +0.000 C 
ATOM     35 CL   UNL     1      -4.292  12.349  24.772  0.00  0.00    +0.000 Cl
ENDBRANCH  33  34
ENDBRANCH  29  33
ENDBRANCH  26  29
ENDBRANCH  22  23
ENDBRANCH   1  22
TORSDOF 18
ENDMDL
MODEL 6
REMARK VINA RESULT:      -6.1      1.854      2.456
REMARK  Name = 
REMARK  20 active torsions:
REMARK  status: ('A' for Active; 'I' for Inactive)
REMARK    1  A    between atoms: C_1  and  C_2
REMARK    2  A    between atoms: C_2  and  O_3
REMARK    3  A    between atoms: O_3  and  C_4
REMARK    4  A    between atoms: C_4  and  C_6
REMARK    5  A    between atoms: C_6  and  C_7
REMARK    6  A    between atoms: C_7  and  C_8
REMARK    7  A    between atoms: C_8  and  N_9
REMARK    8  A    between atoms: C_8  and  C_28
REMARK    9  A    between atoms: C_10  and  C_12
REMARK   10  A    between atoms: C_12  and  N_13
REMARK   11  A    between atoms: C_12  and  C_14
REMARK   12  A    between atoms: C_14  and  C_15
REMARK   13  A    between atoms: C_18  and  N_19
REMARK   14  A    between atoms: N_19  and  C_20
REMARK   15  A    between atoms: N_19  and  C_23
REMARK   16  A    between atoms: C_20  and  C_21
REMARK   17  A    between atoms: C_23  and  C_24
REMARK   18  A    between atoms: C_28  and  O_30
REMARK   19  A    between atoms: O_30  and  C_31
REMARK   20  A    between atoms: C_31  and  C_32
REMARK                            x       y       z     vdW  Elec       q    Type
REMARK                         _______ _______ _______ _____ _____    ______ ____
ROOT
ATOM      1  C   UNL     1       2.210   6.154  19.078  0.00  0.00    +0.000 C 
ENDROOT
BRANCH   1   3
ATOM      2  N   UNL     1       3.865   5.366  17.430  0.00  0.00    +0.000 N 
ATOM      3  C   UNL     1       2.717   5.054  18.123  0.00  0.00    +0.000 C 
ATOM      4  O   UNL     1       2.215   3.933  18.097  0.00  0.00    +0.000 OA
ATOM      5  H   UNL     1       4.160   6.330  17.368  0.00  0.00    +0.000 HD
BRANCH   2   6
ATOM      6  C   UNL     1       4.447   4.467  16.439  0.00  0.00    +0.000 C 
BRANCH   6   7
ATOM      7  C   UNL     1       5.073   5.225  15.256  0.00  0.00    +0.000 C 
ATOM      8  O   UNL     1       5.315   6.420  15.274  0.00  0.00    +0.000 OA
BRANCH   7   9
ATOM      9  O   UNL     1       5.180   4.421  14.153  0.00  0.00    +0.000 OA
BRANCH   9  10
ATOM     10  C   UNL     1       6.521   4.187  13.698  0.00  0.00    +0.000 C 
ATOM     11  C   UNL     1       6.432   3.515  12.340  0.00  0.00    +0.000 C 
ENDBRANCH   9  10
ENDBRANCH   7   9
ENDBRANCH   6   7
BRANCH   6  12
ATOM     12  C   UNL     1       5.552   3.642  17.105  0.00  0.00    +0.000 C 
BRANCH  12  13
ATOM     13  C   UNL     1       6.296   4.444  18.171  0.00  0.00    +0.000 C 
BRANCH  13  14
ATOM     14  C   UNL     1       7.708   4.736  17.746  0.00  0.00    +0.000 C 
ATOM     15  O   UNL     1       8.652   3.968  17.846  0.00  0.00    +0.000 OA
BRANCH  14  16
ATOM     16  O   UNL     1       7.772   6.022  17.302  0.00  0.00    +0.000 OA
BRANCH  16  18
ATOM     17  C   UNL     1       7.871   8.376  17.655  0.00  0.00    +0.000 C 
ATOM     18  C   UNL     1       7.803   7.018  18.331  0.00  0.00    +0.000 C 
ENDBRANCH  16  18
ENDBRANCH  14  16
ENDBRANCH  13  14
ENDBRANCH  12  13
ENDBRANCH   6  12
ENDBRANCH   2   6
ENDBRANCH   1   3
BRANCH   1  19
ATOM     19  N   UNL     1       2.466   5.706  20.466  0.00  0.00    +0.000 NA
ATOM     20  H   UNL     1       2.697   6.502  21.053  0.00  0.00    +0.000 HD
ATOM     21  H   UNL     1       3.294   5.107  20.455  0.00  0.00    +0.000 HD
ENDBRANCH   1  19
BRANCH   1  22
ATOM     22  C   UNL     1       2.829   7.533  18.742  0.00  0.00    +0.000 C 
BRANCH  22  23
ATOM     23  C   UNL     1       1.870   8.671  18.950  0.00  0.00    +0.000 A 
ATOM     24  C   UNL     1       1.047   8.697  20.075  0.00  0.00    +0.000 A 
ATOM     25  C   UNL     1       0.067   9.686  20.227  0.00  0.00    +0.000 A 
ATOM     26  C   UNL     1      -0.123  10.696  19.275  0.00  0.00    +0.000 A 
ATOM     27  C   UNL     1       0.753  10.667  18.173  0.00  0.00    +0.000 A 
ATOM     28  C   UNL     1       1.733   9.680  18.008  0.00  0.00    +0.000 A 
BRANCH  26  29
ATOM     29  N   UNL     1      -1.119  11.659  19.408  0.00  0.00    +0.000 N 
BRANCH  29  30
ATOM     30  C   UNL     1      -2.157  11.843  18.372  0.00  0.00    +0.000 C 
BRANCH  30  31
ATOM     31  C   UNL     1      -2.882  10.532  18.067  0.00  0.00    +0.000 C 
ATOM     32 CL   UNL     1      -2.334   9.869  16.505  0.00  0.00    +0.000 Cl
ENDBRANCH  30  31
ENDBRANCH  29  30
BRANCH  29  33
ATOM     33  C   UNL     1      -1.172  12.587  20.553  0.00  0.00    +0.000 C 
BRANCH  33  34
ATOM     34  C   UNL     1       0.159  13.294  20.830  0.00  0.00    +0.000 C 
ATOM     35 CL   UNL     1       0.707  14.300  19.463  0.00  0.00    +0.000 Cl
ENDBRANCH  33  34
ENDBRANCH  29  33
ENDBRANCH  26  29
ENDBRANCH  22  23
ENDBRANCH   1  22
TORSDOF 18
ENDMDL
MODEL 7
REMARK VINA RESULT:      -6.0      1.927      2.809
REMARK  Name = 
REMARK  20 active torsions:
REMARK  status: ('A' for Active; 'I' for Inactive)
REMARK    1  A    between atoms: C_1  and  C_2
REMARK    2  A    between atoms: C_2  and  O_3
REMARK    3  A    between atoms: O_3  and  C_4
REMARK    4  A    between atoms: C_4  and  C_6
REMARK    5  A    between atoms: C_6  and  C_7
REMARK    6  A    between atoms: C_7  and  C_8
REMARK    7  A    between atoms: C_8  and  N_9
REMARK    8  A    between atoms: C_8  and  C_28
REMARK    9  A    between atoms: C_10  and  C_12
REMARK   10  A    between atoms: C_12  and  N_13
REMARK   11  A    between atoms: C_12  and  C_14
REMARK   12  A    between atoms: C_14  and  C_15
REMARK   13  A    between atoms: C_18  and  N_19
REMARK   14  A    between atoms: N_19  and  C_20
REMARK   15  A    between atoms: N_19  and  C_23
REMARK   16  A    between atoms: C_20  and  C_21
REMARK   17  A    between atoms: C_23  and  C_24
REMARK   18  A    between atoms: C_28  and  O_30
REMARK   19  A    between atoms: O_30  and  C_31
REMARK   20  A    between atoms: C_31  and  C_32
REMARK                            x       y       z     vdW  Elec       q    Type
REMARK                         _______ _______ _______ _____ _____    ______ ____
ROOT
ATOM      1  C   UNL     1       3.440   5.840  18.330  0.00  0.00    +0.000 C 
ENDROOT
BRANCH   1   3
ATOM      2  N   UNL     1       5.748   6.469  17.736  0.00  0.00    +0.000 N 
ATOM      3  C   UNL     1       4.956   5.566  18.409  0.00  0.00    +0.000 C 
ATOM      4  O   UNL     1       5.423   4.694  19.137  0.00  0.00    +0.000 OA
ATOM      5  H   UNL     1       5.332   7.074  17.043  0.00  0.00    +0.000 HD
BRANCH   2   6
ATOM      6  C   UNL     1       7.198   6.325  17.654  0.00  0.00    +0.000 C 
BRANCH   6   7
ATOM      7  C   UNL     1       7.620   5.163  16.740  0.00  0.00    +0.000 C 
ATOM      8  O   UNL     1       8.135   4.136  17.149  0.00  0.00    +0.000 OA
BRANCH   7   9
ATOM      9  O   UNL     1       7.478   5.495  15.419  0.00  0.00    +0.000 OA
BRANCH   9  10
ATOM     10  C   UNL     1       6.909   4.470  14.591  0.00  0.00    +0.000 C 
ATOM     11  C   UNL     1       5.413   4.450  14.851  0.00  0.00    +0.000 C 
ENDBRANCH   9  10
ENDBRANCH   7   9
ENDBRANCH   6   7
BRANCH   6  12
ATOM     12  C   UNL     1       7.794   7.614  17.080  0.00  0.00    +0.000 C 
BRANCH  12  13
ATOM     13  C   UNL     1       7.338   8.847  17.859  0.00  0.00    +0.000 C 
BRANCH  13  14
ATOM     14  C   UNL     1       8.513   9.643  18.356  0.00  0.00    +0.000 C 
ATOM     15  O   UNL     1       9.195   9.367  19.331  0.00  0.00    +0.000 OA
BRANCH  14  16
ATOM     16  O   UNL     1       8.642  10.756  17.583  0.00  0.00    +0.000 OA
BRANCH  16  18
ATOM     17  C   UNL     1      10.494  12.254  17.635  0.00  0.00    +0.000 C 
ATOM     18  C   UNL     1       9.155  11.909  18.262  0.00  0.00    +0.000 C 
ENDBRANCH  16  18
ENDBRANCH  14  16
ENDBRANCH  13  14
ENDBRANCH  12  13
ENDBRANCH   6  12
ENDBRANCH   2   6
ENDBRANCH   1   3
BRANCH   1  19
ATOM     19  N   UNL     1       2.794   4.656  17.721  0.00  0.00    +0.000 NA
ATOM     20  H   UNL     1       2.145   4.234  18.381  0.00  0.00    +0.000 HD
ATOM     21  H   UNL     1       3.519   3.958  17.546  0.00  0.00    +0.000 HD
ENDBRANCH   1  19
BRANCH   1  22
ATOM     22  C   UNL     1       2.857   6.232  19.709  0.00  0.00    +0.000 C 
BRANCH  22  23
ATOM     23  C   UNL     1       2.068   7.510  19.670  0.00  0.00    +0.000 A 
ATOM     24  C   UNL     1       2.044   8.284  18.509  0.00  0.00    +0.000 A 
ATOM     25  C   UNL     1       1.411   9.533  18.491  0.00  0.00    +0.000 A 
ATOM     26  C   UNL     1       0.765  10.056  19.618  0.00  0.00    +0.000 A 
ATOM     27  C   UNL     1       0.769   9.232  20.759  0.00  0.00    +0.000 A 
ATOM     28  C   UNL     1       1.403   7.982  20.792  0.00  0.00    +0.000 A 
BRANCH  26  29
ATOM     29  N   UNL     1       0.167  11.312  19.611  0.00  0.00    +0.000 N 
BRANCH  29  30
ATOM     30  C   UNL     1       0.848  12.488  19.031  0.00  0.00    +0.000 C 
BRANCH  30  31
ATOM     31  C   UNL     1       1.952  13.007  19.954  0.00  0.00    +0.000 C 
ATOM     32 CL   UNL     1       1.248  13.943  21.298  0.00  0.00    +0.000 Cl
ENDBRANCH  30  31
ENDBRANCH  29  30
BRANCH  29  33
ATOM     33  C   UNL     1      -1.151  11.562  20.225  0.00  0.00    +0.000 C 
BRANCH  33  34
ATOM     34  C   UNL     1      -1.895  12.753  19.609  0.00  0.00    +0.000 C 
ATOM     35 CL   UNL     1      -3.339  13.225  20.545  0.00  0.00    +0.000 Cl
ENDBRANCH  33  34
ENDBRANCH  29  33
ENDBRANCH  26  29
ENDBRANCH  22  23
ENDBRANCH   1  22
TORSDOF 18
ENDMDL
MODEL 8
REMARK VINA RESULT:      -6.0      1.844      4.706
REMARK  Name = 
REMARK  20 active torsions:
REMARK  status: ('A' for Active; 'I' for Inactive)
REMARK    1  A    between atoms: C_1  and  C_2
REMARK    2  A    between atoms: C_2  and  O_3
REMARK    3  A    between atoms: O_3  and  C_4
REMARK    4  A    between atoms: C_4  and  C_6
REMARK    5  A    between atoms: C_6  and  C_7
REMARK    6  A    between atoms: C_7  and  C_8
REMARK    7  A    between atoms: C_8  and  N_9
REMARK    8  A    between atoms: C_8  and  C_28
REMARK    9  A    between atoms: C_10  and  C_12
REMARK   10  A    between atoms: C_12  and  N_13
REMARK   11  A    between atoms: C_12  and  C_14
REMARK   12  A    between atoms: C_14  and  C_15
REMARK   13  A    between atoms: C_18  and  N_19
REMARK   14  A    between atoms: N_19  and  C_20
REMARK   15  A    between atoms: N_19  and  C_23
REMARK   16  A    between atoms: C_20  and  C_21
REMARK   17  A    between atoms: C_23  and  C_24
REMARK   18  A    between atoms: C_28  and  O_30
REMARK   19  A    between atoms: O_30  and  C_31
REMARK   20  A    between atoms: C_31  and  C_32
REMARK                            x       y       z     vdW  Elec       q    Type
REMARK                         _______ _______ _______ _____ _____    ______ ____
ROOT
ATOM      1  C   UNL     1       2.946   5.706  17.827  0.00  0.00    +0.000 C 
ENDROOT
BRANCH   1   3
ATOM      2  N   UNL     1       5.136   5.163  16.836  0.00  0.00    +0.000 N 
ATOM      3  C   UNL     1       4.334   6.165  17.337  0.00  0.00    +0.000 C 
ATOM      4  O   UNL     1       4.640   7.352  17.265  0.00  0.00    +0.000 OA
ATOM      5  H   UNL     1       4.914   4.200  17.042  0.00  0.00    +0.000 HD
BRANCH   2   6
ATOM      6  C   UNL     1       6.503   5.410  16.388  0.00  0.00    +0.000 C 
BRANCH   6   7
ATOM      7  C   UNL     1       7.544   5.067  17.467  0.00  0.00    +0.000 C 
ATOM      8  O   UNL     1       8.339   4.147  17.368  0.00  0.00    +0.000 OA
BRANCH   7   9
ATOM      9  O   UNL     1       7.359   5.825  18.592  0.00  0.00    +0.000 OA
BRANCH   9  10
ATOM     10  C   UNL     1       8.276   6.918  18.747  0.00  0.00    +0.000 C 
ATOM     11  C   UNL     1       7.853   8.010  17.781  0.00  0.00    +0.000 C 
ENDBRANCH   9  10
ENDBRANCH   7   9
ENDBRANCH   6   7
BRANCH   6  12
ATOM     12  C   UNL     1       6.790   4.535  15.164  0.00  0.00    +0.000 C 
BRANCH  12  13
ATOM     13  C   UNL     1       5.507   3.976  14.552  0.00  0.00    +0.000 C 
BRANCH  13  14
ATOM     14  C   UNL     1       5.687   3.678  13.089  0.00  0.00    +0.000 C 
ATOM     15  O   UNL     1       6.757   3.604  12.507  0.00  0.00    +0.000 OA
BRANCH  14  16
ATOM     16  O   UNL     1       4.458   3.578  12.511  0.00  0.00    +0.000 OA
BRANCH  16  18
ATOM     17  C   UNL     1       3.383   3.706  10.388  0.00  0.00    +0.000 C 
ATOM     18  C   UNL     1       4.448   2.993  11.203  0.00  0.00    +0.000 C 
ENDBRANCH  16  18
ENDBRANCH  14  16
ENDBRANCH  13  14
ENDBRANCH  12  13
ENDBRANCH   6  12
ENDBRANCH   2   6
ENDBRANCH   1   3
BRANCH   1  19
ATOM     19  N   UNL     1       2.836   4.249  17.586  0.00  0.00    +0.000 NA
ATOM     20  H   UNL     1       2.845   4.058  16.587  0.00  0.00    +0.000 HD
ATOM     21  H   UNL     1       1.924   3.941  17.928  0.00  0.00    +0.000 HD
ENDBRANCH   1  19
BRANCH   1  22
ATOM     22  C   UNL     1       2.692   6.117  19.297  0.00  0.00    +0.000 C 
BRANCH  22  23
ATOM     23  C   UNL     1       1.982   7.435  19.423  0.00  0.00    +0.000 A 
ATOM     24  C   UNL     1       1.807   8.246  18.302  0.00  0.00    +0.000 A 
ATOM     25  C   UNL     1       1.252   9.527  18.421  0.00  0.00    +0.000 A 
ATOM     26  C   UNL     1       0.836  10.045  19.654  0.00  0.00    +0.000 A 
ATOM     27  C   UNL     1       0.987   9.185  20.758  0.00  0.00    +0.000 A 
ATOM     28  C   UNL     1       1.545   7.904  20.653  0.00  0.00    +0.000 A 
BRANCH  26  29
ATOM     29  N   UNL     1       0.318  11.330  19.779  0.00  0.00    +0.000 N 
BRANCH  29  30
ATOM     30  C   UNL     1       0.533  12.135  21.000  0.00  0.00    +0.000 C 
BRANCH  30  31
ATOM     31  C   UNL     1       0.199  13.608  20.765  0.00  0.00    +0.000 C 
ATOM     32 CL   UNL     1       1.523  14.647  21.355  0.00  0.00    +0.000 Cl
ENDBRANCH  30  31
ENDBRANCH  29  30
BRANCH  29  33
ATOM     33  C   UNL     1      -0.519  11.949  18.733  0.00  0.00    +0.000 C 
BRANCH  33  34
ATOM     34  C   UNL     1      -1.898  11.296  18.588  0.00  0.00    +0.000 C 
ATOM     35 CL   UNL     1      -2.260  10.809  16.911  0.00  0.00    +0.000 Cl
ENDBRANCH  33  34
ENDBRANCH  29  33
ENDBRANCH  26  29
ENDBRANCH  22  23
ENDBRANCH   1  22
TORSDOF 18
ENDMDL
MODEL 9
REMARK VINA RESULT:      -5.9      5.897     10.261
REMARK  Name = 
REMARK  20 active torsions:
REMARK  status: ('A' for Active; 'I' for Inactive)
REMARK    1  A    between atoms: C_1  and  C_2
REMARK    2  A    between atoms: C_2  and  O_3
REMARK    3  A    between atoms: O_3  and  C_4
REMARK    4  A    between atoms: C_4  and  C_6
REMARK    5  A    between atoms: C_6  and  C_7
REMARK    6  A    between atoms: C_7  and  C_8
REMARK    7  A    between atoms: C_8  and  N_9
REMARK    8  A    between atoms: C_8  and  C_28
REMARK    9  A    between atoms: C_10  and  C_12
REMARK   10  A    between atoms: C_12  and  N_13
REMARK   11  A    between atoms: C_12  and  C_14
REMARK   12  A    between atoms: C_14  and  C_15
REMARK   13  A    between atoms: C_18  and  N_19
REMARK   14  A    between atoms: N_19  and  C_20
REMARK   15  A    between atoms: N_19  and  C_23
REMARK   16  A    between atoms: C_20  and  C_21
REMARK   17  A    between atoms: C_23  and  C_24
REMARK   18  A    between atoms: C_28  and  O_30
REMARK   19  A    between atoms: O_30  and  C_31
REMARK   20  A    between atoms: C_31  and  C_32
REMARK                            x       y       z     vdW  Elec       q    Type
REMARK                         _______ _______ _______ _____ _____    ______ ____
ROOT
ATOM      1  C   UNL     1       0.836  11.548  18.735  0.00  0.00    +0.000 C 
ENDROOT
BRANCH   1   3
ATOM      2  N   UNL     1      -1.508  11.849  19.434  0.00  0.00    +0.000 N 
ATOM      3  C   UNL     1      -0.474  12.359  18.680  0.00  0.00    +0.000 C 
ATOM      4  O   UNL     1      -0.540  13.452  18.125  0.00  0.00    +0.000 OA
ATOM      5  H   UNL     1      -1.464  10.891  19.752  0.00  0.00    +0.000 HD
BRANCH   2   6
ATOM      6  C   UNL     1      -2.836  12.454  19.447  0.00  0.00    +0.000 C 
BRANCH   6   7
ATOM      7  C   UNL     1      -3.868  11.620  18.670  0.00  0.00    +0.000 C 
ATOM      8  O   UNL     1      -3.603  10.993  17.657  0.00  0.00    +0.000 OA
BRANCH   7   9
ATOM      9  O   UNL     1      -5.128  11.794  19.176  0.00  0.00    +0.000 OA
BRANCH   9  10
ATOM     10  C   UNL     1      -6.177  11.161  18.429  0.00  0.00    +0.000 C 
ATOM     11  C   UNL     1      -7.026  12.259  17.814  0.00  0.00    +0.000 C 
ENDBRANCH   9  10
ENDBRANCH   7   9
ENDBRANCH   6   7
BRANCH   6  12
ATOM     12  C   UNL     1      -3.317  12.564  20.897  0.00  0.00    +0.000 C 
BRANCH  12  13
ATOM     13  C   UNL     1      -2.156  12.774  21.867  0.00  0.00    +0.000 C 
BRANCH  13  14
ATOM     14  C   UNL     1      -2.329  11.949  23.112  0.00  0.00    +0.000 C 
ATOM     15  O   UNL     1      -3.352  11.871  23.774  0.00  0.00    +0.000 OA
BRANCH  14  16
ATOM     16  O   UNL     1      -1.137  11.364  23.416  0.00  0.00    +0.000 OA
BRANCH  16  18
ATOM     17  C   UNL     1       0.312   9.476  23.501  0.00  0.00    +0.000 C 
ATOM     18  C   UNL     1      -0.961  10.041  22.896  0.00  0.00    +0.000 C 
ENDBRANCH  16  18
ENDBRANCH  14  16
ENDBRANCH  13  14
ENDBRANCH  12  13
ENDBRANCH   6  12
ENDBRANCH   2   6
ENDBRANCH   1   3
BRANCH   1  19
ATOM     19  N   UNL     1       1.961  12.506  18.839  0.00  0.00    +0.000 NA
ATOM     20  H   UNL     1       2.800  12.106  18.426  0.00  0.00    +0.000 HD
ATOM     21  H   UNL     1       2.166  12.643  19.830  0.00  0.00    +0.000 HD
ENDBRANCH   1  19
BRANCH   1  22
ATOM     22  C   UNL     1       0.809  10.491  19.866  0.00  0.00    +0.000 C 
BRANCH  22  23
ATOM     23  C   UNL     1       1.356   9.159  19.436  0.00  0.00    +0.000 A 
ATOM     24  C   UNL     1       1.529   8.139  20.371  0.00  0.00    +0.000 A 
ATOM     25  C   UNL     1       2.145   6.933  20.013  0.00  0.00    +0.000 A 
ATOM     26  C   UNL     1       2.599   6.688  18.711  0.00  0.00    +0.000 A 
ATOM     27  C   UNL     1       2.371   7.721  17.782  0.00  0.00    +0.000 A 
ATOM     28  C   UNL     1       1.761   8.934  18.129  0.00  0.00    +0.000 A 
BRANCH  26  29
ATOM     29  N   UNL     1       3.243   5.505  18.363  0.00  0.00    +0.000 N 
BRANCH  29  30
ATOM     30  C   UNL     1       2.515   4.389  17.724  0.00  0.00    +0.000 C 
BRANCH  30  31
ATOM     31  C   UNL     1       2.455   3.164  18.637  0.00  0.00    +0.000 C 
ATOM     32 CL   UNL     1       3.437   1.837  17.963  0.00  0.00    +0.000 Cl
ENDBRANCH  30  31
ENDBRANCH  29  30
BRANCH  29  33
ATOM     33  C   UNL     1       4.669   5.266  18.656  0.00  0.00    +0.000 C 
BRANCH  33  34
ATOM     34  C   UNL     1       5.619   6.120  17.809  0.00  0.00    +0.000 C 
ATOM     35 CL   UNL     1       5.132   6.204  16.094  0.00  0.00    +0.000 Cl
ENDBRANCH  33  34
ENDBRANCH  29  33
ENDBRANCH  26  29
ENDBRANCH  22  23
ENDBRANCH   1  22
TORSDOF 18
ENDMDL
