MODEL 1
REMARK VINA RESULT:      -8.8      0.000      0.000
REMARK  Name = 
REMARK  9 active torsions:
REMARK  status: ('A' for Active; 'I' for Inactive)
REMARK    1  A    between atoms: C_1  and  N_2
REMARK    2  A    between atoms: C_4  and  C_5
REMARK    3  A    between atoms: C_11  and  C_12
REMARK    4  A    between atoms: C_12  and  C_13
REMARK    5  A    between atoms: C_17  and  C_18
REMARK    6  A    between atoms: C_26  and  C_27
REMARK    7  A    between atoms: N_29  and  C_30
REMARK    8  A    between atoms: C_30  and  C_31
REMARK    9  A    between atoms: C_31  and  O_32
REMARK                            x       y       z     vdW  Elec       q    Type
REMARK                         _______ _______ _______ _____ _____    ______ ____
ROOT
ATOM      1  C   UNL     1       3.192   3.648  18.443  0.00  0.00    +0.000 A 
ATOM      2  C   UNL     1       2.565   2.392  18.342  0.00  0.00    +0.000 A 
ATOM      3  C   UNL     1       1.379   2.124  19.008  0.00  0.00    +0.000 A 
ATOM      4  C   UNL     1       0.781   3.111  19.790  0.00  0.00    +0.000 A 
ATOM      5  C   UNL     1       1.383   4.385  19.936  0.00  0.00    +0.000 A 
ATOM      6  C   UNL     1       0.921   5.534  20.670  0.00  0.00    +0.000 A 
ATOM      7  C   UNL     1       1.772   6.613  20.590  0.00  0.00    +0.000 A 
ATOM      8  S   UNL     1       3.162   6.223  19.694  0.00  0.00    +0.000 S 
ATOM      9  C   UNL     1       2.596   4.636  19.278  0.00  0.00    +0.000 A 
ENDROOT
BRANCH   1  13
ATOM     10  C   UNL     1       7.842   4.575  17.510  0.00  0.00    +0.000 C 
ATOM     11  N   UNL     1       6.451   4.322  17.213  0.00  0.00    +0.000 N 
ATOM     12  N   UNL     1       5.588   4.153  18.239  0.00  0.00    +0.000 NA
ATOM     13  C   UNL     1       4.400   3.919  17.661  0.00  0.00    +0.000 A 
ATOM     14  C   UNL     1       4.548   3.901  16.254  0.00  0.00    +0.000 A 
ATOM     15  C   UNL     1       5.868   4.199  15.973  0.00  0.00    +0.000 A 
BRANCH  15  16
ATOM     16  C   UNL     1       6.538   4.350  14.699  0.00  0.00    +0.000 C 
ATOM     17  O   UNL     1       7.444   5.151  14.498  0.00  0.00    +0.000 OA
ATOM     18  N   UNL     1       6.071   3.509  13.710  0.00  0.00    +0.000 N 
ATOM     19  H   UNL     1       5.333   2.854  13.913  0.00  0.00    +0.000 HD
BRANCH  18  20
ATOM     20  C   UNL     1       6.598   3.508  12.358  0.00  0.00    +0.000 C 
BRANCH  20  21
ATOM     21  C   UNL     1       5.816   2.566  11.447  0.00  0.00    +0.000 C 
BRANCH  21  22
ATOM     22  O   UNL     1       6.360   1.248  11.523  0.00  0.00    +0.000 OA
ATOM     23  H   UNL     1       7.275   1.311  11.202  0.00  0.00    +0.000 HD
ENDBRANCH  21  22
ENDBRANCH  20  21
ENDBRANCH  18  20
ENDBRANCH  15  16
ENDBRANCH   1  13
BRANCH   7  24
ATOM     24  C   UNL     1       1.622   7.977  21.202  0.00  0.00    +0.000 C 
BRANCH  24  25
ATOM     25  C   UNL     1       0.975   8.981  20.269  0.00  0.00    +0.000 A 
ATOM     26  C   UNL     1       1.235   8.953  18.893  0.00  0.00    +0.000 A 
ATOM     27  C   UNL     1       0.632   9.875  18.035  0.00  0.00    +0.000 A 
ATOM     28  C   UNL     1      -0.247  10.831  18.542  0.00  0.00    +0.000 A 
ATOM     29  C   UNL     1      -0.537  10.871  19.913  0.00  0.00    +0.000 A 
ATOM     30  C   UNL     1       0.085   9.944  20.768  0.00  0.00    +0.000 A 
BRANCH  29  31
ATOM     31  C   UNL     1      -1.506  11.882  20.476  0.00  0.00    +0.000 C 
ATOM     32  F   UNL     1      -1.860  11.639  21.770  0.00  0.00    +0.000 F 
ATOM     33  F   UNL     1      -1.003  13.148  20.460  0.00  0.00    +0.000 F 
ATOM     34  F   UNL     1      -2.672  11.935  19.774  0.00  0.00    +0.000 F 
ENDBRANCH  29  31
ENDBRANCH  24  25
ENDBRANCH   7  24
TORSDOF 8
ENDMDL
MODEL 2
REMARK VINA RESULT:      -8.8      5.733      9.668
REMARK  Name = 
REMARK  9 active torsions:
REMARK  status: ('A' for Active; 'I' for Inactive)
REMARK    1  A    between atoms: C_1  and  N_2
REMARK    2  A    between atoms: C_4  and  C_5
REMARK    3  A    between atoms: C_11  and  C_12
REMARK    4  A    between atoms: C_12  and  C_13
REMARK    5  A    between atoms: C_17  and  C_18
REMARK    6  A    between atoms: C_26  and  C_27
REMARK    7  A    between atoms: N_29  and  C_30
REMARK    8  A    between atoms: C_30  and  C_31
REMARK    9  A    between atoms: C_31  and  O_32
REMARK                            x       y       z     vdW  Elec       q    Type
REMARK                         _______ _______ _______ _____ _____    ______ ____
ROOT
ATOM      1  C   UNL     1       2.237   5.051  18.673  0.00  0.00    +0.000 A 
ATOM      2  C   UNL     1       1.315   4.010  18.887  0.00  0.00    +0.000 A 
ATOM      3  C   UNL     1       1.553   2.728  18.415  0.00  0.00    +0.000 A 
ATOM      4  C   UNL     1       2.729   2.449  17.720  0.00  0.00    +0.000 A 
ATOM      5  C   UNL     1       3.680   3.467  17.465  0.00  0.00    +0.000 A 
ATOM      6  C   UNL     1       4.951   3.382  16.794  0.00  0.00    +0.000 A 
ATOM      7  C   UNL     1       5.616   4.585  16.727  0.00  0.00    +0.000 A 
ATOM      8  S   UNL     1       4.682   5.833  17.404  0.00  0.00    +0.000 S 
ATOM      9  C   UNL     1       3.415   4.766  17.924  0.00  0.00    +0.000 A 
ENDROOT
BRANCH   1  13
ATOM     10  C   UNL     1       1.564   9.832  18.877  0.00  0.00    +0.000 C 
ATOM     11  N   UNL     1       1.679   8.482  19.380  0.00  0.00    +0.000 N 
ATOM     12  N   UNL     1       1.968   7.488  18.512  0.00  0.00    +0.000 NA
ATOM     13  C   UNL     1       1.988   6.370  19.255  0.00  0.00    +0.000 A 
ATOM     14  C   UNL     1       1.661   6.682  20.596  0.00  0.00    +0.000 A 
ATOM     15  C   UNL     1       1.499   8.052  20.674  0.00  0.00    +0.000 A 
BRANCH  15  16
ATOM     16  C   UNL     1       1.203   8.891  21.816  0.00  0.00    +0.000 C 
ATOM     17  O   UNL     1       2.061   9.418  22.515  0.00  0.00    +0.000 OA
ATOM     18  N   UNL     1      -0.145   9.057  22.062  0.00  0.00    +0.000 N 
ATOM     19  H   UNL     1      -0.825   8.620  21.460  0.00  0.00    +0.000 HD
BRANCH  18  20
ATOM     20  C   UNL     1      -0.657   9.850  23.165  0.00  0.00    +0.000 C 
BRANCH  20  21
ATOM     21  C   UNL     1      -0.983  11.277  22.732  0.00  0.00    +0.000 C 
BRANCH  21  22
ATOM     22  O   UNL     1       0.139  11.854  22.064  0.00  0.00    +0.000 OA
ATOM     23  H   UNL     1       0.158  11.461  21.175  0.00  0.00    +0.000 HD
ENDBRANCH  21  22
ENDBRANCH  20  21
ENDBRANCH  18  20
ENDBRANCH  15  16
ENDBRANCH   1  13
BRANCH   7  24
ATOM     24  C   UNL     1       6.960   4.885  16.125  0.00  0.00    +0.000 C 
BRANCH  24  25
ATOM     25  C   UNL     1       6.973   4.779  14.613  0.00  0.00    +0.000 A 
ATOM     26  C   UNL     1       7.995   5.372  13.861  0.00  0.00    +0.000 A 
ATOM     27  C   UNL     1       8.009   5.267  12.469  0.00  0.00    +0.000 A 
ATOM     28  C   UNL     1       7.004   4.558  11.812  0.00  0.00    +0.000 A 
ATOM     29  C   UNL     1       5.978   3.941  12.541  0.00  0.00    +0.000 A 
ATOM     30  C   UNL     1       5.969   4.064  13.942  0.00  0.00    +0.000 A 
BRANCH  29  31
ATOM     31  C   UNL     1       4.896   3.149  11.849  0.00  0.00    +0.000 C 
ATOM     32  F   UNL     1       3.772   2.983  12.601  0.00  0.00    +0.000 F 
ATOM     33  F   UNL     1       4.485   3.734  10.689  0.00  0.00    +0.000 F 
ATOM     34  F   UNL     1       5.305   1.895  11.508  0.00  0.00    +0.000 F 
ENDBRANCH  29  31
ENDBRANCH  24  25
ENDBRANCH   7  24
TORSDOF 8
ENDMDL
MODEL 3
REMARK VINA RESULT:      -8.4      1.193      1.901
REMARK  Name = 
REMARK  9 active torsions:
REMARK  status: ('A' for Active; 'I' for Inactive)
REMARK    1  A    between atoms: C_1  and  N_2
REMARK    2  A    between atoms: C_4  and  C_5
REMARK    3  A    between atoms: C_11  and  C_12
REMARK    4  A    between atoms: C_12  and  C_13
REMARK    5  A    between atoms: C_17  and  C_18
REMARK    6  A    between atoms: C_26  and  C_27
REMARK    7  A    between atoms: N_29  and  C_30
REMARK    8  A    between atoms: C_30  and  C_31
REMARK    9  A    between atoms: C_31  and  O_32
REMARK                            x       y       z     vdW  Elec       q    Type
REMARK                         _______ _______ _______ _____ _____    ______ ____
ROOT
ATOM      1  C   UNL     1       3.585   4.337  19.185  0.00  0.00    +0.000 A 
ATOM      2  C   UNL     1       3.180   3.098  19.714  0.00  0.00    +0.000 A 
ATOM      3  C   UNL     1       2.043   2.986  20.499  0.00  0.00    +0.000 A 
ATOM      4  C   UNL     1       1.272   4.115  20.771  0.00  0.00    +0.000 A 
ATOM      5  C   UNL     1       1.647   5.388  20.275  0.00  0.00    +0.000 A 
ATOM      6  C   UNL     1       0.983   6.657  20.422  0.00  0.00    +0.000 A 
ATOM      7  C   UNL     1       1.641   7.694  19.801  0.00  0.00    +0.000 A 
ATOM      8  S   UNL     1       3.096   7.158  19.104  0.00  0.00    +0.000 S 
ATOM      9  C   UNL     1       2.814   5.492  19.504  0.00  0.00    +0.000 A 
ENDROOT
BRANCH   1  13
ATOM     10  C   UNL     1       8.221   4.381  17.822  0.00  0.00    +0.000 C 
ATOM     11  N   UNL     1       6.786   4.416  17.658  0.00  0.00    +0.000 N 
ATOM     12  N   UNL     1       6.004   4.375  18.759  0.00  0.00    +0.000 NA
ATOM     13  C   UNL     1       4.745   4.401  18.295  0.00  0.00    +0.000 A 
ATOM     14  C   UNL     1       4.757   4.413  16.880  0.00  0.00    +0.000 A 
ATOM     15  C   UNL     1       6.079   4.461  16.478  0.00  0.00    +0.000 A 
BRANCH  15  16
ATOM     16  C   UNL     1       6.645   4.532  15.149  0.00  0.00    +0.000 C 
ATOM     17  O   UNL     1       7.585   5.260  14.847  0.00  0.00    +0.000 OA
ATOM     18  N   UNL     1       6.038   3.703  14.228  0.00  0.00    +0.000 N 
ATOM     19  H   UNL     1       5.276   3.108  14.512  0.00  0.00    +0.000 HD
BRANCH  18  20
ATOM     20  C   UNL     1       6.445   3.631  12.837  0.00  0.00    +0.000 C 
BRANCH  20  21
ATOM     21  C   UNL     1       5.486   2.778  12.010  0.00  0.00    +0.000 C 
BRANCH  21  22
ATOM     22  O   UNL     1       6.170   1.637  11.490  0.00  0.00    +0.000 OA
ATOM     23  H   UNL     1       6.836   1.978  10.870  0.00  0.00    +0.000 HD
ENDBRANCH  21  22
ENDBRANCH  20  21
ENDBRANCH  18  20
ENDBRANCH  15  16
ENDBRANCH   1  13
BRANCH   7  24
ATOM     24  C   UNL     1       1.252   9.143  19.722  0.00  0.00    +0.000 C 
BRANCH  24  25
ATOM     25  C   UNL     1       0.500   9.626  20.946  0.00  0.00    +0.000 A 
ATOM     26  C   UNL     1       0.700   9.024  22.195  0.00  0.00    +0.000 A 
ATOM     27  C   UNL     1       0.011   9.476  23.322  0.00  0.00    +0.000 A 
ATOM     28  C   UNL     1      -0.880  10.543  23.215  0.00  0.00    +0.000 A 
ATOM     29  C   UNL     1      -1.088  11.173  21.981  0.00  0.00    +0.000 A 
ATOM     30  C   UNL     1      -0.396  10.702  20.851  0.00  0.00    +0.000 A 
BRANCH  29  31
ATOM     31  C   UNL     1      -2.029  12.346  21.851  0.00  0.00    +0.000 C 
ATOM     32  F   UNL     1      -2.850  12.271  20.766  0.00  0.00    +0.000 F 
ATOM     33  F   UNL     1      -2.850  12.473  22.932  0.00  0.00    +0.000 F 
ATOM     34  F   UNL     1      -1.372  13.533  21.741  0.00  0.00    +0.000 F 
ENDBRANCH  29  31
ENDBRANCH  24  25
ENDBRANCH   7  24
TORSDOF 8
ENDMDL
MODEL 4
REMARK VINA RESULT:      -8.4      0.813      1.157
REMARK  Name = 
REMARK  9 active torsions:
REMARK  status: ('A' for Active; 'I' for Inactive)
REMARK    1  A    between atoms: C_1  and  N_2
REMARK    2  A    between atoms: C_4  and  C_5
REMARK    3  A    between atoms: C_11  and  C_12
REMARK    4  A    between atoms: C_12  and  C_13
REMARK    5  A    between atoms: C_17  and  C_18
REMARK    6  A    between atoms: C_26  and  C_27
REMARK    7  A    between atoms: N_29  and  C_30
REMARK    8  A    between atoms: C_30  and  C_31
REMARK    9  A    between atoms: C_31  and  O_32
REMARK                            x       y       z     vdW  Elec       q    Type
REMARK                         _______ _______ _______ _____ _____    ______ ____
ROOT
ATOM      1  C   UNL     1       3.335   3.505  18.586  0.00  0.00    +0.000 A 
ATOM      2  C   UNL     1       2.801   2.206  18.493  0.00  0.00    +0.000 A 
ATOM      3  C   UNL     1       1.619   1.866  19.133  0.00  0.00    +0.000 A 
ATOM      4  C   UNL     1       0.932   2.821  19.880  0.00  0.00    +0.000 A 
ATOM      5  C   UNL     1       1.437   4.137  20.017  0.00  0.00    +0.000 A 
ATOM      6  C   UNL     1       0.875   5.263  20.716  0.00  0.00    +0.000 A 
ATOM      7  C   UNL     1       1.649   6.398  20.638  0.00  0.00    +0.000 A 
ATOM      8  S   UNL     1       3.088   6.093  19.786  0.00  0.00    +0.000 S 
ATOM      9  C   UNL     1       2.648   4.462  19.387  0.00  0.00    +0.000 A 
ENDROOT
BRANCH   1  13
ATOM     10  C   UNL     1       7.972   4.576  17.746  0.00  0.00    +0.000 C 
ATOM     11  N   UNL     1       6.587   4.317  17.424  0.00  0.00    +0.000 N 
ATOM     12  N   UNL     1       5.722   4.066  18.431  0.00  0.00    +0.000 NA
ATOM     13  C   UNL     1       4.542   3.848  17.831  0.00  0.00    +0.000 A 
ATOM     14  C   UNL     1       4.697   3.923  16.427  0.00  0.00    +0.000 A 
ATOM     15  C   UNL     1       6.013   4.263  16.175  0.00  0.00    +0.000 A 
BRANCH  15  16
ATOM     16  C   UNL     1       6.687   4.508  14.918  0.00  0.00    +0.000 C 
ATOM     17  O   UNL     1       7.501   5.409  14.746  0.00  0.00    +0.000 OA
ATOM     18  N   UNL     1       6.339   3.635  13.909  0.00  0.00    +0.000 N 
ATOM     19  H   UNL     1       5.676   2.897  14.087  0.00  0.00    +0.000 HD
BRANCH  18  20
ATOM     20  C   UNL     1       6.890   3.713  12.568  0.00  0.00    +0.000 C 
BRANCH  20  21
ATOM     21  C   UNL     1       6.135   2.813  11.593  0.00  0.00    +0.000 C 
BRANCH  21  22
ATOM     22  O   UNL     1       6.849   1.591  11.404  0.00  0.00    +0.000 OA
ATOM     23  H   UNL     1       6.272   0.884  11.739  0.00  0.00    +0.000 HD
ENDBRANCH  21  22
ENDBRANCH  20  21
ENDBRANCH  18  20
ENDBRANCH  15  16
ENDBRANCH   1  13
BRANCH   7  24
ATOM     24  C   UNL     1       1.387   7.759  21.219  0.00  0.00    +0.000 C 
BRANCH  24  25
ATOM     25  C   UNL     1       1.298   8.849  20.169  0.00  0.00    +0.000 A 
ATOM     26  C   UNL     1       1.634   8.588  18.835  0.00  0.00    +0.000 A 
ATOM     27  C   UNL     1       1.545   9.592  17.869  0.00  0.00    +0.000 A 
ATOM     28  C   UNL     1       1.108  10.867  18.224  0.00  0.00    +0.000 A 
ATOM     29  C   UNL     1       0.751  11.151  19.549  0.00  0.00    +0.000 A 
ATOM     30  C   UNL     1       0.856  10.135  20.516  0.00  0.00    +0.000 A 
BRANCH  29  31
ATOM     31  C   UNL     1       0.252  12.518  19.948  0.00  0.00    +0.000 C 
ATOM     32  F   UNL     1       0.812  13.535  19.233  0.00  0.00    +0.000 F 
ATOM     33  F   UNL     1      -1.095  12.647  19.785  0.00  0.00    +0.000 F 
ATOM     34  F   UNL     1       0.498  12.803  21.257  0.00  0.00    +0.000 F 
ENDBRANCH  29  31
ENDBRANCH  24  25
ENDBRANCH   7  24
TORSDOF 8
ENDMDL
MODEL 5
REMARK VINA RESULT:      -8.3      5.588      9.321
REMARK  Name = 
REMARK  9 active torsions:
REMARK  status: ('A' for Active; 'I' for Inactive)
REMARK    1  A    between atoms: C_1  and  N_2
REMARK    2  A    between atoms: C_4  and  C_5
REMARK    3  A    between atoms: C_11  and  C_12
REMARK    4  A    between atoms: C_12  and  C_13
REMARK    5  A    between atoms: C_17  and  C_18
REMARK    6  A    between atoms: C_26  and  C_27
REMARK    7  A    between atoms: N_29  and  C_30
REMARK    8  A    between atoms: C_30  and  C_31
REMARK    9  A    between atoms: C_31  and  O_32
REMARK                            x       y       z     vdW  Elec       q    Type
REMARK                         _______ _______ _______ _____ _____    ______ ____
ROOT
ATOM      1  C   UNL     1       2.279   5.077  18.492  0.00  0.00    +0.000 A 
ATOM      2  C   UNL     1       1.375   4.039  18.785  0.00  0.00    +0.000 A 
ATOM      3  C   UNL     1       1.635   2.730  18.406  0.00  0.00    +0.000 A 
ATOM      4  C   UNL     1       2.815   2.422  17.730  0.00  0.00    +0.000 A 
ATOM      5  C   UNL     1       3.748   3.435  17.399  0.00  0.00    +0.000 A 
ATOM      6  C   UNL     1       5.019   3.323  16.733  0.00  0.00    +0.000 A 
ATOM      7  C   UNL     1       5.663   4.530  16.576  0.00  0.00    +0.000 A 
ATOM      8  S   UNL     1       4.708   5.808  17.163  0.00  0.00    +0.000 S 
ATOM      9  C   UNL     1       3.461   4.759  17.764  0.00  0.00    +0.000 A 
ENDROOT
BRANCH   1  13
ATOM     10  C   UNL     1       1.656   8.698  21.632  0.00  0.00    +0.000 C 
ATOM     11  N   UNL     1       1.734   8.056  20.340  0.00  0.00    +0.000 N 
ATOM     12  N   UNL     1       1.972   6.728  20.286  0.00  0.00    +0.000 NA
ATOM     13  C   UNL     1       2.008   6.431  18.978  0.00  0.00    +0.000 A 
ATOM     14  C   UNL     1       1.833   7.610  18.216  0.00  0.00    +0.000 A 
ATOM     15  C   UNL     1       1.619   8.648  19.103  0.00  0.00    +0.000 A 
BRANCH  15  16
ATOM     16  C   UNL     1       1.344  10.047  18.852  0.00  0.00    +0.000 C 
ATOM     17  O   UNL     1       2.056  10.767  18.161  0.00  0.00    +0.000 OA
ATOM     18  N   UNL     1       0.199  10.517  19.459  0.00  0.00    +0.000 N 
ATOM     19  H   UNL     1      -0.372   9.896  20.011  0.00  0.00    +0.000 HD
BRANCH  18  20
ATOM     20  C   UNL     1      -0.251  11.893  19.345  0.00  0.00    +0.000 C 
BRANCH  20  21
ATOM     21  C   UNL     1      -1.244  12.070  18.199  0.00  0.00    +0.000 C 
BRANCH  21  22
ATOM     22  O   UNL     1      -0.906  13.227  17.433  0.00  0.00    +0.000 OA
ATOM     23  H   UNL     1      -1.434  13.178  16.618  0.00  0.00    +0.000 HD
ENDBRANCH  21  22
ENDBRANCH  20  21
ENDBRANCH  18  20
ENDBRANCH  15  16
ENDBRANCH   1  13
BRANCH   7  24
ATOM     24  C   UNL     1       7.000   4.809  15.951  0.00  0.00    +0.000 C 
BRANCH  24  25
ATOM     25  C   UNL     1       6.975   4.743  14.436  0.00  0.00    +0.000 A 
ATOM     26  C   UNL     1       7.980   5.354  13.675  0.00  0.00    +0.000 A 
ATOM     27  C   UNL     1       7.958   5.286  12.281  0.00  0.00    +0.000 A 
ATOM     28  C   UNL     1       6.936   4.596  11.631  0.00  0.00    +0.000 A 
ATOM     29  C   UNL     1       5.926   3.963  12.368  0.00  0.00    +0.000 A 
ATOM     30  C   UNL     1       5.953   4.048  13.772  0.00  0.00    +0.000 A 
BRANCH  29  31
ATOM     31  C   UNL     1       4.826   3.191  11.683  0.00  0.00    +0.000 C 
ATOM     32  F   UNL     1       5.211   1.960  11.243  0.00  0.00    +0.000 F 
ATOM     33  F   UNL     1       3.756   2.976  12.501  0.00  0.00    +0.000 F 
ATOM     34  F   UNL     1       4.334   3.840  10.591  0.00  0.00    +0.000 F 
ENDBRANCH  29  31
ENDBRANCH  24  25
ENDBRANCH   7  24
TORSDOF 8
ENDMDL
MODEL 6
REMARK VINA RESULT:      -8.2      2.343      3.895
REMARK  Name = 
REMARK  9 active torsions:
REMARK  status: ('A' for Active; 'I' for Inactive)
REMARK    1  A    between atoms: C_1  and  N_2
REMARK    2  A    between atoms: C_4  and  C_5
REMARK    3  A    between atoms: C_11  and  C_12
REMARK    4  A    between atoms: C_12  and  C_13
REMARK    5  A    between atoms: C_17  and  C_18
REMARK    6  A    between atoms: C_26  and  C_27
REMARK    7  A    between atoms: N_29  and  C_30
REMARK    8  A    between atoms: C_30  and  C_31
REMARK    9  A    between atoms: C_31  and  O_32
REMARK                            x       y       z     vdW  Elec       q    Type
REMARK                         _______ _______ _______ _____ _____    ______ ____
ROOT
ATOM      1  C   UNL     1       6.829   4.949  16.882  0.00  0.00    +0.000 A 
ATOM      2  C   UNL     1       8.058   4.804  17.553  0.00  0.00    +0.000 A 
ATOM      3  C   UNL     1       8.147   4.939  18.930  0.00  0.00    +0.000 A 
ATOM      4  C   UNL     1       7.003   5.214  19.678  0.00  0.00    +0.000 A 
ATOM      5  C   UNL     1       5.746   5.385  19.047  0.00  0.00    +0.000 A 
ATOM      6  C   UNL     1       4.458   5.648  19.633  0.00  0.00    +0.000 A 
ATOM      7  C   UNL     1       3.447   5.756  18.706  0.00  0.00    +0.000 A 
ATOM      8  S   UNL     1       4.055   5.615  17.125  0.00  0.00    +0.000 S 
ATOM      9  C   UNL     1       5.674   5.273  17.650  0.00  0.00    +0.000 A 
ENDROOT
BRANCH   1  13
ATOM     10  C   UNL     1       7.913   5.396  12.194  0.00  0.00    +0.000 C 
ATOM     11  N   UNL     1       7.221   4.889  13.357  0.00  0.00    +0.000 N 
ATOM     12  N   UNL     1       7.540   5.387  14.571  0.00  0.00    +0.000 NA
ATOM     13  C   UNL     1       6.761   4.721  15.438  0.00  0.00    +0.000 A 
ATOM     14  C   UNL     1       5.983   3.765  14.744  0.00  0.00    +0.000 A 
ATOM     15  C   UNL     1       6.259   3.906  13.396  0.00  0.00    +0.000 A 
BRANCH  15  16
ATOM     16  C   UNL     1       5.707   3.210  12.254  0.00  0.00    +0.000 C 
ATOM     17  O   UNL     1       6.286   2.305  11.664  0.00  0.00    +0.000 OA
ATOM     18  N   UNL     1       4.456   3.648  11.874  0.00  0.00    +0.000 N 
ATOM     19  H   UNL     1       4.001   4.386  12.388  0.00  0.00    +0.000 HD
BRANCH  18  20
ATOM     20  C   UNL     1       3.730   3.092  10.746  0.00  0.00    +0.000 C 
BRANCH  20  21
ATOM     21  C   UNL     1       2.959   4.166   9.984  0.00  0.00    +0.000 C 
BRANCH  21  22
ATOM     22  O   UNL     1       3.217   4.052   8.584  0.00  0.00    +0.000 OA
ATOM     23  H   UNL     1       2.677   4.734   8.150  0.00  0.00    +0.000 HD
ENDBRANCH  21  22
ENDBRANCH  20  21
ENDBRANCH  18  20
ENDBRANCH  15  16
ENDBRANCH   1  13
BRANCH   7  24
ATOM     24  C   UNL     1       1.983   6.008  18.935  0.00  0.00    +0.000 C 
BRANCH  24  25
ATOM     25  C   UNL     1       1.669   7.457  19.250  0.00  0.00    +0.000 A 
ATOM     26  C   UNL     1       1.803   8.449  18.270  0.00  0.00    +0.000 A 
ATOM     27  C   UNL     1       1.507   9.782  18.561  0.00  0.00    +0.000 A 
ATOM     28  C   UNL     1       1.063  10.138  19.834  0.00  0.00    +0.000 A 
ATOM     29  C   UNL     1       0.905   9.163  20.828  0.00  0.00    +0.000 A 
ATOM     30  C   UNL     1       1.217   7.825  20.526  0.00  0.00    +0.000 A 
BRANCH  29  31
ATOM     31  C   UNL     1       0.401   9.525  22.204  0.00  0.00    +0.000 C 
ATOM     32  F   UNL     1       0.023  10.829  22.323  0.00  0.00    +0.000 F 
ATOM     33  F   UNL     1      -0.686   8.788  22.569  0.00  0.00    +0.000 F 
ATOM     34  F   UNL     1       1.334   9.317  23.173  0.00  0.00    +0.000 F 
ENDBRANCH  29  31
ENDBRANCH  24  25
ENDBRANCH   7  24
TORSDOF 8
ENDMDL
MODEL 7
REMARK VINA RESULT:      -8.0      5.671      9.309
REMARK  Name = 
REMARK  9 active torsions:
REMARK  status: ('A' for Active; 'I' for Inactive)
REMARK    1  A    between atoms: C_1  and  N_2
REMARK    2  A    between atoms: C_4  and  C_5
REMARK    3  A    between atoms: C_11  and  C_12
REMARK    4  A    between atoms: C_12  and  C_13
REMARK    5  A    between atoms: C_17  and  C_18
REMARK    6  A    between atoms: C_26  and  C_27
REMARK    7  A    between atoms: N_29  and  C_30
REMARK    8  A    between atoms: C_30  and  C_31
REMARK    9  A    between atoms: C_31  and  O_32
REMARK                            x       y       z     vdW  Elec       q    Type
REMARK                         _______ _______ _______ _____ _____    ______ ____
ROOT
ATOM      1  C   UNL     1       2.269   5.247  18.442  0.00  0.00    +0.000 A 
ATOM      2  C   UNL     1       1.385   4.203  18.773  0.00  0.00    +0.000 A 
ATOM      3  C   UNL     1       1.671   2.886  18.448  0.00  0.00    +0.000 A 
ATOM      4  C   UNL     1       2.859   2.575  17.787  0.00  0.00    +0.000 A 
ATOM      5  C   UNL     1       3.773   3.592  17.419  0.00  0.00    +0.000 A 
ATOM      6  C   UNL     1       5.048   3.479  16.761  0.00  0.00    +0.000 A 
ATOM      7  C   UNL     1       5.668   4.690  16.557  0.00  0.00    +0.000 A 
ATOM      8  S   UNL     1       4.687   5.972  17.091  0.00  0.00    +0.000 S 
ATOM      9  C   UNL     1       3.459   4.924  17.730  0.00  0.00    +0.000 A 
ENDROOT
BRANCH   1  13
ATOM     10  C   UNL     1       1.488   8.958  21.438  0.00  0.00    +0.000 C 
ATOM     11  N   UNL     1       1.627   8.278  20.170  0.00  0.00    +0.000 N 
ATOM     12  N   UNL     1       1.874   6.949  20.169  0.00  0.00    +0.000 NA
ATOM     13  C   UNL     1       1.970   6.613  18.873  0.00  0.00    +0.000 A 
ATOM     14  C   UNL     1       1.823   7.767  18.068  0.00  0.00    +0.000 A 
ATOM     15  C   UNL     1       1.565   8.831  18.912  0.00  0.00    +0.000 A 
BRANCH  15  16
ATOM     16  C   UNL     1       1.295  10.219  18.606  0.00  0.00    +0.000 C 
ATOM     17  O   UNL     1       0.169  10.703  18.575  0.00  0.00    +0.000 OA
ATOM     18  N   UNL     1       2.421  10.971  18.345  0.00  0.00    +0.000 N 
ATOM     19  H   UNL     1       3.334  10.546  18.391  0.00  0.00    +0.000 HD
BRANCH  18  20
ATOM     20  C   UNL     1       2.371  12.382  18.005  0.00  0.00    +0.000 C 
BRANCH  20  21
ATOM     21  C   UNL     1       2.469  13.267  19.244  0.00  0.00    +0.000 C 
BRANCH  21  22
ATOM     22  O   UNL     1       1.215  13.291  19.928  0.00  0.00    +0.000 OA
ATOM     23  H   UNL     1       1.238  12.557  20.566  0.00  0.00    +0.000 HD
ENDBRANCH  21  22
ENDBRANCH  20  21
ENDBRANCH  18  20
ENDBRANCH  15  16
ENDBRANCH   1  13
BRANCH   7  24
ATOM     24  C   UNL     1       7.002   4.971  15.924  0.00  0.00    +0.000 C 
BRANCH  24  25
ATOM     25  C   UNL     1       6.988   4.825  14.415  0.00  0.00    +0.000 A 
ATOM     26  C   UNL     1       8.000   5.393  13.631  0.00  0.00    +0.000 A 
ATOM     27  C   UNL     1       7.988   5.251  12.242  0.00  0.00    +0.000 A 
ATOM     28  C   UNL     1       6.969   4.531  11.621  0.00  0.00    +0.000 A 
ATOM     29  C   UNL     1       5.952   3.939  12.384  0.00  0.00    +0.000 A 
ATOM     30  C   UNL     1       5.969   4.099  13.781  0.00  0.00    +0.000 A 
BRANCH  29  31
ATOM     31  C   UNL     1       4.855   3.135  11.732  0.00  0.00    +0.000 C 
ATOM     32  F   UNL     1       4.371   3.694  10.587  0.00  0.00    +0.000 F 
ATOM     33  F   UNL     1       5.264   1.881  11.389  0.00  0.00    +0.000 F 
ATOM     34  F   UNL     1       3.777   2.964  12.548  0.00  0.00    +0.000 F 
ENDBRANCH  29  31
ENDBRANCH  24  25
ENDBRANCH   7  24
TORSDOF 8
ENDMDL
MODEL 8
REMARK VINA RESULT:      -8.0      5.566      9.379
REMARK  Name = 
REMARK  9 active torsions:
REMARK  status: ('A' for Active; 'I' for Inactive)
REMARK    1  A    between atoms: C_1  and  N_2
REMARK    2  A    between atoms: C_4  and  C_5
REMARK    3  A    between atoms: C_11  and  C_12
REMARK    4  A    between atoms: C_12  and  C_13
REMARK    5  A    between atoms: C_17  and  C_18
REMARK    6  A    between atoms: C_26  and  C_27
REMARK    7  A    between atoms: N_29  and  C_30
REMARK    8  A    between atoms: C_30  and  C_31
REMARK    9  A    between atoms: C_31  and  O_32
REMARK                            x       y       z     vdW  Elec       q    Type
REMARK                         _______ _______ _______ _____ _____    ______ ____
ROOT
ATOM      1  C   UNL     1       2.274   5.180  18.450  0.00  0.00    +0.000 A 
ATOM      2  C   UNL     1       1.368   4.149  18.761  0.00  0.00    +0.000 A 
ATOM      3  C   UNL     1       1.625   2.833  18.407  0.00  0.00    +0.000 A 
ATOM      4  C   UNL     1       2.804   2.510  17.738  0.00  0.00    +0.000 A 
ATOM      5  C   UNL     1       3.740   3.515  17.388  0.00  0.00    +0.000 A 
ATOM      6  C   UNL     1       5.011   3.388  16.725  0.00  0.00    +0.000 A 
ATOM      7  C   UNL     1       5.657   4.589  16.546  0.00  0.00    +0.000 A 
ATOM      8  S   UNL     1       4.705   5.880  17.109  0.00  0.00    +0.000 S 
ATOM      9  C   UNL     1       3.456   4.846  17.728  0.00  0.00    +0.000 A 
ENDROOT
BRANCH   1  13
ATOM     10  C   UNL     1       1.477   8.824  21.523  0.00  0.00    +0.000 C 
ATOM     11  N   UNL     1       1.658   8.179  20.243  0.00  0.00    +0.000 N 
ATOM     12  N   UNL     1       1.853   6.842  20.209  0.00  0.00    +0.000 NA
ATOM     13  C   UNL     1       2.006   6.544  18.910  0.00  0.00    +0.000 A 
ATOM     14  C   UNL     1       1.948   7.727  18.137  0.00  0.00    +0.000 A 
ATOM     15  C   UNL     1       1.686   8.773  19.002  0.00  0.00    +0.000 A 
BRANCH  15  16
ATOM     16  C   UNL     1       1.488  10.180  18.728  0.00  0.00    +0.000 C 
ATOM     17  O   UNL     1       2.272  10.865  18.081  0.00  0.00    +0.000 OA
ATOM     18  N   UNL     1       0.328  10.703  19.261  0.00  0.00    +0.000 N 
ATOM     19  H   UNL     1      -0.302  10.111  19.778  0.00  0.00    +0.000 HD
BRANCH  18  20
ATOM     20  C   UNL     1      -0.055  12.096  19.113  0.00  0.00    +0.000 C 
BRANCH  20  21
ATOM     21  C   UNL     1       0.480  12.954  20.257  0.00  0.00    +0.000 C 
BRANCH  21  22
ATOM     22  O   UNL     1       1.490  12.242  20.972  0.00  0.00    +0.000 OA
ATOM     23  H   UNL     1       1.035  11.773  21.692  0.00  0.00    +0.000 HD
ENDBRANCH  21  22
ENDBRANCH  20  21
ENDBRANCH  18  20
ENDBRANCH  15  16
ENDBRANCH   1  13
BRANCH   7  24
ATOM     24  C   UNL     1       6.996   4.854  15.916  0.00  0.00    +0.000 C 
BRANCH  24  25
ATOM     25  C   UNL     1       6.973   4.752  14.403  0.00  0.00    +0.000 A 
ATOM     26  C   UNL     1       7.982   5.340  13.630  0.00  0.00    +0.000 A 
ATOM     27  C   UNL     1       7.962   5.239  12.237  0.00  0.00    +0.000 A 
ATOM     28  C   UNL     1       6.937   4.539  11.602  0.00  0.00    +0.000 A 
ATOM     29  C   UNL     1       5.924   3.928  12.353  0.00  0.00    +0.000 A 
ATOM     30  C   UNL     1       5.949   4.046  13.754  0.00  0.00    +0.000 A 
BRANCH  29  31
ATOM     31  C   UNL     1       4.821   3.144  11.684  0.00  0.00    +0.000 C 
ATOM     32  F   UNL     1       3.732   2.943  12.479  0.00  0.00    +0.000 F 
ATOM     33  F   UNL     1       4.353   3.761  10.562  0.00  0.00    +0.000 F 
ATOM     34  F   UNL     1       5.227   1.906  11.287  0.00  0.00    +0.000 F 
ENDBRANCH  29  31
ENDBRANCH  24  25
ENDBRANCH   7  24
TORSDOF 8
ENDMDL
MODEL 9
REMARK VINA RESULT:      -7.8      1.630      1.907
REMARK  Name = 
REMARK  9 active torsions:
REMARK  status: ('A' for Active; 'I' for Inactive)
REMARK    1  A    between atoms: C_1  and  N_2
REMARK    2  A    between atoms: C_4  and  C_5
REMARK    3  A    between atoms: C_11  and  C_12
REMARK    4  A    between atoms: C_12  and  C_13
REMARK    5  A    between atoms: C_17  and  C_18
REMARK    6  A    between atoms: C_26  and  C_27
REMARK    7  A    between atoms: N_29  and  C_30
REMARK    8  A    between atoms: C_30  and  C_31
REMARK    9  A    between atoms: C_31  and  O_32
REMARK                            x       y       z     vdW  Elec       q    Type
REMARK                         _______ _______ _______ _____ _____    ______ ____
ROOT
ATOM      1  C   UNL     1       3.182   4.174  18.297  0.00  0.00    +0.000 A 
ATOM      2  C   UNL     1       2.675   2.865  18.193  0.00  0.00    +0.000 A 
ATOM      3  C   UNL     1       1.565   2.463  18.919  0.00  0.00    +0.000 A 
ATOM      4  C   UNL     1       0.923   3.365  19.767  0.00  0.00    +0.000 A 
ATOM      5  C   UNL     1       1.405   4.688  19.918  0.00  0.00    +0.000 A 
ATOM      6  C   UNL     1       0.880   5.766  20.715  0.00  0.00    +0.000 A 
ATOM      7  C   UNL     1       1.615   6.925  20.620  0.00  0.00    +0.000 A 
ATOM      8  S   UNL     1       2.979   6.700  19.631  0.00  0.00    +0.000 S 
ATOM      9  C   UNL     1       2.546   5.075  19.198  0.00  0.00    +0.000 A 
ENDROOT
BRANCH   1  13
ATOM     10  C   UNL     1       7.248   6.441  17.000  0.00  0.00    +0.000 C 
ATOM     11  N   UNL     1       6.108   5.566  16.852  0.00  0.00    +0.000 N 
ATOM     12  N   UNL     1       5.226   5.469  17.871  0.00  0.00    +0.000 NA
ATOM     13  C   UNL     1       4.307   4.585  17.455  0.00  0.00    +0.000 A 
ATOM     14  C   UNL     1       4.658   4.097  16.174  0.00  0.00    +0.000 A 
ATOM     15  C   UNL     1       5.801   4.764  15.777  0.00  0.00    +0.000 A 
BRANCH  15  16
ATOM     16  C   UNL     1       6.550   4.675  14.541  0.00  0.00    +0.000 C 
ATOM     17  O   UNL     1       7.583   5.298  14.325  0.00  0.00    +0.000 OA
ATOM     18  N   UNL     1       6.001   3.821  13.607  0.00  0.00    +0.000 N 
ATOM     19  H   UNL     1       5.157   3.314  13.821  0.00  0.00    +0.000 HD
BRANCH  18  20
ATOM     20  C   UNL     1       6.587   3.597  12.298  0.00  0.00    +0.000 C 
BRANCH  20  21
ATOM     21  C   UNL     1       6.072   2.309  11.660  0.00  0.00    +0.000 C 
BRANCH  21  22
ATOM     22  O   UNL     1       7.169   1.512  11.212  0.00  0.00    +0.000 OA
ATOM     23  H   UNL     1       6.794   0.844  10.614  0.00  0.00    +0.000 HD
ENDBRANCH  21  22
ENDBRANCH  20  21
ENDBRANCH  18  20
ENDBRANCH  15  16
ENDBRANCH   1  13
BRANCH   7  24
ATOM     24  C   UNL     1       1.372   8.251  21.284  0.00  0.00    +0.000 C 
BRANCH  24  25
ATOM     25  C   UNL     1       0.795   9.291  20.344  0.00  0.00    +0.000 A 
ATOM     26  C   UNL     1      -0.549   9.237  19.952  0.00  0.00    +0.000 A 
ATOM     27  C   UNL     1      -1.079  10.200  19.092  0.00  0.00    +0.000 A 
ATOM     28  C   UNL     1      -0.274  11.237  18.621  0.00  0.00    +0.000 A 
ATOM     29  C   UNL     1       1.069  11.324  19.010  0.00  0.00    +0.000 A 
ATOM     30  C   UNL     1       1.595  10.341  19.868  0.00  0.00    +0.000 A 
BRANCH  29  31
ATOM     31  C   UNL     1       1.949  12.453  18.532  0.00  0.00    +0.000 C 
ATOM     32  F   UNL     1       2.656  13.057  19.528  0.00  0.00    +0.000 F 
ATOM     33  F   UNL     1       2.873  12.039  17.619  0.00  0.00    +0.000 F 
ATOM     34  F   UNL     1       1.241  13.444  17.923  0.00  0.00    +0.000 F 
ENDBRANCH  29  31
ENDBRANCH  24  25
ENDBRANCH   7  24
TORSDOF 8
ENDMDL
