MODEL 1
REMARK VINA RESULT:      -6.2      0.000      0.000
REMARK  Name = 
REMARK  4 active torsions:
REMARK  status: ('A' for Active; 'I' for Inactive)
REMARK    1  A    between atoms: C_1  and  C_2
REMARK    2  A    between atoms: C_2  and  C_3
REMARK    3  A    between atoms: C_3  and  C_4
REMARK    4  A    between atoms: C_9  and  C_10
REMARK                            x       y       z     vdW  Elec       q    Type
REMARK                         _______ _______ _______ _____ _____    ______ ____
ROOT
ATOM      1  C   UNL     1       2.209   3.406  18.365  0.00  0.00    +0.000 C 
ATOM      2  O   UNL     1       2.158   2.945  17.230  0.00  0.00    +0.000 OA
ATOM      3  N   UNL     1       3.315   3.961  18.962  0.00  0.00    +0.000 N 
ATOM      4  C   UNL     1       4.504   4.131  18.297  0.00  0.00    +0.000 A 
ATOM      5  C   UNL     1       4.714   4.390  16.924  0.00  0.00    +0.000 A 
ATOM      6  C   UNL     1       6.083   4.421  16.768  0.00  0.00    +0.000 A 
ATOM      7  C   UNL     1       6.937   4.643  15.585  0.00  0.00    +0.000 C 
ATOM      8  N   UNL     1       6.590   4.152  18.009  0.00  0.00    +0.000 N 
ATOM      9  N   UNL     1       5.653   4.088  18.972  0.00  0.00    +0.000 NA
ATOM     10  H   UNL     1       3.404   3.971  19.968  0.00  0.00    +0.000 HD
ATOM     11  H   UNL     1       7.559   4.009  18.271  0.00  0.00    +0.000 HD
ENDROOT
BRANCH   1  12
ATOM     12  C   UNL     1       0.978   3.427  19.249  0.00  0.00    +0.000 C 
BRANCH  12  14
ATOM     13  C   UNL     1       1.449   2.656  21.618  0.00  0.00    +0.000 C 
ATOM     14  C   UNL     1       1.330   3.846  20.674  0.00  0.00    +0.000 C 
ENDBRANCH  12  14
ENDBRANCH   1  12
TORSDOF 2
ENDMDL
MODEL 2
REMARK VINA RESULT:      -6.0      0.957      1.047
REMARK  Name = 
REMARK  4 active torsions:
REMARK  status: ('A' for Active; 'I' for Inactive)
REMARK    1  A    between atoms: C_1  and  C_2
REMARK    2  A    between atoms: C_2  and  C_3
REMARK    3  A    between atoms: C_3  and  C_4
REMARK    4  A    between atoms: C_9  and  C_10
REMARK                            x       y       z     vdW  Elec       q    Type
REMARK                         _______ _______ _______ _____ _____    ______ ____
ROOT
ATOM      1  C   UNL     1       2.837   4.593  19.129  0.00  0.00    +0.000 C 
ATOM      2  O   UNL     1       2.446   4.163  18.050  0.00  0.00    +0.000 OA
ATOM      3  N   UNL     1       4.142   4.863  19.466  0.00  0.00    +0.000 N 
ATOM      4  C   UNL     1       5.174   4.745  18.568  0.00  0.00    +0.000 A 
ATOM      5  C   UNL     1       5.152   4.952  17.172  0.00  0.00    +0.000 A 
ATOM      6  C   UNL     1       6.427   4.655  16.743  0.00  0.00    +0.000 A 
ATOM      7  C   UNL     1       7.048   4.670  15.403  0.00  0.00    +0.000 C 
ATOM      8  N   UNL     1       7.100   4.266  17.867  0.00  0.00    +0.000 N 
ATOM      9  N   UNL     1       6.394   4.424  19.001  0.00  0.00    +0.000 NA
ATOM     10  H   UNL     1       4.436   4.847  20.433  0.00  0.00    +0.000 HD
ATOM     11  H   UNL     1       8.042   3.893  17.936  0.00  0.00    +0.000 HD
ENDROOT
BRANCH   1  12
ATOM     12  C   UNL     1       1.855   4.905  20.240  0.00  0.00    +0.000 C 
BRANCH  12  14
ATOM     13  C   UNL     1       1.612   2.752  21.559  0.00  0.00    +0.000 C 
ATOM     14  C   UNL     1       0.972   3.698  20.549  0.00  0.00    +0.000 C 
ENDBRANCH  12  14
ENDBRANCH   1  12
TORSDOF 2
ENDMDL
MODEL 3
REMARK VINA RESULT:      -6.0      1.328      1.800
REMARK  Name = 
REMARK  4 active torsions:
REMARK  status: ('A' for Active; 'I' for Inactive)
REMARK    1  A    between atoms: C_1  and  C_2
REMARK    2  A    between atoms: C_2  and  C_3
REMARK    3  A    between atoms: C_3  and  C_4
REMARK    4  A    between atoms: C_9  and  C_10
REMARK                            x       y       z     vdW  Elec       q    Type
REMARK                         _______ _______ _______ _____ _____    ______ ____
ROOT
ATOM      1  C   UNL     1       4.223   2.995  19.002  0.00  0.00    +0.000 C 
ATOM      2  O   UNL     1       3.822   2.396  18.010  0.00  0.00    +0.000 OA
ATOM      3  N   UNL     1       5.311   3.834  19.053  0.00  0.00    +0.000 N 
ATOM      4  C   UNL     1       6.044   4.158  17.939  0.00  0.00    +0.000 A 
ATOM      5  C   UNL     1       5.605   4.282  16.603  0.00  0.00    +0.000 A 
ATOM      6  C   UNL     1       6.738   4.572  15.875  0.00  0.00    +0.000 A 
ATOM      7  C   UNL     1       6.953   4.814  14.435  0.00  0.00    +0.000 C 
ATOM      8  N   UNL     1       7.758   4.568  16.786  0.00  0.00    +0.000 N 
ATOM      9  N   UNL     1       7.344   4.434  18.058  0.00  0.00    +0.000 NA
ATOM     10  H   UNL     1       5.800   3.987  19.924  0.00  0.00    +0.000 HD
ATOM     11  H   UNL     1       8.753   4.659  16.612  0.00  0.00    +0.000 HD
ENDROOT
BRANCH   1  12
ATOM     12  C   UNL     1       3.497   2.874  20.326  0.00  0.00    +0.000 C 
BRANCH  12  14
ATOM     13  C   UNL     1       1.129   3.771  20.184  0.00  0.00    +0.000 C 
ATOM     14  C   UNL     1       2.023   2.538  20.116  0.00  0.00    +0.000 C 
ENDBRANCH  12  14
ENDBRANCH   1  12
TORSDOF 2
ENDMDL
MODEL 4
REMARK VINA RESULT:      -5.8      2.204      2.914
REMARK  Name = 
REMARK  4 active torsions:
REMARK  status: ('A' for Active; 'I' for Inactive)
REMARK    1  A    between atoms: C_1  and  C_2
REMARK    2  A    between atoms: C_2  and  C_3
REMARK    3  A    between atoms: C_3  and  C_4
REMARK    4  A    between atoms: C_9  and  C_10
REMARK                            x       y       z     vdW  Elec       q    Type
REMARK                         _______ _______ _______ _____ _____    ______ ____
ROOT
ATOM      1  C   UNL     1       4.359   3.761  18.522  0.00  0.00    +0.000 C 
ATOM      2  O   UNL     1       3.882   4.788  18.993  0.00  0.00    +0.000 OA
ATOM      3  N   UNL     1       5.475   3.681  17.725  0.00  0.00    +0.000 N 
ATOM      4  C   UNL     1       6.246   4.776  17.424  0.00  0.00    +0.000 A 
ATOM      5  C   UNL     1       6.497   5.919  18.216  0.00  0.00    +0.000 A 
ATOM      6  C   UNL     1       7.286   6.734  17.434  0.00  0.00    +0.000 A 
ATOM      7  C   UNL     1       7.880   8.063  17.678  0.00  0.00    +0.000 C 
ATOM      8  N   UNL     1       7.423   6.067  16.249  0.00  0.00    +0.000 N 
ATOM      9  N   UNL     1       6.899   4.828  16.263  0.00  0.00    +0.000 NA
ATOM     10  H   UNL     1       5.593   2.909  17.084  0.00  0.00    +0.000 HD
ATOM     11  H   UNL     1       7.868   6.390  15.396  0.00  0.00    +0.000 HD
ENDROOT
BRANCH   1  12
ATOM     12  C   UNL     1       3.733   2.412  18.815  0.00  0.00    +0.000 C 
BRANCH  12  14
ATOM     13  C   UNL     1       1.199   2.386  18.726  0.00  0.00    +0.000 C 
ATOM     14  C   UNL     1       2.496   2.181  17.951  0.00  0.00    +0.000 C 
ENDBRANCH  12  14
ENDBRANCH   1  12
TORSDOF 2
ENDMDL
MODEL 5
REMARK VINA RESULT:      -5.8      2.264      5.354
REMARK  Name = 
REMARK  4 active torsions:
REMARK  status: ('A' for Active; 'I' for Inactive)
REMARK    1  A    between atoms: C_1  and  C_2
REMARK    2  A    between atoms: C_2  and  C_3
REMARK    3  A    between atoms: C_3  and  C_4
REMARK    4  A    between atoms: C_9  and  C_10
REMARK                            x       y       z     vdW  Elec       q    Type
REMARK                         _______ _______ _______ _____ _____    ______ ____
ROOT
ATOM      1  C   UNL     1       6.083   4.396  18.275  0.00  0.00    +0.000 C 
ATOM      2  O   UNL     1       5.996   4.758  19.444  0.00  0.00    +0.000 OA
ATOM      3  N   UNL     1       5.195   3.583  17.613  0.00  0.00    +0.000 N 
ATOM      4  C   UNL     1       4.033   3.136  18.193  0.00  0.00    +0.000 A 
ATOM      5  C   UNL     1       3.224   3.782  19.154  0.00  0.00    +0.000 A 
ATOM      6  C   UNL     1       2.213   2.889  19.434  0.00  0.00    +0.000 A 
ATOM      7  C   UNL     1       1.058   2.960  20.350  0.00  0.00    +0.000 C 
ATOM      8  N   UNL     1       2.491   1.786  18.675  0.00  0.00    +0.000 N 
ATOM      9  N   UNL     1       3.523   1.958  17.830  0.00  0.00    +0.000 NA
ATOM     10  H   UNL     1       5.495   3.034  16.821  0.00  0.00    +0.000 HD
ATOM     11  H   UNL     1       2.016   0.889  18.676  0.00  0.00    +0.000 HD
ENDROOT
BRANCH   1  12
ATOM     12  C   UNL     1       7.233   4.861  17.405  0.00  0.00    +0.000 C 
BRANCH  12  14
ATOM     13  C   UNL     1       7.632   7.355  17.637  0.00  0.00    +0.000 C 
ATOM     14  C   UNL     1       6.961   6.249  16.830  0.00  0.00    +0.000 C 
ENDBRANCH  12  14
ENDBRANCH   1  12
TORSDOF 2
ENDMDL
MODEL 6
REMARK VINA RESULT:      -5.8      1.237      1.502
REMARK  Name = 
REMARK  4 active torsions:
REMARK  status: ('A' for Active; 'I' for Inactive)
REMARK    1  A    between atoms: C_1  and  C_2
REMARK    2  A    between atoms: C_2  and  C_3
REMARK    3  A    between atoms: C_3  and  C_4
REMARK    4  A    between atoms: C_9  and  C_10
REMARK                            x       y       z     vdW  Elec       q    Type
REMARK                         _______ _______ _______ _____ _____    ______ ____
ROOT
ATOM      1  C   UNL     1       3.487   2.706  19.624  0.00  0.00    +0.000 C 
ATOM      2  O   UNL     1       3.199   1.884  18.762  0.00  0.00    +0.000 OA
ATOM      3  N   UNL     1       4.447   3.684  19.519  0.00  0.00    +0.000 N 
ATOM      4  C   UNL     1       5.158   3.898  18.363  0.00  0.00    +0.000 A 
ATOM      5  C   UNL     1       4.740   3.710  17.027  0.00  0.00    +0.000 A 
ATOM      6  C   UNL     1       5.841   4.017  16.258  0.00  0.00    +0.000 A 
ATOM      7  C   UNL     1       6.058   4.018  14.798  0.00  0.00    +0.000 C 
ATOM      8  N   UNL     1       6.827   4.324  17.154  0.00  0.00    +0.000 N 
ATOM      9  N   UNL     1       6.403   4.371  18.429  0.00  0.00    +0.000 NA
ATOM     10  H   UNL     1       4.887   4.062  20.346  0.00  0.00    +0.000 HD
ATOM     11  H   UNL     1       7.805   4.521  16.966  0.00  0.00    +0.000 HD
ENDROOT
BRANCH   1  12
ATOM     12  C   UNL     1       2.750   2.730  20.948  0.00  0.00    +0.000 C 
BRANCH  12  14
ATOM     13  C   UNL     1       1.068   4.575  20.503  0.00  0.00    +0.000 C 
ATOM     14  C   UNL     1       1.279   3.087  20.752  0.00  0.00    +0.000 C 
ENDBRANCH  12  14
ENDBRANCH   1  12
TORSDOF 2
ENDMDL
MODEL 7
REMARK VINA RESULT:      -5.8      2.332      5.257
REMARK  Name = 
REMARK  4 active torsions:
REMARK  status: ('A' for Active; 'I' for Inactive)
REMARK    1  A    between atoms: C_1  and  C_2
REMARK    2  A    between atoms: C_2  and  C_3
REMARK    3  A    between atoms: C_3  and  C_4
REMARK    4  A    between atoms: C_9  and  C_10
REMARK                            x       y       z     vdW  Elec       q    Type
REMARK                         _______ _______ _______ _____ _____    ______ ____
ROOT
ATOM      1  C   UNL     1       5.955   5.260  17.985  0.00  0.00    +0.000 C 
ATOM      2  O   UNL     1       5.008   6.008  17.766  0.00  0.00    +0.000 OA
ATOM      3  N   UNL     1       5.886   4.023  18.578  0.00  0.00    +0.000 N 
ATOM      4  C   UNL     1       4.693   3.442  18.933  0.00  0.00    +0.000 A 
ATOM      5  C   UNL     1       3.432   3.572  18.311  0.00  0.00    +0.000 A 
ATOM      6  C   UNL     1       2.569   2.829  19.086  0.00  0.00    +0.000 A 
ATOM      7  C   UNL     1       1.121   2.564  18.976  0.00  0.00    +0.000 C 
ATOM      8  N   UNL     1       3.334   2.347  20.111  0.00  0.00    +0.000 N 
ATOM      9  N   UNL     1       4.646   2.610  19.975  0.00  0.00    +0.000 NA
ATOM     10  H   UNL     1       6.687   3.639  19.058  0.00  0.00    +0.000 HD
ATOM     11  H   UNL     1       3.031   1.826  20.927  0.00  0.00    +0.000 HD
ENDROOT
BRANCH   1  12
ATOM     12  C   UNL     1       7.360   5.650  17.573  0.00  0.00    +0.000 C 
BRANCH  12  14
ATOM     13  C   UNL     1       7.840   8.139  17.649  0.00  0.00    +0.000 C 
ATOM     14  C   UNL     1       7.874   6.819  18.410  0.00  0.00    +0.000 C 
ENDBRANCH  12  14
ENDBRANCH   1  12
TORSDOF 2
ENDMDL
MODEL 8
REMARK VINA RESULT:      -5.8      1.868      5.264
REMARK  Name = 
REMARK  4 active torsions:
REMARK  status: ('A' for Active; 'I' for Inactive)
REMARK    1  A    between atoms: C_1  and  C_2
REMARK    2  A    between atoms: C_2  and  C_3
REMARK    3  A    between atoms: C_3  and  C_4
REMARK    4  A    between atoms: C_9  and  C_10
REMARK                            x       y       z     vdW  Elec       q    Type
REMARK                         _______ _______ _______ _____ _____    ______ ____
ROOT
ATOM      1  C   UNL     1       6.024   4.778  18.041  0.00  0.00    +0.000 C 
ATOM      2  O   UNL     1       5.412   5.827  18.209  0.00  0.00    +0.000 OA
ATOM      3  N   UNL     1       5.688   3.554  18.565  0.00  0.00    +0.000 N 
ATOM      4  C   UNL     1       4.544   3.356  19.299  0.00  0.00    +0.000 A 
ATOM      5  C   UNL     1       3.298   4.009  19.178  0.00  0.00    +0.000 A 
ATOM      6  C   UNL     1       2.513   3.479  20.179  0.00  0.00    +0.000 A 
ATOM      7  C   UNL     1       1.118   3.740  20.585  0.00  0.00    +0.000 C 
ATOM      8  N   UNL     1       3.324   2.597  20.839  0.00  0.00    +0.000 N 
ATOM      9  N   UNL     1       4.521   2.422  20.251  0.00  0.00    +0.000 NA
ATOM     10  H   UNL     1       6.393   2.845  18.708  0.00  0.00    +0.000 HD
ATOM     11  H   UNL     1       3.124   2.076  21.686  0.00  0.00    +0.000 HD
ENDROOT
BRANCH   1  12
ATOM     12  C   UNL     1       7.263   4.737  17.169  0.00  0.00    +0.000 C 
BRANCH  12  14
ATOM     13  C   UNL     1       6.103   3.981  15.044  0.00  0.00    +0.000 C 
ATOM     14  C   UNL     1       6.927   5.072  15.718  0.00  0.00    +0.000 C 
ENDBRANCH  12  14
ENDBRANCH   1  12
TORSDOF 2
ENDMDL
MODEL 9
REMARK VINA RESULT:      -5.8      2.001      5.410
REMARK  Name = 
REMARK  4 active torsions:
REMARK  status: ('A' for Active; 'I' for Inactive)
REMARK    1  A    between atoms: C_1  and  C_2
REMARK    2  A    between atoms: C_2  and  C_3
REMARK    3  A    between atoms: C_3  and  C_4
REMARK    4  A    between atoms: C_9  and  C_10
REMARK                            x       y       z     vdW  Elec       q    Type
REMARK                         _______ _______ _______ _____ _____    ______ ____
ROOT
ATOM      1  C   UNL     1       5.680   4.049  17.709  0.00  0.00    +0.000 C 
ATOM      2  O   UNL     1       5.983   4.257  18.878  0.00  0.00    +0.000 OA
ATOM      3  N   UNL     1       4.540   3.421  17.269  0.00  0.00    +0.000 N 
ATOM      4  C   UNL     1       3.547   3.013  18.126  0.00  0.00    +0.000 A 
ATOM      5  C   UNL     1       3.144   3.597  19.347  0.00  0.00    +0.000 A 
ATOM      6  C   UNL     1       2.150   2.774  19.830  0.00  0.00    +0.000 A 
ATOM      7  C   UNL     1       1.329   2.831  21.055  0.00  0.00    +0.000 C 
ATOM      8  N   UNL     1       2.049   1.762  18.916  0.00  0.00    +0.000 N 
ATOM      9  N   UNL     1       2.804   1.948  17.819  0.00  0.00    +0.000 NA
ATOM     10  H   UNL     1       4.522   2.958  16.372  0.00  0.00    +0.000 HD
ATOM     11  H   UNL     1       1.481   0.923  18.971  0.00  0.00    +0.000 HD
ENDROOT
BRANCH   1  12
ATOM     12  C   UNL     1       6.579   4.516  16.581  0.00  0.00    +0.000 C 
BRANCH  12  14
ATOM     13  C   UNL     1       6.225   4.066  14.111  0.00  0.00    +0.000 C 
ATOM     14  C   UNL     1       5.767   4.852  15.333  0.00  0.00    +0.000 C 
ENDBRANCH  12  14
ENDBRANCH   1  12
TORSDOF 2
ENDMDL
