MODEL 1
REMARK VINA RESULT:      -8.3      0.000      0.000
REMARK  Name = 
REMARK  10 active torsions:
REMARK  status: ('A' for Active; 'I' for Inactive)
REMARK    1  A    between atoms: C_2  and  C_3
REMARK    2  A    between atoms: C_3  and  C_4
REMARK    3  A    between atoms: C_4  and  C_5
REMARK    4  A    between atoms: C_5  and  C_6
REMARK    5  A    between atoms: C_6  and  C_7
REMARK    6  A    between atoms: C_7  and  N_8
REMARK    7  A    between atoms: N_8  and  C_9
REMARK    8  A    between atoms: C_9  and  C_10
REMARK    9  A    between atoms: C_19  and  C_21
REMARK   10  A    between atoms: N_27  and  O_28
REMARK                            x       y       z     vdW  Elec       q    Type
REMARK                         _______ _______ _______ _____ _____    ______ ____
ROOT
ATOM      1  N   UNL     1       3.073   6.777  18.380  0.00  0.00    +0.000 N 
ATOM      2  C   UNL     1       2.405   7.997  18.325  0.00  0.00    +0.000 C 
ATOM      3  O   UNL     1       2.409   8.645  17.278  0.00  0.00    +0.000 OA
ATOM      4  N   UNL     1       1.742   8.400  19.459  0.00  0.00    +0.000 N 
ATOM      5  C   UNL     1       1.090   9.621  19.531  0.00  0.00    +0.000 C 
ATOM      6  O   UNL     1       1.018  10.458  18.638  0.00  0.00    +0.000 OA
ATOM      7  H   UNL     1       1.932   7.915  20.321  0.00  0.00    +0.000 HD
ENDROOT
BRANCH   5   8
ATOM      8  C   UNL     1       0.422   9.963  20.817  0.00  0.00    +0.000 A 
ATOM      9  C   UNL     1      -0.409  11.096  20.840  0.00  0.00    +0.000 A 
ATOM     10  C   UNL     1      -1.122  11.432  21.989  0.00  0.00    +0.000 A 
ATOM     11  C   UNL     1      -1.017  10.632  23.124  0.00  0.00    +0.000 A 
ATOM     12  C   UNL     1      -0.206   9.495  23.107  0.00  0.00    +0.000 A 
ATOM     13  C   UNL     1       0.515   9.156  21.956  0.00  0.00    +0.000 A 
ENDBRANCH   5   8
BRANCH   1  14
ATOM     14  C   UNL     1       3.899   6.440  17.219  0.00  0.00    +0.000 C 
BRANCH  14  15
ATOM     15  C   UNL     1       5.369   6.862  17.304  0.00  0.00    +0.000 C 
BRANCH  15  16
ATOM     16  C   UNL     1       6.335   5.938  18.065  0.00  0.00    +0.000 C 
BRANCH  16  17
ATOM     17  C   UNL     1       7.251   5.245  17.043  0.00  0.00    +0.000 C 
BRANCH  17  18
ATOM     18  C   UNL     1       6.568   4.201  16.162  0.00  0.00    +0.000 C 
BRANCH  18  20
ATOM     19  O   UNL     1       6.149   3.996  13.767  0.00  0.00    +0.000 OA
ATOM     20  C   UNL     1       6.789   4.504  14.690  0.00  0.00    +0.000 C 
ATOM     21  N   UNL     1       7.784   5.413  14.447  0.00  0.00    +0.000 N 
ATOM     22  H   UNL     1       8.396   5.810  15.150  0.00  0.00    +0.000 HD
BRANCH  21  23
ATOM     23  O   UNL     1       8.056   5.720  13.093  0.00  0.00    +0.000 OA
ATOM     24  H   UNL     1       7.799   4.888  12.637  0.00  0.00    +0.000 HD
ENDBRANCH  21  23
ENDBRANCH  18  20
ENDBRANCH  17  18
ENDBRANCH  16  17
ENDBRANCH  15  16
ENDBRANCH  14  15
ENDBRANCH   1  14
BRANCH   1  25
ATOM     25  C   UNL     1       3.080   5.848  19.519  0.00  0.00    +0.000 C 
BRANCH  25  26
ATOM     26  C   UNL     1       3.063   4.385  19.112  0.00  0.00    +0.000 A 
ATOM     27  C   UNL     1       2.076   3.890  18.256  0.00  0.00    +0.000 A 
ATOM     28  C   UNL     1       2.113   2.552  17.874  0.00  0.00    +0.000 A 
ATOM     29  C   UNL     1       3.110   1.730  18.377  0.00  0.00    +0.000 A 
ATOM     30  C   UNL     1       4.037   2.287  19.244  0.00  0.00    +0.000 A 
ATOM     31  N   UNL     1       4.053   3.594  19.607  0.00  0.00    +0.000 NA
ENDBRANCH  25  26
ENDBRANCH   1  25
TORSDOF 10
ENDMDL
MODEL 2
REMARK VINA RESULT:      -8.1      2.282      2.678
REMARK  Name = 
REMARK  10 active torsions:
REMARK  status: ('A' for Active; 'I' for Inactive)
REMARK    1  A    between atoms: C_2  and  C_3
REMARK    2  A    between atoms: C_3  and  C_4
REMARK    3  A    between atoms: C_4  and  C_5
REMARK    4  A    between atoms: C_5  and  C_6
REMARK    5  A    between atoms: C_6  and  C_7
REMARK    6  A    between atoms: C_7  and  N_8
REMARK    7  A    between atoms: N_8  and  C_9
REMARK    8  A    between atoms: C_9  and  C_10
REMARK    9  A    between atoms: C_19  and  C_21
REMARK   10  A    between atoms: N_27  and  O_28
REMARK                            x       y       z     vdW  Elec       q    Type
REMARK                         _______ _______ _______ _____ _____    ______ ____
ROOT
ATOM      1  N   UNL     1       3.193   7.197  18.333  0.00  0.00    +0.000 N 
ATOM      2  C   UNL     1       2.307   8.269  18.271  0.00  0.00    +0.000 C 
ATOM      3  O   UNL     1       2.107   8.829  17.192  0.00  0.00    +0.000 OA
ATOM      4  N   UNL     1       1.674   8.627  19.436  0.00  0.00    +0.000 N 
ATOM      5  C   UNL     1       0.814   9.712  19.498  0.00  0.00    +0.000 C 
ATOM      6  O   UNL     1       0.516  10.455  18.569  0.00  0.00    +0.000 OA
ATOM      7  H   UNL     1       2.019   8.247  20.303  0.00  0.00    +0.000 HD
ENDROOT
BRANCH   5   8
ATOM      8  C   UNL     1       0.199  10.020  20.818  0.00  0.00    +0.000 A 
ATOM      9  C   UNL     1      -0.491  11.238  20.949  0.00  0.00    +0.000 A 
ATOM     10  C   UNL     1      -1.152  11.557  22.133  0.00  0.00    +0.000 A 
ATOM     11  C   UNL     1      -1.137  10.656  23.196  0.00  0.00    +0.000 A 
ATOM     12  C   UNL     1      -0.468   9.437  23.071  0.00  0.00    +0.000 A 
ATOM     13  C   UNL     1       0.201   9.114  21.884  0.00  0.00    +0.000 A 
ENDBRANCH   5   8
BRANCH   1  14
ATOM     14  C   UNL     1       3.972   6.931  17.122  0.00  0.00    +0.000 C 
BRANCH  14  15
ATOM     15  C   UNL     1       5.332   6.261  17.341  0.00  0.00    +0.000 C 
BRANCH  15  16
ATOM     16  C   UNL     1       5.954   5.503  16.156  0.00  0.00    +0.000 C 
BRANCH  16  17
ATOM     17  C   UNL     1       5.764   3.995  16.390  0.00  0.00    +0.000 C 
BRANCH  17  18
ATOM     18  C   UNL     1       4.335   3.564  16.717  0.00  0.00    +0.000 C 
BRANCH  18  20
ATOM     19  O   UNL     1       3.651   1.556  17.922  0.00  0.00    +0.000 OA
ATOM     20  C   UNL     1       4.315   2.594  17.886  0.00  0.00    +0.000 C 
ATOM     21  N   UNL     1       5.113   2.964  18.936  0.00  0.00    +0.000 N 
ATOM     22  H   UNL     1       5.623   3.836  19.003  0.00  0.00    +0.000 HD
BRANCH  21  23
ATOM     23  O   UNL     1       5.118   2.113  20.067  0.00  0.00    +0.000 OA
ATOM     24  H   UNL     1       4.159   2.023  20.264  0.00  0.00    +0.000 HD
ENDBRANCH  21  23
ENDBRANCH  18  20
ENDBRANCH  17  18
ENDBRANCH  16  17
ENDBRANCH  15  16
ENDBRANCH  14  15
ENDBRANCH   1  14
BRANCH   1  25
ATOM     25  C   UNL     1       3.464   6.369  19.517  0.00  0.00    +0.000 C 
BRANCH  25  26
ATOM     26  C   UNL     1       2.506   5.201  19.676  0.00  0.00    +0.000 A 
ATOM     27  C   UNL     1       1.749   4.743  18.596  0.00  0.00    +0.000 A 
ATOM     28  C   UNL     1       0.909   3.646  18.768  0.00  0.00    +0.000 A 
ATOM     29  C   UNL     1       0.818   3.051  20.017  0.00  0.00    +0.000 A 
ATOM     30  C   UNL     1       1.579   3.580  21.047  0.00  0.00    +0.000 A 
ATOM     31  N   UNL     1       2.435   4.624  20.906  0.00  0.00    +0.000 NA
ENDBRANCH  25  26
ENDBRANCH   1  25
TORSDOF 10
ENDMDL
MODEL 3
REMARK VINA RESULT:      -8.0      1.179      1.749
REMARK  Name = 
REMARK  10 active torsions:
REMARK  status: ('A' for Active; 'I' for Inactive)
REMARK    1  A    between atoms: C_2  and  C_3
REMARK    2  A    between atoms: C_3  and  C_4
REMARK    3  A    between atoms: C_4  and  C_5
REMARK    4  A    between atoms: C_5  and  C_6
REMARK    5  A    between atoms: C_6  and  C_7
REMARK    6  A    between atoms: C_7  and  N_8
REMARK    7  A    between atoms: N_8  and  C_9
REMARK    8  A    between atoms: C_9  and  C_10
REMARK    9  A    between atoms: C_19  and  C_21
REMARK   10  A    between atoms: N_27  and  O_28
REMARK                            x       y       z     vdW  Elec       q    Type
REMARK                         _______ _______ _______ _____ _____    ______ ____
ROOT
ATOM      1  N   UNL     1       2.945   6.985  18.584  0.00  0.00    +0.000 N 
ATOM      2  C   UNL     1       2.246   8.179  18.426  0.00  0.00    +0.000 C 
ATOM      3  O   UNL     1       2.281   8.764  17.343  0.00  0.00    +0.000 OA
ATOM      4  N   UNL     1       1.522   8.627  19.504  0.00  0.00    +0.000 N 
ATOM      5  C   UNL     1       0.833   9.830  19.473  0.00  0.00    +0.000 C 
ATOM      6  O   UNL     1       0.780  10.610  18.529  0.00  0.00    +0.000 OA
ATOM      7  H   UNL     1       1.685   8.199  20.400  0.00  0.00    +0.000 HD
ENDROOT
BRANCH   5   8
ATOM      8  C   UNL     1       0.098  10.226  20.705  0.00  0.00    +0.000 A 
ATOM      9  C   UNL     1       0.023   9.288  21.750  0.00  0.00    +0.000 A 
ATOM     10  C   UNL     1      -0.587   9.617  22.959  0.00  0.00    +0.000 A 
ATOM     11  C   UNL     1      -1.119  10.892  23.138  0.00  0.00    +0.000 A 
ATOM     12  C   UNL     1      -1.037  11.836  22.112  0.00  0.00    +0.000 A 
ATOM     13  C   UNL     1      -0.428  11.508  20.895  0.00  0.00    +0.000 A 
ENDBRANCH   5   8
BRANCH   1  14
ATOM     14  C   UNL     1       3.833   6.605  17.483  0.00  0.00    +0.000 C 
BRANCH  14  15
ATOM     15  C   UNL     1       5.254   6.202  17.885  0.00  0.00    +0.000 C 
BRANCH  15  16
ATOM     16  C   UNL     1       6.407   7.129  17.462  0.00  0.00    +0.000 C 
BRANCH  16  17
ATOM     17  C   UNL     1       7.480   6.281  16.760  0.00  0.00    +0.000 C 
BRANCH  17  18
ATOM     18  C   UNL     1       7.054   4.857  16.406  0.00  0.00    +0.000 C 
BRANCH  18  20
ATOM     19  O   UNL     1       7.665   5.356  14.097  0.00  0.00    +0.000 OA
ATOM     20  C   UNL     1       7.057   4.647  14.901  0.00  0.00    +0.000 C 
ATOM     21  N   UNL     1       6.311   3.577  14.483  0.00  0.00    +0.000 N 
ATOM     22  H   UNL     1       5.729   3.001  15.080  0.00  0.00    +0.000 HD
BRANCH  21  23
ATOM     23  O   UNL     1       6.254   3.342  13.089  0.00  0.00    +0.000 OA
ATOM     24  H   UNL     1       6.137   2.366  13.048  0.00  0.00    +0.000 HD
ENDBRANCH  21  23
ENDBRANCH  18  20
ENDBRANCH  17  18
ENDBRANCH  16  17
ENDBRANCH  15  16
ENDBRANCH  14  15
ENDBRANCH   1  14
BRANCH   1  25
ATOM     25  C   UNL     1       2.925   6.125  19.776  0.00  0.00    +0.000 C 
BRANCH  25  26
ATOM     26  C   UNL     1       2.227   4.794  19.555  0.00  0.00    +0.000 A 
ATOM     27  C   UNL     1       2.044   3.897  20.610  0.00  0.00    +0.000 A 
ATOM     28  C   UNL     1       1.366   2.702  20.381  0.00  0.00    +0.000 A 
ATOM     29  C   UNL     1       0.914   2.414  19.101  0.00  0.00    +0.000 A 
ATOM     30  C   UNL     1       1.159   3.341  18.100  0.00  0.00    +0.000 A 
ATOM     31  N   UNL     1       1.783   4.530  18.297  0.00  0.00    +0.000 NA
ENDBRANCH  25  26
ENDBRANCH   1  25
TORSDOF 10
ENDMDL
MODEL 4
REMARK VINA RESULT:      -8.0      1.823      2.689
REMARK  Name = 
REMARK  10 active torsions:
REMARK  status: ('A' for Active; 'I' for Inactive)
REMARK    1  A    between atoms: C_2  and  C_3
REMARK    2  A    between atoms: C_3  and  C_4
REMARK    3  A    between atoms: C_4  and  C_5
REMARK    4  A    between atoms: C_5  and  C_6
REMARK    5  A    between atoms: C_6  and  C_7
REMARK    6  A    between atoms: C_7  and  N_8
REMARK    7  A    between atoms: N_8  and  C_9
REMARK    8  A    between atoms: C_9  and  C_10
REMARK    9  A    between atoms: C_19  and  C_21
REMARK   10  A    between atoms: N_27  and  O_28
REMARK                            x       y       z     vdW  Elec       q    Type
REMARK                         _______ _______ _______ _____ _____    ______ ____
ROOT
ATOM      1  N   UNL     1       4.793   6.044  17.848  0.00  0.00    +0.000 N 
ATOM      2  C   UNL     1       3.953   7.110  17.538  0.00  0.00    +0.000 C 
ATOM      3  O   UNL     1       4.028   7.639  16.428  0.00  0.00    +0.000 OA
ATOM      4  N   UNL     1       3.052   7.499  18.500  0.00  0.00    +0.000 N 
ATOM      5  C   UNL     1       2.207   8.582  18.316  0.00  0.00    +0.000 C 
ATOM      6  O   UNL     1       2.152   9.297  17.323  0.00  0.00    +0.000 OA
ATOM      7  H   UNL     1       3.171   7.145  19.435  0.00  0.00    +0.000 HD
ENDROOT
BRANCH   5   8
ATOM      8  C   UNL     1       1.286   8.924  19.434  0.00  0.00    +0.000 A 
ATOM      9  C   UNL     1       1.472   8.261  20.659  0.00  0.00    +0.000 A 
ATOM     10  C   UNL     1       0.693   8.584  21.769  0.00  0.00    +0.000 A 
ATOM     11  C   UNL     1      -0.274   9.582  21.666  0.00  0.00    +0.000 A 
ATOM     12  C   UNL     1      -0.456  10.258  20.458  0.00  0.00    +0.000 A 
ATOM     13  C   UNL     1       0.322   9.934  19.339  0.00  0.00    +0.000 A 
ENDBRANCH   5   8
BRANCH   1  14
ATOM     14  C   UNL     1       5.846   5.747  16.876  0.00  0.00    +0.000 C 
BRANCH  14  15
ATOM     15  C   UNL     1       6.242   4.272  16.755  0.00  0.00    +0.000 C 
BRANCH  15  16
ATOM     16  C   UNL     1       5.790   3.512  15.497  0.00  0.00    +0.000 C 
BRANCH  16  17
ATOM     17  C   UNL     1       5.599   4.526  14.357  0.00  0.00    +0.000 C 
BRANCH  17  18
ATOM     18  C   UNL     1       5.130   3.932  13.031  0.00  0.00    +0.000 C 
BRANCH  18  20
ATOM     19  O   UNL     1       7.283   4.044  11.888  0.00  0.00    +0.000 OA
ATOM     20  C   UNL     1       6.303   3.382  12.236  0.00  0.00    +0.000 C 
ATOM     21  N   UNL     1       6.194   2.054  11.921  0.00  0.00    +0.000 N 
ATOM     22  H   UNL     1       5.385   1.473  12.110  0.00  0.00    +0.000 HD
BRANCH  21  23
ATOM     23  O   UNL     1       7.244   1.488  11.160  0.00  0.00    +0.000 OA
ATOM     24  H   UNL     1       7.244   0.554  11.470  0.00  0.00    +0.000 HD
ENDBRANCH  21  23
ENDBRANCH  18  20
ENDBRANCH  17  18
ENDBRANCH  16  17
ENDBRANCH  15  16
ENDBRANCH  14  15
ENDBRANCH   1  14
BRANCH   1  25
ATOM     25  C   UNL     1       4.759   5.251  19.085  0.00  0.00    +0.000 C 
BRANCH  25  26
ATOM     26  C   UNL     1       3.447   4.517  19.303  0.00  0.00    +0.000 A 
ATOM     27  C   UNL     1       3.121   3.391  18.543  0.00  0.00    +0.000 A 
ATOM     28  C   UNL     1       1.927   2.719  18.795  0.00  0.00    +0.000 A 
ATOM     29  C   UNL     1       1.071   3.203  19.773  0.00  0.00    +0.000 A 
ATOM     30  C   UNL     1       1.451   4.342  20.465  0.00  0.00    +0.000 A 
ATOM     31  N   UNL     1       2.623   4.998  20.271  0.00  0.00    +0.000 NA
ENDBRANCH  25  26
ENDBRANCH   1  25
TORSDOF 10
ENDMDL
MODEL 5
REMARK VINA RESULT:      -8.0      0.866      1.154
REMARK  Name = 
REMARK  10 active torsions:
REMARK  status: ('A' for Active; 'I' for Inactive)
REMARK    1  A    between atoms: C_2  and  C_3
REMARK    2  A    between atoms: C_3  and  C_4
REMARK    3  A    between atoms: C_4  and  C_5
REMARK    4  A    between atoms: C_5  and  C_6
REMARK    5  A    between atoms: C_6  and  C_7
REMARK    6  A    between atoms: C_7  and  N_8
REMARK    7  A    between atoms: N_8  and  C_9
REMARK    8  A    between atoms: C_9  and  C_10
REMARK    9  A    between atoms: C_19  and  C_21
REMARK   10  A    between atoms: N_27  and  O_28
REMARK                            x       y       z     vdW  Elec       q    Type
REMARK                         _______ _______ _______ _____ _____    ______ ____
ROOT
ATOM      1  N   UNL     1       2.785   7.057  18.490  0.00  0.00    +0.000 N 
ATOM      2  C   UNL     1       2.151   8.295  18.427  0.00  0.00    +0.000 C 
ATOM      3  O   UNL     1       2.197   8.948  17.383  0.00  0.00    +0.000 OA
ATOM      4  N   UNL     1       1.474   8.710  19.547  0.00  0.00    +0.000 N 
ATOM      5  C   UNL     1       0.853   9.948  19.611  0.00  0.00    +0.000 C 
ATOM      6  O   UNL     1       0.824  10.791  18.721  0.00  0.00    +0.000 OA
ATOM      7  H   UNL     1       1.630   8.215  20.410  0.00  0.00    +0.000 HD
ENDROOT
BRANCH   5   8
ATOM      8  C   UNL     1       0.164  10.301  20.883  0.00  0.00    +0.000 A 
ATOM      9  C   UNL     1      -0.634  11.458  20.894  0.00  0.00    +0.000 A 
ATOM     10  C   UNL     1      -1.364  11.807  22.028  0.00  0.00    +0.000 A 
ATOM     11  C   UNL     1      -1.311  10.997  23.160  0.00  0.00    +0.000 A 
ATOM     12  C   UNL     1      -0.532   9.837  23.154  0.00  0.00    +0.000 A 
ATOM     13  C   UNL     1       0.206   9.484  22.018  0.00  0.00    +0.000 A 
ENDBRANCH   5   8
BRANCH   1  14
ATOM     14  C   UNL     1       3.629   6.704  17.347  0.00  0.00    +0.000 C 
BRANCH  14  15
ATOM     15  C   UNL     1       5.138   6.850  17.564  0.00  0.00    +0.000 C 
BRANCH  15  16
ATOM     16  C   UNL     1       6.074   6.152  16.563  0.00  0.00    +0.000 C 
BRANCH  16  17
ATOM     17  C   UNL     1       5.283   5.045  15.848  0.00  0.00    +0.000 C 
BRANCH  17  18
ATOM     18  C   UNL     1       6.131   3.919  15.258  0.00  0.00    +0.000 C 
BRANCH  18  20
ATOM     19  O   UNL     1       6.358   3.792  12.832  0.00  0.00    +0.000 OA
ATOM     20  C   UNL     1       6.687   4.312  13.899  0.00  0.00    +0.000 C 
ATOM     21  N   UNL     1       7.614   5.320  13.943  0.00  0.00    +0.000 N 
ATOM     22  H   UNL     1       7.983   5.738  14.789  0.00  0.00    +0.000 HD
BRANCH  21  23
ATOM     23  O   UNL     1       8.188   5.716  12.712  0.00  0.00    +0.000 OA
ATOM     24  H   UNL     1       9.111   5.388  12.799  0.00  0.00    +0.000 HD
ENDBRANCH  21  23
ENDBRANCH  18  20
ENDBRANCH  17  18
ENDBRANCH  16  17
ENDBRANCH  15  16
ENDBRANCH  14  15
ENDBRANCH   1  14
BRANCH   1  25
ATOM     25  C   UNL     1       2.741   6.123  19.624  0.00  0.00    +0.000 C 
BRANCH  25  26
ATOM     26  C   UNL     1       2.714   4.662  19.208  0.00  0.00    +0.000 A 
ATOM     27  C   UNL     1       3.860   3.870  19.300  0.00  0.00    +0.000 A 
ATOM     28  C   UNL     1       3.791   2.525  18.946  0.00  0.00    +0.000 A 
ATOM     29  C   UNL     1       2.591   2.008  18.479  0.00  0.00    +0.000 A 
ATOM     30  C   UNL     1       1.505   2.864  18.389  0.00  0.00    +0.000 A 
ATOM     31  N   UNL     1       1.528   4.169  18.760  0.00  0.00    +0.000 NA
ENDBRANCH  25  26
ENDBRANCH   1  25
TORSDOF 10
ENDMDL
MODEL 6
REMARK VINA RESULT:      -7.9      0.883      1.293
REMARK  Name = 
REMARK  10 active torsions:
REMARK  status: ('A' for Active; 'I' for Inactive)
REMARK    1  A    between atoms: C_2  and  C_3
REMARK    2  A    between atoms: C_3  and  C_4
REMARK    3  A    between atoms: C_4  and  C_5
REMARK    4  A    between atoms: C_5  and  C_6
REMARK    5  A    between atoms: C_6  and  C_7
REMARK    6  A    between atoms: C_7  and  N_8
REMARK    7  A    between atoms: N_8  and  C_9
REMARK    8  A    between atoms: C_9  and  C_10
REMARK    9  A    between atoms: C_19  and  C_21
REMARK   10  A    between atoms: N_27  and  O_28
REMARK                            x       y       z     vdW  Elec       q    Type
REMARK                         _______ _______ _______ _____ _____    ______ ____
ROOT
ATOM      1  N   UNL     1       3.136   6.832  18.472  0.00  0.00    +0.000 N 
ATOM      2  C   UNL     1       2.431   8.027  18.353  0.00  0.00    +0.000 C 
ATOM      3  O   UNL     1       2.472   8.652  17.293  0.00  0.00    +0.000 OA
ATOM      4  N   UNL     1       1.692   8.429  19.439  0.00  0.00    +0.000 N 
ATOM      5  C   UNL     1       0.996   9.628  19.447  0.00  0.00    +0.000 C 
ATOM      6  O   UNL     1       0.946  10.443  18.533  0.00  0.00    +0.000 OA
ATOM      7  H   UNL     1       1.850   7.968  20.321  0.00  0.00    +0.000 HD
ENDROOT
BRANCH   5   8
ATOM      8  C   UNL     1       0.245   9.972  20.686  0.00  0.00    +0.000 A 
ATOM      9  C   UNL     1       0.408   9.132  21.802  0.00  0.00    +0.000 A 
ATOM     10  C   UNL     1      -0.206   9.434  23.015  0.00  0.00    +0.000 A 
ATOM     11  C   UNL     1      -0.982  10.586  23.128  0.00  0.00    +0.000 A 
ATOM     12  C   UNL     1      -1.138  11.435  22.029  0.00  0.00    +0.000 A 
ATOM     13  C   UNL     1      -0.526  11.133  20.807  0.00  0.00    +0.000 A 
ENDBRANCH   5   8
BRANCH   1  14
ATOM     14  C   UNL     1       4.037   6.500  17.367  0.00  0.00    +0.000 C 
BRANCH  14  15
ATOM     15  C   UNL     1       5.500   6.910  17.557  0.00  0.00    +0.000 C 
BRANCH  15  16
ATOM     16  C   UNL     1       6.501   5.817  17.968  0.00  0.00    +0.000 C 
BRANCH  16  17
ATOM     17  C   UNL     1       6.185   4.542  17.167  0.00  0.00    +0.000 C 
BRANCH  17  18
ATOM     18  C   UNL     1       7.022   4.347  15.904  0.00  0.00    +0.000 C 
BRANCH  18  20
ATOM     19  O   UNL     1       5.222   5.190  14.489  0.00  0.00    +0.000 OA
ATOM     20  C   UNL     1       6.149   4.397  14.661  0.00  0.00    +0.000 C 
ATOM     21  N   UNL     1       6.474   3.466  13.710  0.00  0.00    +0.000 N 
ATOM     22  H   UNL     1       7.171   2.739  13.818  0.00  0.00    +0.000 HD
BRANCH  21  23
ATOM     23  O   UNL     1       5.682   3.444  12.538  0.00  0.00    +0.000 OA
ATOM     24  H   UNL     1       6.200   2.851  11.948  0.00  0.00    +0.000 HD
ENDBRANCH  21  23
ENDBRANCH  18  20
ENDBRANCH  17  18
ENDBRANCH  16  17
ENDBRANCH  15  16
ENDBRANCH  14  15
ENDBRANCH   1  14
BRANCH   1  25
ATOM     25  C   UNL     1       3.110   5.928  19.630  0.00  0.00    +0.000 C 
BRANCH  25  26
ATOM     26  C   UNL     1       2.947   4.465  19.257  0.00  0.00    +0.000 A 
ATOM     27  C   UNL     1       1.822   4.024  18.557  0.00  0.00    +0.000 A 
ATOM     28  C   UNL     1       1.722   2.682  18.198  0.00  0.00    +0.000 A 
ATOM     29  C   UNL     1       2.729   1.805  18.572  0.00  0.00    +0.000 A 
ATOM     30  C   UNL     1       3.801   2.311  19.291  0.00  0.00    +0.000 A 
ATOM     31  N   UNL     1       3.947   3.618  19.624  0.00  0.00    +0.000 NA
ENDBRANCH  25  26
ENDBRANCH   1  25
TORSDOF 10
ENDMDL
MODEL 7
REMARK VINA RESULT:      -7.9      1.944      2.689
REMARK  Name = 
REMARK  10 active torsions:
REMARK  status: ('A' for Active; 'I' for Inactive)
REMARK    1  A    between atoms: C_2  and  C_3
REMARK    2  A    between atoms: C_3  and  C_4
REMARK    3  A    between atoms: C_4  and  C_5
REMARK    4  A    between atoms: C_5  and  C_6
REMARK    5  A    between atoms: C_6  and  C_7
REMARK    6  A    between atoms: C_7  and  N_8
REMARK    7  A    between atoms: N_8  and  C_9
REMARK    8  A    between atoms: C_9  and  C_10
REMARK    9  A    between atoms: C_19  and  C_21
REMARK   10  A    between atoms: N_27  and  O_28
REMARK                            x       y       z     vdW  Elec       q    Type
REMARK                         _______ _______ _______ _____ _____    ______ ____
ROOT
ATOM      1  N   UNL     1       4.494   5.690  18.378  0.00  0.00    +0.000 N 
ATOM      2  C   UNL     1       3.830   6.802  17.866  0.00  0.00    +0.000 C 
ATOM      3  O   UNL     1       4.077   7.182  16.721  0.00  0.00    +0.000 OA
ATOM      4  N   UNL     1       2.898   7.403  18.677  0.00  0.00    +0.000 N 
ATOM      5  C   UNL     1       2.219   8.547  18.287  0.00  0.00    +0.000 C 
ATOM      6  O   UNL     1       2.349   9.140  17.222  0.00  0.00    +0.000 OA
ATOM      7  H   UNL     1       2.881   7.153  19.652  0.00  0.00    +0.000 HD
ENDROOT
BRANCH   5   8
ATOM      8  C   UNL     1       1.246   9.124  19.255  0.00  0.00    +0.000 A 
ATOM      9  C   UNL     1       0.321  10.064  18.768  0.00  0.00    +0.000 A 
ATOM     10  C   UNL     1      -0.665  10.590  19.601  0.00  0.00    +0.000 A 
ATOM     11  C   UNL     1      -0.740  10.174  20.928  0.00  0.00    +0.000 A 
ATOM     12  C   UNL     1       0.165   9.229  21.418  0.00  0.00    +0.000 A 
ATOM     13  C   UNL     1       1.159   8.701  20.585  0.00  0.00    +0.000 A 
ENDBRANCH   5   8
BRANCH   1  14
ATOM     14  C   UNL     1       5.589   5.160  17.564  0.00  0.00    +0.000 C 
BRANCH  14  15
ATOM     15  C   UNL     1       5.209   4.048  16.582  0.00  0.00    +0.000 C 
BRANCH  15  16
ATOM     16  C   UNL     1       6.189   3.740  15.437  0.00  0.00    +0.000 C 
BRANCH  16  17
ATOM     17  C   UNL     1       5.783   4.575  14.212  0.00  0.00    +0.000 C 
BRANCH  17  18
ATOM     18  C   UNL     1       5.168   3.780  13.060  0.00  0.00    +0.000 C 
BRANCH  18  20
ATOM     19  O   UNL     1       7.219   3.819  11.738  0.00  0.00    +0.000 OA
ATOM     20  C   UNL     1       6.249   3.192  12.168  0.00  0.00    +0.000 C 
ATOM     21  N   UNL     1       6.065   1.870  11.862  0.00  0.00    +0.000 N 
ATOM     22  H   UNL     1       5.255   1.318  12.118  0.00  0.00    +0.000 HD
BRANCH  21  23
ATOM     23  O   UNL     1       7.025   1.269  11.014  0.00  0.00    +0.000 OA
ATOM     24  H   UNL     1       7.764   1.084  11.636  0.00  0.00    +0.000 HD
ENDBRANCH  21  23
ENDBRANCH  18  20
ENDBRANCH  17  18
ENDBRANCH  16  17
ENDBRANCH  15  16
ENDBRANCH  14  15
ENDBRANCH   1  14
BRANCH   1  25
ATOM     25  C   UNL     1       4.242   5.061  19.682  0.00  0.00    +0.000 C 
BRANCH  25  26
ATOM     26  C   UNL     1       2.972   4.229  19.722  0.00  0.00    +0.000 A 
ATOM     27  C   UNL     1       2.471   3.742  20.931  0.00  0.00    +0.000 A 
ATOM     28  C   UNL     1       1.284   3.015  20.936  0.00  0.00    +0.000 A 
ATOM     29  C   UNL     1       0.640   2.761  19.734  0.00  0.00    +0.000 A 
ATOM     30  C   UNL     1       1.214   3.253  18.572  0.00  0.00    +0.000 A 
ATOM     31  N   UNL     1       2.349   3.996  18.536  0.00  0.00    +0.000 NA
ENDBRANCH  25  26
ENDBRANCH   1  25
TORSDOF 10
ENDMDL
MODEL 8
REMARK VINA RESULT:      -7.9      4.011      7.002
REMARK  Name = 
REMARK  10 active torsions:
REMARK  status: ('A' for Active; 'I' for Inactive)
REMARK    1  A    between atoms: C_2  and  C_3
REMARK    2  A    between atoms: C_3  and  C_4
REMARK    3  A    between atoms: C_4  and  C_5
REMARK    4  A    between atoms: C_5  and  C_6
REMARK    5  A    between atoms: C_6  and  C_7
REMARK    6  A    between atoms: C_7  and  N_8
REMARK    7  A    between atoms: N_8  and  C_9
REMARK    8  A    between atoms: C_9  and  C_10
REMARK    9  A    between atoms: C_19  and  C_21
REMARK   10  A    between atoms: N_27  and  O_28
REMARK                            x       y       z     vdW  Elec       q    Type
REMARK                         _______ _______ _______ _____ _____    ______ ____
ROOT
ATOM      1  N   UNL     1       6.431   6.259  16.805  0.00  0.00    +0.000 N 
ATOM      2  C   UNL     1       5.195   6.564  17.369  0.00  0.00    +0.000 C 
ATOM      3  O   UNL     1       4.882   7.742  17.544  0.00  0.00    +0.000 OA
ATOM      4  N   UNL     1       4.369   5.510  17.676  0.00  0.00    +0.000 N 
ATOM      5  C   UNL     1       3.140   5.697  18.289  0.00  0.00    +0.000 C 
ATOM      6  O   UNL     1       2.651   6.772  18.618  0.00  0.00    +0.000 OA
ATOM      7  H   UNL     1       4.760   4.581  17.673  0.00  0.00    +0.000 HD
ENDROOT
BRANCH   5   8
ATOM      8  C   UNL     1       2.338   4.480  18.593  0.00  0.00    +0.000 A 
ATOM      9  C   UNL     1       2.522   3.355  17.770  0.00  0.00    +0.000 A 
ATOM     10  C   UNL     1       1.859   2.160  18.041  0.00  0.00    +0.000 A 
ATOM     11  C   UNL     1       1.011   2.076  19.143  0.00  0.00    +0.000 A 
ATOM     12  C   UNL     1       0.832   3.184  19.975  0.00  0.00    +0.000 A 
ATOM     13  C   UNL     1       1.494   4.387  19.705  0.00  0.00    +0.000 A 
ENDBRANCH   5   8
BRANCH   1  14
ATOM     14  C   UNL     1       7.356   7.380  16.630  0.00  0.00    +0.000 C 
BRANCH  14  15
ATOM     15  C   UNL     1       7.982   7.932  17.914  0.00  0.00    +0.000 C 
BRANCH  15  16
ATOM     16  C   UNL     1       8.274   9.441  17.975  0.00  0.00    +0.000 C 
BRANCH  16  17
ATOM     17  C   UNL     1       9.061   9.732  19.264  0.00  0.00    +0.000 C 
BRANCH  17  18
ATOM     18  C   UNL     1      10.004  10.932  19.192  0.00  0.00    +0.000 C 
BRANCH  18  20
ATOM     19  O   UNL     1      10.939  12.488  20.822  0.00  0.00    +0.000 OA
ATOM     20  C   UNL     1      10.105  11.626  20.539  0.00  0.00    +0.000 C 
ATOM     21  N   UNL     1       9.171  11.215  21.453  0.00  0.00    +0.000 N 
ATOM     22  H   UNL     1       8.508  10.462  21.312  0.00  0.00    +0.000 HD
BRANCH  21  23
ATOM     23  O   UNL     1       9.227  11.807  22.737  0.00  0.00    +0.000 OA
ATOM     24  H   UNL     1       8.802  12.680  22.581  0.00  0.00    +0.000 HD
ENDBRANCH  21  23
ENDBRANCH  18  20
ENDBRANCH  17  18
ENDBRANCH  16  17
ENDBRANCH  15  16
ENDBRANCH  14  15
ENDBRANCH   1  14
BRANCH   1  25
ATOM     25  C   UNL     1       6.907   4.915  16.446  0.00  0.00    +0.000 C 
BRANCH  25  26
ATOM     26  C   UNL     1       6.917   4.652  14.950  0.00  0.00    +0.000 A 
ATOM     27  C   UNL     1       6.018   3.752  14.374  0.00  0.00    +0.000 A 
ATOM     28  C   UNL     1       6.029   3.563  12.995  0.00  0.00    +0.000 A 
ATOM     29  C   UNL     1       6.957   4.249  12.225  0.00  0.00    +0.000 A 
ATOM     30  C   UNL     1       7.836   5.103  12.872  0.00  0.00    +0.000 A 
ATOM     31  N   UNL     1       7.827   5.338  14.208  0.00  0.00    +0.000 NA
ENDBRANCH  25  26
ENDBRANCH   1  25
TORSDOF 10
ENDMDL
MODEL 9
REMARK VINA RESULT:      -7.9      2.333      2.536
REMARK  Name = 
REMARK  10 active torsions:
REMARK  status: ('A' for Active; 'I' for Inactive)
REMARK    1  A    between atoms: C_2  and  C_3
REMARK    2  A    between atoms: C_3  and  C_4
REMARK    3  A    between atoms: C_4  and  C_5
REMARK    4  A    between atoms: C_5  and  C_6
REMARK    5  A    between atoms: C_6  and  C_7
REMARK    6  A    between atoms: C_7  and  N_8
REMARK    7  A    between atoms: N_8  and  C_9
REMARK    8  A    between atoms: C_9  and  C_10
REMARK    9  A    between atoms: C_19  and  C_21
REMARK   10  A    between atoms: N_27  and  O_28
REMARK                            x       y       z     vdW  Elec       q    Type
REMARK                         _______ _______ _______ _____ _____    ______ ____
ROOT
ATOM      1  N   UNL     1       2.760   7.245  18.459  0.00  0.00    +0.000 N 
ATOM      2  C   UNL     1       2.008   8.413  18.365  0.00  0.00    +0.000 C 
ATOM      3  O   UNL     1       1.924   8.994  17.282  0.00  0.00    +0.000 OA
ATOM      4  N   UNL     1       1.367   8.839  19.502  0.00  0.00    +0.000 N 
ATOM      5  C   UNL     1       0.636  10.016  19.533  0.00  0.00    +0.000 C 
ATOM      6  O   UNL     1       0.470  10.790  18.597  0.00  0.00    +0.000 OA
ATOM      7  H   UNL     1       1.625   8.420  20.381  0.00  0.00    +0.000 HD
ENDROOT
BRANCH   5   8
ATOM      8  C   UNL     1      -0.000  10.390  20.826  0.00  0.00    +0.000 A 
ATOM      9  C   UNL     1      -0.759  11.573  20.862  0.00  0.00    +0.000 A 
ATOM     10  C   UNL     1      -1.442  11.945  22.018  0.00  0.00    +0.000 A 
ATOM     11  C   UNL     1      -1.379  11.132  23.148  0.00  0.00    +0.000 A 
ATOM     12  C   UNL     1      -0.641   9.947  23.118  0.00  0.00    +0.000 A 
ATOM     13  C   UNL     1       0.050   9.571  21.959  0.00  0.00    +0.000 A 
ENDBRANCH   5   8
BRANCH   1  14
ATOM     14  C   UNL     1       3.559   6.893  17.284  0.00  0.00    +0.000 C 
BRANCH  14  15
ATOM     15  C   UNL     1       5.062   7.166  17.396  0.00  0.00    +0.000 C 
BRANCH  15  16
ATOM     16  C   UNL     1       5.984   6.526  16.343  0.00  0.00    +0.000 C 
BRANCH  16  17
ATOM     17  C   UNL     1       7.330   6.198  17.011  0.00  0.00    +0.000 C 
BRANCH  17  18
ATOM     18  C   UNL     1       7.468   4.765  17.522  0.00  0.00    +0.000 C 
BRANCH  18  20
ATOM     19  O   UNL     1       6.736   5.188  19.811  0.00  0.00    +0.000 OA
ATOM     20  C   UNL     1       6.620   4.548  18.765  0.00  0.00    +0.000 C 
ATOM     21  N   UNL     1       5.684   3.556  18.639  0.00  0.00    +0.000 N 
ATOM     22  H   UNL     1       5.586   2.943  17.838  0.00  0.00    +0.000 HD
BRANCH  21  23
ATOM     23  O   UNL     1       4.879   3.287  19.771  0.00  0.00    +0.000 OA
ATOM     24  H   UNL     1       4.104   3.873  19.617  0.00  0.00    +0.000 HD
ENDBRANCH  21  23
ENDBRANCH  18  20
ENDBRANCH  17  18
ENDBRANCH  16  17
ENDBRANCH  15  16
ENDBRANCH  14  15
ENDBRANCH   1  14
BRANCH   1  25
ATOM     25  C   UNL     1       2.878   6.389  19.649  0.00  0.00    +0.000 C 
BRANCH  25  26
ATOM     26  C   UNL     1       2.162   5.056  19.514  0.00  0.00    +0.000 A 
ATOM     27  C   UNL     1       1.805   4.558  18.259  0.00  0.00    +0.000 A 
ATOM     28  C   UNL     1       1.183   3.315  18.169  0.00  0.00    +0.000 A 
ATOM     29  C   UNL     1       0.903   2.612  19.331  0.00  0.00    +0.000 A 
ATOM     30  C   UNL     1       1.262   3.185  20.541  0.00  0.00    +0.000 A 
ATOM     31  N   UNL     1       1.901   4.376  20.662  0.00  0.00    +0.000 NA
ENDBRANCH  25  26
ENDBRANCH   1  25
TORSDOF 10
ENDMDL
