MODEL 1
REMARK VINA RESULT:      -7.2      0.000      0.000
REMARK  Name = 
REMARK  11 active torsions:
REMARK  status: ('A' for Active; 'I' for Inactive)
REMARK    1  A    between atoms: C_1  and  C_2
REMARK    2  A    between atoms: C_2  and  O_3
REMARK    3  A    between atoms: O_3  and  C_4
REMARK    4  A    between atoms: C_4  and  C_6
REMARK    5  A    between atoms: N_8  and  C_9
REMARK    6  A    between atoms: C_9  and  C_10
REMARK    7  A    between atoms: C_17  and  C_18
REMARK    8  A    between atoms: C_18  and  O_20
REMARK    9  A    between atoms: O_20  and  C_21
REMARK   10  A    between atoms: C_21  and  C_22
REMARK   11  A    between atoms: C_23  and  C_24
REMARK                            x       y       z     vdW  Elec       q    Type
REMARK                         _______ _______ _______ _____ _____    ______ ____
ROOT
ATOM      1  C   UNL     1       4.090   6.649  17.473  0.00  0.00    +0.000 C 
ATOM      2  C   UNL     1       3.556   7.878  17.316  0.00  0.00    +0.000 C 
ATOM      3  N   UNL     1       2.626   8.449  18.179  0.00  0.00    +0.000 N 
ATOM      4  C   UNL     1       2.050   7.631  19.144  0.00  0.00    +0.000 C 
ATOM      5  C   UNL     1       2.479   6.384  19.421  0.00  0.00    +0.000 C 
ATOM      6  C   UNL     1       3.715   5.817  18.713  0.00  0.00    +0.000 C 
ENDROOT
BRANCH   6   7
ATOM      7  C   UNL     1       3.626   4.315  18.472  0.00  0.00    +0.000 A 
ATOM      8  C   UNL     1       2.608   3.754  17.690  0.00  0.00    +0.000 A 
ATOM      9  C   UNL     1       2.536   2.371  17.511  0.00  0.00    +0.000 A 
ATOM     10  C   UNL     1       3.484   1.535  18.103  0.00  0.00    +0.000 A 
ATOM     11  C   UNL     1       4.508   2.080  18.875  0.00  0.00    +0.000 A 
ATOM     12  C   UNL     1       4.579   3.462  19.056  0.00  0.00    +0.000 A 
ENDBRANCH   6   7
BRANCH   1  13
ATOM     13  C   UNL     1       5.062   6.145  16.467  0.00  0.00    +0.000 C 
ATOM     14  O   UNL     1       4.933   5.129  15.807  0.00  0.00    +0.000 OA
BRANCH  13  15
ATOM     15  O   UNL     1       6.138   6.977  16.386  0.00  0.00    +0.000 OA
BRANCH  15  17
ATOM     16  C   UNL     1       7.838   8.099  17.697  0.00  0.00    +0.000 C 
ATOM     17  C   UNL     1       7.170   6.778  17.363  0.00  0.00    +0.000 C 
ENDBRANCH  15  17
ENDBRANCH  13  15
ENDBRANCH   1  13
BRANCH   5  18
ATOM     18  C   UNL     1       1.793   5.606  20.483  0.00  0.00    +0.000 C 
ATOM     19  O   UNL     1       0.613   5.721  20.770  0.00  0.00    +0.000 OA
BRANCH  18  20
ATOM     20  O   UNL     1       2.670   4.751  21.075  0.00  0.00    +0.000 OA
BRANCH  20  21
ATOM     21  C   UNL     1       2.107   3.722  21.900  0.00  0.00    +0.000 C 
ATOM     22  C   UNL     1       1.479   2.635  21.045  0.00  0.00    +0.000 C 
ENDBRANCH  20  21
ENDBRANCH  18  20
ENDBRANCH   5  18
BRANCH   3  23
ATOM     23  C   UNL     1       2.333   9.893  18.137  0.00  0.00    +0.000 C 
BRANCH  23  24
ATOM     24  C   UNL     1       0.905  10.217  18.503  0.00  0.00    +0.000 A 
ATOM     25  C   UNL     1       0.616  10.981  19.644  0.00  0.00    +0.000 A 
ATOM     26  C   UNL     1      -0.699  11.337  19.945  0.00  0.00    +0.000 A 
ATOM     27  C   UNL     1      -1.740  10.928  19.114  0.00  0.00    +0.000 A 
ATOM     28  C   UNL     1      -1.469  10.153  17.988  0.00  0.00    +0.000 A 
ATOM     29  C   UNL     1      -0.153   9.795  17.685  0.00  0.00    +0.000 A 
ENDBRANCH  23  24
ENDBRANCH   3  23
TORSDOF 9
ENDMDL
MODEL 2
REMARK VINA RESULT:      -7.1      0.995      1.138
REMARK  Name = 
REMARK  11 active torsions:
REMARK  status: ('A' for Active; 'I' for Inactive)
REMARK    1  A    between atoms: C_1  and  C_2
REMARK    2  A    between atoms: C_2  and  O_3
REMARK    3  A    between atoms: O_3  and  C_4
REMARK    4  A    between atoms: C_4  and  C_6
REMARK    5  A    between atoms: N_8  and  C_9
REMARK    6  A    between atoms: C_9  and  C_10
REMARK    7  A    between atoms: C_17  and  C_18
REMARK    8  A    between atoms: C_18  and  O_20
REMARK    9  A    between atoms: O_20  and  C_21
REMARK   10  A    between atoms: C_21  and  C_22
REMARK   11  A    between atoms: C_23  and  C_24
REMARK                            x       y       z     vdW  Elec       q    Type
REMARK                         _______ _______ _______ _____ _____    ______ ____
ROOT
ATOM      1  C   UNL     1       4.263   6.505  17.394  0.00  0.00    +0.000 C 
ATOM      2  C   UNL     1       3.671   7.695  17.166  0.00  0.00    +0.000 C 
ATOM      3  N   UNL     1       2.700   8.262  17.986  0.00  0.00    +0.000 N 
ATOM      4  C   UNL     1       2.151   7.466  18.986  0.00  0.00    +0.000 C 
ATOM      5  C   UNL     1       2.638   6.259  19.332  0.00  0.00    +0.000 C 
ATOM      6  C   UNL     1       3.911   5.720  18.671  0.00  0.00    +0.000 C 
ENDROOT
BRANCH   6   7
ATOM      7  C   UNL     1       3.901   4.204  18.507  0.00  0.00    +0.000 A 
ATOM      8  C   UNL     1       3.295   3.588  17.406  0.00  0.00    +0.000 A 
ATOM      9  C   UNL     1       3.276   2.196  17.298  0.00  0.00    +0.000 A 
ATOM     10  C   UNL     1       3.871   1.406  18.284  0.00  0.00    +0.000 A 
ATOM     11  C   UNL     1       4.487   2.007  19.380  0.00  0.00    +0.000 A 
ATOM     12  C   UNL     1       4.504   3.398  19.489  0.00  0.00    +0.000 A 
ENDBRANCH   6   7
BRANCH   1  13
ATOM     13  C   UNL     1       5.275   6.000  16.428  0.00  0.00    +0.000 C 
ATOM     14  O   UNL     1       5.032   5.543  15.325  0.00  0.00    +0.000 OA
BRANCH  13  15
ATOM     15  O   UNL     1       6.528   6.109  16.951  0.00  0.00    +0.000 OA
BRANCH  15  17
ATOM     16  C   UNL     1       7.824   4.772  18.499  0.00  0.00    +0.000 C 
ATOM     17  C   UNL     1       7.266   4.886  17.093  0.00  0.00    +0.000 C 
ENDBRANCH  15  17
ENDBRANCH  13  15
ENDBRANCH   1  13
BRANCH   5  18
ATOM     18  C   UNL     1       1.975   5.503  20.424  0.00  0.00    +0.000 C 
ATOM     19  O   UNL     1       2.311   5.543  21.596  0.00  0.00    +0.000 OA
BRANCH  18  20
ATOM     20  O   UNL     1       0.942   4.771  19.925  0.00  0.00    +0.000 OA
BRANCH  20  21
ATOM     21  C   UNL     1       0.852   3.407  20.359  0.00  0.00    +0.000 C 
ATOM     22  C   UNL     1       0.442   2.505  19.209  0.00  0.00    +0.000 C 
ENDBRANCH  20  21
ENDBRANCH  18  20
ENDBRANCH   5  18
BRANCH   3  23
ATOM     23  C   UNL     1       2.335   9.686  17.866  0.00  0.00    +0.000 C 
BRANCH  23  24
ATOM     24  C   UNL     1       1.008  10.012  18.506  0.00  0.00    +0.000 A 
ATOM     25  C   UNL     1       0.951  10.501  19.820  0.00  0.00    +0.000 A 
ATOM     26  C   UNL     1      -0.271  10.866  20.387  0.00  0.00    +0.000 A 
ATOM     27  C   UNL     1      -1.447  10.740  19.652  0.00  0.00    +0.000 A 
ATOM     28  C   UNL     1      -1.406  10.237  18.353  0.00  0.00    +0.000 A 
ATOM     29  C   UNL     1      -0.185   9.870  17.783  0.00  0.00    +0.000 A 
ENDBRANCH  23  24
ENDBRANCH   3  23
TORSDOF 9
ENDMDL
MODEL 3
REMARK VINA RESULT:      -7.1      0.637      1.416
REMARK  Name = 
REMARK  11 active torsions:
REMARK  status: ('A' for Active; 'I' for Inactive)
REMARK    1  A    between atoms: C_1  and  C_2
REMARK    2  A    between atoms: C_2  and  O_3
REMARK    3  A    between atoms: O_3  and  C_4
REMARK    4  A    between atoms: C_4  and  C_6
REMARK    5  A    between atoms: N_8  and  C_9
REMARK    6  A    between atoms: C_9  and  C_10
REMARK    7  A    between atoms: C_17  and  C_18
REMARK    8  A    between atoms: C_18  and  O_20
REMARK    9  A    between atoms: O_20  and  C_21
REMARK   10  A    between atoms: C_21  and  C_22
REMARK   11  A    between atoms: C_23  and  C_24
REMARK                            x       y       z     vdW  Elec       q    Type
REMARK                         _______ _______ _______ _____ _____    ______ ____
ROOT
ATOM      1  C   UNL     1       4.221   6.510  17.520  0.00  0.00    +0.000 C 
ATOM      2  C   UNL     1       3.699   7.734  17.294  0.00  0.00    +0.000 C 
ATOM      3  N   UNL     1       2.736   8.340  18.095  0.00  0.00    +0.000 N 
ATOM      4  C   UNL     1       2.116   7.560  19.065  0.00  0.00    +0.000 C 
ATOM      5  C   UNL     1       2.527   6.324  19.406  0.00  0.00    +0.000 C 
ATOM      6  C   UNL     1       3.789   5.727  18.774  0.00  0.00    +0.000 C 
ENDROOT
BRANCH   6   7
ATOM      7  C   UNL     1       3.704   4.217  18.586  0.00  0.00    +0.000 A 
ATOM      8  C   UNL     1       4.572   3.343  19.252  0.00  0.00    +0.000 A 
ATOM      9  C   UNL     1       4.489   1.966  19.036  0.00  0.00    +0.000 A 
ATOM     10  C   UNL     1       3.533   1.447  18.160  0.00  0.00    +0.000 A 
ATOM     11  C   UNL     1       2.657   2.305  17.499  0.00  0.00    +0.000 A 
ATOM     12  C   UNL     1       2.741   3.682  17.713  0.00  0.00    +0.000 A 
ENDBRANCH   6   7
BRANCH   1  13
ATOM     13  C   UNL     1       5.233   5.966  16.577  0.00  0.00    +0.000 C 
ATOM     14  O   UNL     1       4.989   5.289  15.594  0.00  0.00    +0.000 OA
BRANCH  13  15
ATOM     15  O   UNL     1       6.488   6.323  16.967  0.00  0.00    +0.000 OA
BRANCH  15  17
ATOM     16  C   UNL     1       7.694   5.746  18.987  0.00  0.00    +0.000 C 
ATOM     17  C   UNL     1       7.271   5.299  17.599  0.00  0.00    +0.000 C 
ENDBRANCH  15  17
ENDBRANCH  13  15
ENDBRANCH   1  13
BRANCH   5  18
ATOM     18  C   UNL     1       1.792   5.589  20.466  0.00  0.00    +0.000 C 
ATOM     19  O   UNL     1       0.604   5.725  20.705  0.00  0.00    +0.000 OA
BRANCH  18  20
ATOM     20  O   UNL     1       2.637   4.746  21.120  0.00  0.00    +0.000 OA
BRANCH  20  21
ATOM     21  C   UNL     1       2.032   3.680  21.865  0.00  0.00    +0.000 C 
ATOM     22  C   UNL     1       1.312   2.719  20.936  0.00  0.00    +0.000 C 
ENDBRANCH  20  21
ENDBRANCH  18  20
ENDBRANCH   5  18
BRANCH   3  23
ATOM     23  C   UNL     1       2.451   9.783  17.986  0.00  0.00    +0.000 C 
BRANCH  23  24
ATOM     24  C   UNL     1       1.079  10.154  18.493  0.00  0.00    +0.000 A 
ATOM     25  C   UNL     1      -0.068   9.824  17.755  0.00  0.00    +0.000 A 
ATOM     26  C   UNL     1      -1.339  10.107  18.256  0.00  0.00    +0.000 A 
ATOM     27  C   UNL     1      -1.478  10.729  19.495  0.00  0.00    +0.000 A 
ATOM     28  C   UNL     1      -0.346  11.080  20.229  0.00  0.00    +0.000 A 
ATOM     29  C   UNL     1       0.927  10.798  19.729  0.00  0.00    +0.000 A 
ENDBRANCH  23  24
ENDBRANCH   3  23
TORSDOF 9
ENDMDL
MODEL 4
REMARK VINA RESULT:      -7.0      1.154      1.641
REMARK  Name = 
REMARK  11 active torsions:
REMARK  status: ('A' for Active; 'I' for Inactive)
REMARK    1  A    between atoms: C_1  and  C_2
REMARK    2  A    between atoms: C_2  and  O_3
REMARK    3  A    between atoms: O_3  and  C_4
REMARK    4  A    between atoms: C_4  and  C_6
REMARK    5  A    between atoms: N_8  and  C_9
REMARK    6  A    between atoms: C_9  and  C_10
REMARK    7  A    between atoms: C_17  and  C_18
REMARK    8  A    between atoms: C_18  and  O_20
REMARK    9  A    between atoms: O_20  and  C_21
REMARK   10  A    between atoms: C_21  and  C_22
REMARK   11  A    between atoms: C_23  and  C_24
REMARK                            x       y       z     vdW  Elec       q    Type
REMARK                         _______ _______ _______ _____ _____    ______ ____
ROOT
ATOM      1  C   UNL     1       4.475   6.331  17.607  0.00  0.00    +0.000 C 
ATOM      2  C   UNL     1       3.902   7.514  17.301  0.00  0.00    +0.000 C 
ATOM      3  N   UNL     1       2.838   8.078  17.998  0.00  0.00    +0.000 N 
ATOM      4  C   UNL     1       2.184   7.285  18.934  0.00  0.00    +0.000 C 
ATOM      5  C   UNL     1       2.637   6.086  19.346  0.00  0.00    +0.000 C 
ATOM      6  C   UNL     1       3.983   5.554  18.842  0.00  0.00    +0.000 C 
ENDROOT
BRANCH   6   7
ATOM      7  C   UNL     1       4.006   4.037  18.693  0.00  0.00    +0.000 A 
ATOM      8  C   UNL     1       3.497   3.403  17.553  0.00  0.00    +0.000 A 
ATOM      9  C   UNL     1       3.505   2.010  17.458  0.00  0.00    +0.000 A 
ATOM     10  C   UNL     1       4.029   1.237  18.496  0.00  0.00    +0.000 A 
ATOM     11  C   UNL     1       4.548   1.855  19.631  0.00  0.00    +0.000 A 
ATOM     12  C   UNL     1       4.538   3.247  19.727  0.00  0.00    +0.000 A 
ENDBRANCH   6   7
BRANCH   1  13
ATOM     13  C   UNL     1       5.596   5.828  16.770  0.00  0.00    +0.000 C 
ATOM     14  O   UNL     1       6.726   5.603  17.165  0.00  0.00    +0.000 OA
BRANCH  13  15
ATOM     15  O   UNL     1       5.189   5.659  15.481  0.00  0.00    +0.000 OA
BRANCH  15  17
ATOM     16  C   UNL     1       6.624   4.515  13.900  0.00  0.00    +0.000 C 
ATOM     17  C   UNL     1       5.477   4.385  14.886  0.00  0.00    +0.000 C 
ENDBRANCH  15  17
ENDBRANCH  13  15
ENDBRANCH   1  13
BRANCH   5  18
ATOM     18  C   UNL     1       1.859   5.333  20.361  0.00  0.00    +0.000 C 
ATOM     19  O   UNL     1       2.049   5.395  21.564  0.00  0.00    +0.000 OA
BRANCH  18  20
ATOM     20  O   UNL     1       0.907   4.574  19.751  0.00  0.00    +0.000 OA
BRANCH  20  21
ATOM     21  C   UNL     1       0.798   3.211  20.182  0.00  0.00    +0.000 C 
ATOM     22  C   UNL     1       0.466   2.304  19.010  0.00  0.00    +0.000 C 
ENDBRANCH  20  21
ENDBRANCH  18  20
ENDBRANCH   5  18
BRANCH   3  23
ATOM     23  C   UNL     1       2.477   9.497  17.822  0.00  0.00    +0.000 C 
BRANCH  23  24
ATOM     24  C   UNL     1       1.135   9.844  18.417  0.00  0.00    +0.000 A 
ATOM     25  C   UNL     1       1.043  10.348  19.724  0.00  0.00    +0.000 A 
ATOM     26  C   UNL     1      -0.191  10.732  20.250  0.00  0.00    +0.000 A 
ATOM     27  C   UNL     1      -1.346  10.609  19.481  0.00  0.00    +0.000 A 
ATOM     28  C   UNL     1      -1.271  10.091  18.189  0.00  0.00    +0.000 A 
ATOM     29  C   UNL     1      -0.038   9.706  17.660  0.00  0.00    +0.000 A 
ENDBRANCH  23  24
ENDBRANCH   3  23
TORSDOF 9
ENDMDL
MODEL 5
REMARK VINA RESULT:      -6.7      0.802      1.314
REMARK  Name = 
REMARK  11 active torsions:
REMARK  status: ('A' for Active; 'I' for Inactive)
REMARK    1  A    between atoms: C_1  and  C_2
REMARK    2  A    between atoms: C_2  and  O_3
REMARK    3  A    between atoms: O_3  and  C_4
REMARK    4  A    between atoms: C_4  and  C_6
REMARK    5  A    between atoms: N_8  and  C_9
REMARK    6  A    between atoms: C_9  and  C_10
REMARK    7  A    between atoms: C_17  and  C_18
REMARK    8  A    between atoms: C_18  and  O_20
REMARK    9  A    between atoms: O_20  and  C_21
REMARK   10  A    between atoms: C_21  and  C_22
REMARK   11  A    between atoms: C_23  and  C_24
REMARK                            x       y       z     vdW  Elec       q    Type
REMARK                         _______ _______ _______ _____ _____    ______ ____
ROOT
ATOM      1  C   UNL     1       4.091   6.795  17.539  0.00  0.00    +0.000 C 
ATOM      2  C   UNL     1       3.479   7.992  17.424  0.00  0.00    +0.000 C 
ATOM      3  N   UNL     1       2.524   8.477  18.312  0.00  0.00    +0.000 N 
ATOM      4  C   UNL     1       2.012   7.595  19.257  0.00  0.00    +0.000 C 
ATOM      5  C   UNL     1       2.522   6.371  19.492  0.00  0.00    +0.000 C 
ATOM      6  C   UNL     1       3.783   5.905  18.757  0.00  0.00    +0.000 C 
ENDROOT
BRANCH   6   7
ATOM      7  C   UNL     1       3.787   4.408  18.470  0.00  0.00    +0.000 A 
ATOM      8  C   UNL     1       3.180   3.876  17.326  0.00  0.00    +0.000 A 
ATOM      9  C   UNL     1       3.174   2.497  17.106  0.00  0.00    +0.000 A 
ATOM     10  C   UNL     1       3.782   1.637  18.022  0.00  0.00    +0.000 A 
ATOM     11  C   UNL     1       4.398   2.153  19.160  0.00  0.00    +0.000 A 
ATOM     12  C   UNL     1       4.402   3.531  19.381  0.00  0.00    +0.000 A 
ENDBRANCH   6   7
BRANCH   1  13
ATOM     13  C   UNL     1       5.082   6.385  16.509  0.00  0.00    +0.000 C 
ATOM     14  O   UNL     1       4.990   6.602  15.314  0.00  0.00    +0.000 OA
BRANCH  13  15
ATOM     15  O   UNL     1       6.119   5.714  17.086  0.00  0.00    +0.000 OA
BRANCH  15  17
ATOM     16  C   UNL     1       7.714   7.285  18.010  0.00  0.00    +0.000 C 
ATOM     17  C   UNL     1       7.423   6.285  16.906  0.00  0.00    +0.000 C 
ENDBRANCH  15  17
ENDBRANCH  13  15
ENDBRANCH   1  13
BRANCH   5  18
ATOM     18  C   UNL     1       1.897   5.520  20.536  0.00  0.00    +0.000 C 
ATOM     19  O   UNL     1       2.265   5.470  21.698  0.00  0.00    +0.000 OA
BRANCH  18  20
ATOM     20  O   UNL     1       0.860   4.817  20.006  0.00  0.00    +0.000 OA
BRANCH  20  21
ATOM     21  C   UNL     1       0.774   3.430  20.363  0.00  0.00    +0.000 C 
ATOM     22  C   UNL     1       0.380   2.591  19.160  0.00  0.00    +0.000 C 
ENDBRANCH  20  21
ENDBRANCH  18  20
ENDBRANCH   5  18
BRANCH   3  23
ATOM     23  C   UNL     1       2.139   9.900  18.317  0.00  0.00    +0.000 C 
BRANCH  23  24
ATOM     24  C   UNL     1       0.645  10.109  18.360  0.00  0.00    +0.000 A 
ATOM     25  C   UNL     1      -0.179   9.572  17.358  0.00  0.00    +0.000 A 
ATOM     26  C   UNL     1      -1.565   9.707  17.434  0.00  0.00    +0.000 A 
ATOM     27  C   UNL     1      -2.143  10.385  18.505  0.00  0.00    +0.000 A 
ATOM     28  C   UNL     1      -1.335  10.940  19.496  0.00  0.00    +0.000 A 
ATOM     29  C   UNL     1       0.053  10.806  19.422  0.00  0.00    +0.000 A 
ENDBRANCH  23  24
ENDBRANCH   3  23
TORSDOF 9
ENDMDL
MODEL 6
REMARK VINA RESULT:      -6.7      0.914      2.036
REMARK  Name = 
REMARK  11 active torsions:
REMARK  status: ('A' for Active; 'I' for Inactive)
REMARK    1  A    between atoms: C_1  and  C_2
REMARK    2  A    between atoms: C_2  and  O_3
REMARK    3  A    between atoms: O_3  and  C_4
REMARK    4  A    between atoms: C_4  and  C_6
REMARK    5  A    between atoms: N_8  and  C_9
REMARK    6  A    between atoms: C_9  and  C_10
REMARK    7  A    between atoms: C_17  and  C_18
REMARK    8  A    between atoms: C_18  and  O_20
REMARK    9  A    between atoms: O_20  and  C_21
REMARK   10  A    between atoms: C_21  and  C_22
REMARK   11  A    between atoms: C_23  and  C_24
REMARK                            x       y       z     vdW  Elec       q    Type
REMARK                         _______ _______ _______ _____ _____    ______ ____
ROOT
ATOM      1  C   UNL     1       4.064   6.586  17.468  0.00  0.00    +0.000 C 
ATOM      2  C   UNL     1       3.569   7.808  17.184  0.00  0.00    +0.000 C 
ATOM      3  N   UNL     1       2.685   8.509  17.998  0.00  0.00    +0.000 N 
ATOM      4  C   UNL     1       2.109   7.828  19.065  0.00  0.00    +0.000 C 
ATOM      5  C   UNL     1       2.502   6.606  19.473  0.00  0.00    +0.000 C 
ATOM      6  C   UNL     1       3.696   5.916  18.805  0.00  0.00    +0.000 C 
ENDROOT
BRANCH   6   7
ATOM      7  C   UNL     1       3.548   4.400  18.740  0.00  0.00    +0.000 A 
ATOM      8  C   UNL     1       4.452   3.545  19.383  0.00  0.00    +0.000 A 
ATOM      9  C   UNL     1       4.307   2.160  19.280  0.00  0.00    +0.000 A 
ATOM     10  C   UNL     1       3.254   1.615  18.543  0.00  0.00    +0.000 A 
ATOM     11  C   UNL     1       2.342   2.455  17.906  0.00  0.00    +0.000 A 
ATOM     12  C   UNL     1       2.488   3.839  18.007  0.00  0.00    +0.000 A 
ENDBRANCH   6   7
BRANCH   1  13
ATOM     13  C   UNL     1       4.989   5.934  16.503  0.00  0.00    +0.000 C 
ATOM     14  O   UNL     1       4.797   4.863  15.955  0.00  0.00    +0.000 OA
BRANCH  13  15
ATOM     15  O   UNL     1       6.100   6.700  16.316  0.00  0.00    +0.000 OA
BRANCH  15  17
ATOM     16  C   UNL     1       7.719   7.944  17.619  0.00  0.00    +0.000 C 
ATOM     17  C   UNL     1       7.128   6.581  17.311  0.00  0.00    +0.000 C 
ENDBRANCH  15  17
ENDBRANCH  13  15
ENDBRANCH   1  13
BRANCH   5  18
ATOM     18  C   UNL     1       1.820   5.981  20.634  0.00  0.00    +0.000 C 
ATOM     19  O   UNL     1       2.200   4.967  21.194  0.00  0.00    +0.000 OA
BRANCH  18  20
ATOM     20  O   UNL     1       0.722   6.708  20.977  0.00  0.00    +0.000 OA
BRANCH  20  21
ATOM     21  C   UNL     1       0.960   7.986  21.583  0.00  0.00    +0.000 C 
ATOM     22  C   UNL     1      -0.345   8.617  22.032  0.00  0.00    +0.000 C 
ENDBRANCH  20  21
ENDBRANCH  18  20
ENDBRANCH   5  18
BRANCH   3  23
ATOM     23  C   UNL     1       2.441   9.949  17.798  0.00  0.00    +0.000 C 
BRANCH  23  24
ATOM     24  C   UNL     1       1.136  10.416  18.396  0.00  0.00    +0.000 A 
ATOM     25  C   UNL     1      -0.086   9.913  17.924  0.00  0.00    +0.000 A 
ATOM     26  C   UNL     1      -1.287  10.294  18.522  0.00  0.00    +0.000 A 
ATOM     27  C   UNL     1      -1.282  11.187  19.592  0.00  0.00    +0.000 A 
ATOM     28  C   UNL     1      -0.077  11.709  20.057  0.00  0.00    +0.000 A 
ATOM     29  C   UNL     1       1.127  11.330  19.460  0.00  0.00    +0.000 A 
ENDBRANCH  23  24
ENDBRANCH   3  23
TORSDOF 9
ENDMDL
MODEL 7
REMARK VINA RESULT:      -6.7      1.477      1.951
REMARK  Name = 
REMARK  11 active torsions:
REMARK  status: ('A' for Active; 'I' for Inactive)
REMARK    1  A    between atoms: C_1  and  C_2
REMARK    2  A    between atoms: C_2  and  O_3
REMARK    3  A    between atoms: O_3  and  C_4
REMARK    4  A    between atoms: C_4  and  C_6
REMARK    5  A    between atoms: N_8  and  C_9
REMARK    6  A    between atoms: C_9  and  C_10
REMARK    7  A    between atoms: C_17  and  C_18
REMARK    8  A    between atoms: C_18  and  O_20
REMARK    9  A    between atoms: O_20  and  C_21
REMARK   10  A    between atoms: C_21  and  C_22
REMARK   11  A    between atoms: C_23  and  C_24
REMARK                            x       y       z     vdW  Elec       q    Type
REMARK                         _______ _______ _______ _____ _____    ______ ____
ROOT
ATOM      1  C   UNL     1       3.843   6.854  17.995  0.00  0.00    +0.000 C 
ATOM      2  C   UNL     1       3.080   7.966  17.993  0.00  0.00    +0.000 C 
ATOM      3  N   UNL     1       2.054   8.220  18.899  0.00  0.00    +0.000 N 
ATOM      4  C   UNL     1       1.648   7.179  19.725  0.00  0.00    +0.000 C 
ATOM      5  C   UNL     1       2.311   6.013  19.841  0.00  0.00    +0.000 C 
ATOM      6  C   UNL     1       3.635   5.800  19.099  0.00  0.00    +0.000 C 
ENDROOT
BRANCH   6   7
ATOM      7  C   UNL     1       3.841   4.357  18.651  0.00  0.00    +0.000 A 
ATOM      8  C   UNL     1       3.435   3.915  17.386  0.00  0.00    +0.000 A 
ATOM      9  C   UNL     1       3.611   2.580  17.015  0.00  0.00    +0.000 A 
ATOM     10  C   UNL     1       4.202   1.677  17.900  0.00  0.00    +0.000 A 
ATOM     11  C   UNL     1       4.621   2.106  19.158  0.00  0.00    +0.000 A 
ATOM     12  C   UNL     1       4.443   3.440  19.529  0.00  0.00    +0.000 A 
ENDBRANCH   6   7
BRANCH   1  13
ATOM     13  C   UNL     1       4.897   6.693  16.959  0.00  0.00    +0.000 C 
ATOM     14  O   UNL     1       4.700   6.594  15.761  0.00  0.00    +0.000 OA
BRANCH  13  15
ATOM     15  O   UNL     1       6.131   6.662  17.535  0.00  0.00    +0.000 OA
BRANCH  15  17
ATOM     16  C   UNL     1       7.399   4.598  17.545  0.00  0.00    +0.000 C 
ATOM     17  C   UNL     1       7.139   5.915  16.837  0.00  0.00    +0.000 C 
ENDBRANCH  15  17
ENDBRANCH  13  15
ENDBRANCH   1  13
BRANCH   5  18
ATOM     18  C   UNL     1       1.787   4.976  20.765  0.00  0.00    +0.000 C 
ATOM     19  O   UNL     1       2.246   4.741  21.871  0.00  0.00    +0.000 OA
BRANCH  18  20
ATOM     20  O   UNL     1       0.726   4.339  20.200  0.00  0.00    +0.000 OA
BRANCH  20  21
ATOM     21  C   UNL     1       0.760   2.906  20.201  0.00  0.00    +0.000 C 
ATOM     22  C   UNL     1       0.560   2.364  18.797  0.00  0.00    +0.000 C 
ENDBRANCH  20  21
ENDBRANCH  18  20
ENDBRANCH   5  18
BRANCH   3  23
ATOM     23  C   UNL     1       1.485   9.572  19.047  0.00  0.00    +0.000 C 
BRANCH  23  24
ATOM     24  C   UNL     1       0.775   9.774  20.363  0.00  0.00    +0.000 A 
ATOM     25  C   UNL     1       1.236   9.138  21.526  0.00  0.00    +0.000 A 
ATOM     26  C   UNL     1       0.621   9.377  22.756  0.00  0.00    +0.000 A 
ATOM     27  C   UNL     1      -0.464  10.248  22.836  0.00  0.00    +0.000 A 
ATOM     28  C   UNL     1      -0.943  10.870  21.685  0.00  0.00    +0.000 A 
ATOM     29  C   UNL     1      -0.330  10.632  20.453  0.00  0.00    +0.000 A 
ENDBRANCH  23  24
ENDBRANCH   3  23
TORSDOF 9
ENDMDL
MODEL 8
REMARK VINA RESULT:      -6.6      1.658      4.409
REMARK  Name = 
REMARK  11 active torsions:
REMARK  status: ('A' for Active; 'I' for Inactive)
REMARK    1  A    between atoms: C_1  and  C_2
REMARK    2  A    between atoms: C_2  and  O_3
REMARK    3  A    between atoms: O_3  and  C_4
REMARK    4  A    between atoms: C_4  and  C_6
REMARK    5  A    between atoms: N_8  and  C_9
REMARK    6  A    between atoms: C_9  and  C_10
REMARK    7  A    between atoms: C_17  and  C_18
REMARK    8  A    between atoms: C_18  and  O_20
REMARK    9  A    between atoms: O_20  and  C_21
REMARK   10  A    between atoms: C_21  and  C_22
REMARK   11  A    between atoms: C_23  and  C_24
REMARK                            x       y       z     vdW  Elec       q    Type
REMARK                         _______ _______ _______ _____ _____    ______ ____
ROOT
ATOM      1  C   UNL     1       2.213   4.919  18.208  0.00  0.00    +0.000 C 
ATOM      2  C   UNL     1       2.025   6.255  18.239  0.00  0.00    +0.000 C 
ATOM      3  N   UNL     1       2.998   7.196  17.918  0.00  0.00    +0.000 N 
ATOM      4  C   UNL     1       4.304   6.748  17.758  0.00  0.00    +0.000 C 
ATOM      5  C   UNL     1       4.647   5.447  17.699  0.00  0.00    +0.000 C 
ATOM      6  C   UNL     1       3.566   4.361  17.730  0.00  0.00    +0.000 C 
ENDROOT
BRANCH   6   7
ATOM      7  C   UNL     1       4.019   3.090  18.439  0.00  0.00    +0.000 A 
ATOM      8  C   UNL     1       3.820   1.823  17.876  0.00  0.00    +0.000 A 
ATOM      9  C   UNL     1       4.219   0.675  18.563  0.00  0.00    +0.000 A 
ATOM     10  C   UNL     1       4.828   0.780  19.815  0.00  0.00    +0.000 A 
ATOM     11  C   UNL     1       5.041   2.035  20.382  0.00  0.00    +0.000 A 
ATOM     12  C   UNL     1       4.641   3.183  19.696  0.00  0.00    +0.000 A 
ENDBRANCH   6   7
BRANCH   1  13
ATOM     13  C   UNL     1       1.096   4.018  18.595  0.00  0.00    +0.000 C 
ATOM     14  O   UNL     1       0.482   3.289  17.836  0.00  0.00    +0.000 OA
BRANCH  13  15
ATOM     15  O   UNL     1       0.837   4.125  19.928  0.00  0.00    +0.000 OA
BRANCH  15  17
ATOM     16  C   UNL     1       1.956   3.229  21.880  0.00  0.00    +0.000 C 
ATOM     17  C   UNL     1       1.035   2.938  20.710  0.00  0.00    +0.000 C 
ENDBRANCH  15  17
ENDBRANCH  13  15
ENDBRANCH   1  13
BRANCH   5  18
ATOM     18  C   UNL     1       6.075   5.087  17.515  0.00  0.00    +0.000 C 
ATOM     19  O   UNL     1       6.990   5.517  18.197  0.00  0.00    +0.000 OA
BRANCH  18  20
ATOM     20  O   UNL     1       6.206   4.210  16.483  0.00  0.00    +0.000 OA
BRANCH  20  21
ATOM     21  C   UNL     1       6.754   4.729  15.263  0.00  0.00    +0.000 C 
ATOM     22  C   UNL     1       6.060   4.114  14.061  0.00  0.00    +0.000 C 
ENDBRANCH  20  21
ENDBRANCH  18  20
ENDBRANCH   5  18
BRANCH   3  23
ATOM     23  C   UNL     1       2.642   8.603  17.658  0.00  0.00    +0.000 C 
BRANCH  23  24
ATOM     24  C   UNL     1       1.517   9.099  18.532  0.00  0.00    +0.000 A 
ATOM     25  C   UNL     1       1.546   8.890  19.920  0.00  0.00    +0.000 A 
ATOM     26  C   UNL     1       0.539   9.408  20.736  0.00  0.00    +0.000 A 
ATOM     27  C   UNL     1      -0.510  10.133  20.175  0.00  0.00    +0.000 A 
ATOM     28  C   UNL     1      -0.561  10.330  18.796  0.00  0.00    +0.000 A 
ATOM     29  C   UNL     1       0.445   9.814  17.977  0.00  0.00    +0.000 A 
ENDBRANCH  23  24
ENDBRANCH   3  23
TORSDOF 9
ENDMDL
MODEL 9
REMARK VINA RESULT:      -6.6      0.999      1.883
REMARK  Name = 
REMARK  11 active torsions:
REMARK  status: ('A' for Active; 'I' for Inactive)
REMARK    1  A    between atoms: C_1  and  C_2
REMARK    2  A    between atoms: C_2  and  O_3
REMARK    3  A    between atoms: O_3  and  C_4
REMARK    4  A    between atoms: C_4  and  C_6
REMARK    5  A    between atoms: N_8  and  C_9
REMARK    6  A    between atoms: C_9  and  C_10
REMARK    7  A    between atoms: C_17  and  C_18
REMARK    8  A    between atoms: C_18  and  O_20
REMARK    9  A    between atoms: O_20  and  C_21
REMARK   10  A    between atoms: C_21  and  C_22
REMARK   11  A    between atoms: C_23  and  C_24
REMARK                            x       y       z     vdW  Elec       q    Type
REMARK                         _______ _______ _______ _____ _____    ______ ____
ROOT
ATOM      1  C   UNL     1       4.170   6.524  17.500  0.00  0.00    +0.000 C 
ATOM      2  C   UNL     1       3.661   7.739  17.210  0.00  0.00    +0.000 C 
ATOM      3  N   UNL     1       2.738   8.417  18.000  0.00  0.00    +0.000 N 
ATOM      4  C   UNL     1       2.142   7.718  19.044  0.00  0.00    +0.000 C 
ATOM      5  C   UNL     1       2.545   6.501  19.455  0.00  0.00    +0.000 C 
ATOM      6  C   UNL     1       3.772   5.837  18.820  0.00  0.00    +0.000 C 
ENDROOT
BRANCH   6   7
ATOM      7  C   UNL     1       3.655   4.320  18.739  0.00  0.00    +0.000 A 
ATOM      8  C   UNL     1       4.483   3.477  19.492  0.00  0.00    +0.000 A 
ATOM      9  C   UNL     1       4.371   2.090  19.374  0.00  0.00    +0.000 A 
ATOM     10  C   UNL     1       3.426   1.531  18.512  0.00  0.00    +0.000 A 
ATOM     11  C   UNL     1       2.590   2.358  17.765  0.00  0.00    +0.000 A 
ATOM     12  C   UNL     1       2.702   3.744  17.881  0.00  0.00    +0.000 A 
ENDBRANCH   6   7
BRANCH   1  13
ATOM     13  C   UNL     1       5.136   5.897  16.560  0.00  0.00    +0.000 C 
ATOM     14  O   UNL     1       4.973   5.772  15.360  0.00  0.00    +0.000 OA
BRANCH  13  15
ATOM     15  O   UNL     1       6.241   5.466  17.231  0.00  0.00    +0.000 OA
BRANCH  15  17
ATOM     16  C   UNL     1       7.838   6.150  18.918  0.00  0.00    +0.000 C 
ATOM     17  C   UNL     1       7.207   6.470  17.576  0.00  0.00    +0.000 C 
ENDBRANCH  15  17
ENDBRANCH  13  15
ENDBRANCH   1  13
BRANCH   5  18
ATOM     18  C   UNL     1       1.838   5.854  20.589  0.00  0.00    +0.000 C 
ATOM     19  O   UNL     1       2.208   4.832  21.141  0.00  0.00    +0.000 OA
BRANCH  18  20
ATOM     20  O   UNL     1       0.729   6.571  20.918  0.00  0.00    +0.000 OA
BRANCH  20  21
ATOM     21  C   UNL     1       0.947   7.820  21.589  0.00  0.00    +0.000 C 
ATOM     22  C   UNL     1      -0.366   8.553  21.795  0.00  0.00    +0.000 C 
ENDBRANCH  20  21
ENDBRANCH  18  20
ENDBRANCH   5  18
BRANCH   3  23
ATOM     23  C   UNL     1       2.474   9.854  17.803  0.00  0.00    +0.000 C 
BRANCH  23  24
ATOM     24  C   UNL     1       1.155  10.299  18.388  0.00  0.00    +0.000 A 
ATOM     25  C   UNL     1       1.117  11.238  19.430  0.00  0.00    +0.000 A 
ATOM     26  C   UNL     1      -0.103  11.698  19.924  0.00  0.00    +0.000 A 
ATOM     27  C   UNL     1      -1.298  11.221  19.389  0.00  0.00    +0.000 A 
ATOM     28  C   UNL     1      -1.274  10.274  18.367  0.00  0.00    +0.000 A 
ATOM     29  C   UNL     1      -0.054   9.811  17.871  0.00  0.00    +0.000 A 
ENDBRANCH  23  24
ENDBRANCH   3  23
TORSDOF 9
ENDMDL
