MODEL 1
REMARK VINA RESULT:      -7.9      0.000      0.000
REMARK  Name = 
REMARK  8 active torsions:
REMARK  status: ('A' for Active; 'I' for Inactive)
REMARK    1  A    between atoms: C_1  and  C_2
REMARK    2  A    between atoms: C_5  and  C_6
REMARK    3  A    between atoms: C_6  and  O_8
REMARK    4  A    between atoms: O_8  and  C_9
REMARK    5  A    between atoms: C_9  and  C_10
REMARK    6  A    between atoms: C_10  and  C_11
REMARK    7  A    between atoms: C_11  and  O_12
REMARK    8  A    between atoms: C_15  and  C_16
REMARK                            x       y       z     vdW  Elec       q    Type
REMARK                         _______ _______ _______ _____ _____    ______ ____
ROOT
ATOM      1  C   UNL     1       4.398   4.288  18.243  0.00  0.00    +0.000 C 
ATOM      2  C   UNL     1       4.209   5.479  17.307  0.00  0.00    +0.000 C 
ATOM      3  C   UNL     1       5.317   5.284  16.288  0.00  0.00    +0.000 C 
ATOM      4  C   UNL     1       5.294   4.338  15.320  0.00  0.00    +0.000 C 
ATOM      5  C   UNL     1       6.391   4.878  17.253  0.00  0.00    +0.000 C 
ATOM      6  O   UNL     1       7.549   5.247  17.231  0.00  0.00    +0.000 OA
ATOM      7  O   UNL     1       5.822   4.035  18.171  0.00  0.00    +0.000 OA
ENDROOT
BRANCH   4   8
ATOM      8  C   UNL     1       6.071   4.289  14.071  0.00  0.00    +0.000 A 
ATOM      9  C   UNL     1       7.174   5.104  13.828  0.00  0.00    +0.000 A 
ATOM     10  C   UNL     1       7.850   5.020  12.606  0.00  0.00    +0.000 A 
ATOM     11  C   UNL     1       7.425   4.128  11.623  0.00  0.00    +0.000 A 
ATOM     12  C   UNL     1       6.320   3.307  11.854  0.00  0.00    +0.000 A 
ATOM     13  C   UNL     1       5.647   3.398  13.069  0.00  0.00    +0.000 A 
ENDBRANCH   4   8
BRANCH   1  14
ATOM     14  C   UNL     1       4.084   4.531  19.729  0.00  0.00    +0.000 C 
BRANCH  14  15
ATOM     15  O   UNL     1       3.630   5.866  19.984  0.00  0.00    +0.000 OA
BRANCH  15  16
ATOM     16  C   UNL     1       2.288   5.986  20.146  0.00  0.00    +0.000 C 
ATOM     17  O   UNL     1       1.540   5.086  20.484  0.00  0.00    +0.000 OA
BRANCH  16  22
ATOM     18  C   UNL     1       0.706  11.417  18.972  0.00  0.00    +0.000 C 
ATOM     19  C   UNL     1       1.082  10.001  19.296  0.00  0.00    +0.000 A 
ATOM     20  C   UNL     1       1.691   9.196  18.327  0.00  0.00    +0.000 A 
ATOM     21  C   UNL     1       2.064   7.892  18.634  0.00  0.00    +0.000 A 
ATOM     22  C   UNL     1       1.837   7.373  19.913  0.00  0.00    +0.000 A 
ATOM     23  C   UNL     1       1.214   8.163  20.883  0.00  0.00    +0.000 A 
ATOM     24  C   UNL     1       0.835   9.472  20.574  0.00  0.00    +0.000 A 
ENDBRANCH  16  22
ENDBRANCH  15  16
ENDBRANCH  14  15
ENDBRANCH   1  14
BRANCH   1  25
ATOM     25  C   UNL     1       3.530   3.096  17.755  0.00  0.00    +0.000 C 
BRANCH  25  26
ATOM     26  O   UNL     1       2.138   3.376  17.837  0.00  0.00    +0.000 OA
ATOM     27  H   UNL     1       1.837   3.076  18.714  0.00  0.00    +0.000 HD
ENDBRANCH  25  26
ENDBRANCH   1  25
TORSDOF 7
ENDMDL
MODEL 2
REMARK VINA RESULT:      -7.9      0.488      1.426
REMARK  Name = 
REMARK  8 active torsions:
REMARK  status: ('A' for Active; 'I' for Inactive)
REMARK    1  A    between atoms: C_1  and  C_2
REMARK    2  A    between atoms: C_5  and  C_6
REMARK    3  A    between atoms: C_6  and  O_8
REMARK    4  A    between atoms: O_8  and  C_9
REMARK    5  A    between atoms: C_9  and  C_10
REMARK    6  A    between atoms: C_10  and  C_11
REMARK    7  A    between atoms: C_11  and  O_12
REMARK    8  A    between atoms: C_15  and  C_16
REMARK                            x       y       z     vdW  Elec       q    Type
REMARK                         _______ _______ _______ _____ _____    ______ ____
ROOT
ATOM      1  C   UNL     1       4.349   4.309  18.152  0.00  0.00    +0.000 C 
ATOM      2  C   UNL     1       4.237   5.524  17.233  0.00  0.00    +0.000 C 
ATOM      3  C   UNL     1       5.322   5.266  16.203  0.00  0.00    +0.000 C 
ATOM      4  C   UNL     1       5.226   4.338  15.222  0.00  0.00    +0.000 C 
ATOM      5  C   UNL     1       6.371   4.773  17.154  0.00  0.00    +0.000 C 
ATOM      6  O   UNL     1       7.552   5.060  17.128  0.00  0.00    +0.000 OA
ATOM      7  O   UNL     1       5.752   3.959  18.064  0.00  0.00    +0.000 OA
ENDROOT
BRANCH   4   8
ATOM      8  C   UNL     1       5.989   4.252  13.967  0.00  0.00    +0.000 A 
ATOM      9  C   UNL     1       5.706   3.325  12.966  0.00  0.00    +0.000 A 
ATOM     10  C   UNL     1       6.490   3.284  11.808  0.00  0.00    +0.000 A 
ATOM     11  C   UNL     1       7.560   4.164  11.648  0.00  0.00    +0.000 A 
ATOM     12  C   UNL     1       7.855   5.096  12.644  0.00  0.00    +0.000 A 
ATOM     13  C   UNL     1       7.075   5.128  13.797  0.00  0.00    +0.000 A 
ENDBRANCH   4   8
BRANCH   1  14
ATOM     14  C   UNL     1       4.063   4.553  19.643  0.00  0.00    +0.000 C 
BRANCH  14  15
ATOM     15  O   UNL     1       3.694   5.910  19.918  0.00  0.00    +0.000 OA
BRANCH  15  16
ATOM     16  C   UNL     1       2.370   6.100  20.151  0.00  0.00    +0.000 C 
ATOM     17  O   UNL     1       1.626   5.284  20.664  0.00  0.00    +0.000 OA
BRANCH  16  22
ATOM     18  C   UNL     1       0.510  11.415  18.863  0.00  0.00    +0.000 C 
ATOM     19  C   UNL     1       1.027  10.042  19.177  0.00  0.00    +0.000 A 
ATOM     20  C   UNL     1       0.871   9.510  20.461  0.00  0.00    +0.000 A 
ATOM     21  C   UNL     1       1.326   8.226  20.747  0.00  0.00    +0.000 A 
ATOM     22  C   UNL     1       1.941   7.456  19.754  0.00  0.00    +0.000 A 
ATOM     23  C   UNL     1       2.117   7.985  18.473  0.00  0.00    +0.000 A 
ATOM     24  C   UNL     1       1.664   9.276  18.186  0.00  0.00    +0.000 A 
ENDBRANCH  16  22
ENDBRANCH  15  16
ENDBRANCH  14  15
ENDBRANCH   1  14
BRANCH   1  25
ATOM     25  C   UNL     1       3.397   3.187  17.655  0.00  0.00    +0.000 C 
BRANCH  25  26
ATOM     26  O   UNL     1       3.980   1.896  17.775  0.00  0.00    +0.000 OA
ATOM     27  H   UNL     1       4.917   1.980  17.525  0.00  0.00    +0.000 HD
ENDBRANCH  25  26
ENDBRANCH   1  25
TORSDOF 7
ENDMDL
MODEL 3
REMARK VINA RESULT:      -7.8      0.644      1.146
REMARK  Name = 
REMARK  8 active torsions:
REMARK  status: ('A' for Active; 'I' for Inactive)
REMARK    1  A    between atoms: C_1  and  C_2
REMARK    2  A    between atoms: C_5  and  C_6
REMARK    3  A    between atoms: C_6  and  O_8
REMARK    4  A    between atoms: O_8  and  C_9
REMARK    5  A    between atoms: C_9  and  C_10
REMARK    6  A    between atoms: C_10  and  C_11
REMARK    7  A    between atoms: C_11  and  O_12
REMARK    8  A    between atoms: C_15  and  C_16
REMARK                            x       y       z     vdW  Elec       q    Type
REMARK                         _______ _______ _______ _____ _____    ______ ____
ROOT
ATOM      1  C   UNL     1       4.137   3.655  18.365  0.00  0.00    +0.000 C 
ATOM      2  C   UNL     1       3.634   4.704  17.375  0.00  0.00    +0.000 C 
ATOM      3  C   UNL     1       4.814   4.871  16.435  0.00  0.00    +0.000 C 
ATOM      4  C   UNL     1       5.172   3.957  15.503  0.00  0.00    +0.000 C 
ATOM      5  C   UNL     1       5.891   4.856  17.480  0.00  0.00    +0.000 C 
ATOM      6  O   UNL     1       6.862   5.586  17.517  0.00  0.00    +0.000 OA
ATOM      7  O   UNL     1       5.567   3.886  18.391  0.00  0.00    +0.000 OA
ENDROOT
BRANCH   4   8
ATOM      8  C   UNL     1       6.008   4.149  14.308  0.00  0.00    +0.000 A 
ATOM      9  C   UNL     1       7.071   5.048  14.259  0.00  0.00    +0.000 A 
ATOM     10  C   UNL     1       7.808   5.197  13.079  0.00  0.00    +0.000 A 
ATOM     11  C   UNL     1       7.483   4.454  11.944  0.00  0.00    +0.000 A 
ATOM     12  C   UNL     1       6.420   3.551  11.980  0.00  0.00    +0.000 A 
ATOM     13  C   UNL     1       5.686   3.411  13.155  0.00  0.00    +0.000 A 
ENDBRANCH   4   8
BRANCH   1  14
ATOM     14  C   UNL     1       3.656   3.803  19.819  0.00  0.00    +0.000 C 
BRANCH  14  15
ATOM     15  O   UNL     1       3.438   5.169  20.190  0.00  0.00    +0.000 OA
BRANCH  15  16
ATOM     16  C   UNL     1       2.133   5.513  20.338  0.00  0.00    +0.000 C 
ATOM     17  O   UNL     1       1.268   4.793  20.803  0.00  0.00    +0.000 OA
BRANCH  16  22
ATOM     18  C   UNL     1       0.984  10.996  18.928  0.00  0.00    +0.000 C 
ATOM     19  C   UNL     1       1.318   9.576  19.276  0.00  0.00    +0.000 A 
ATOM     20  C   UNL     1       0.998   9.069  20.540  0.00  0.00    +0.000 A 
ATOM     21  C   UNL     1       1.283   7.744  20.856  0.00  0.00    +0.000 A 
ATOM     22  C   UNL     1       1.890   6.906  19.914  0.00  0.00    +0.000 A 
ATOM     23  C   UNL     1       2.230   7.409  18.655  0.00  0.00    +0.000 A 
ATOM     24  C   UNL     1       1.948   8.740  18.338  0.00  0.00    +0.000 A 
ENDBRANCH  16  22
ENDBRANCH  15  16
ENDBRANCH  14  15
ENDBRANCH   1  14
BRANCH   1  25
ATOM     25  C   UNL     1       3.746   2.237  17.868  0.00  0.00    +0.000 C 
BRANCH  25  26
ATOM     26  O   UNL     1       2.429   1.874  18.262  0.00  0.00    +0.000 OA
ATOM     27  H   UNL     1       2.339   2.103  19.205  0.00  0.00    +0.000 HD
ENDBRANCH  25  26
ENDBRANCH   1  25
TORSDOF 7
ENDMDL
MODEL 4
REMARK VINA RESULT:      -7.6      2.332      7.255
REMARK  Name = 
REMARK  8 active torsions:
REMARK  status: ('A' for Active; 'I' for Inactive)
REMARK    1  A    between atoms: C_1  and  C_2
REMARK    2  A    between atoms: C_5  and  C_6
REMARK    3  A    between atoms: C_6  and  O_8
REMARK    4  A    between atoms: O_8  and  C_9
REMARK    5  A    between atoms: C_9  and  C_10
REMARK    6  A    between atoms: C_10  and  C_11
REMARK    7  A    between atoms: C_11  and  O_12
REMARK    8  A    between atoms: C_15  and  C_16
REMARK                            x       y       z     vdW  Elec       q    Type
REMARK                         _______ _______ _______ _____ _____    ______ ____
ROOT
ATOM      1  C   UNL     1       2.881   4.581  18.562  0.00  0.00    +0.000 C 
ATOM      2  C   UNL     1       3.659   5.286  19.671  0.00  0.00    +0.000 C 
ATOM      3  C   UNL     1       3.045   6.674  19.680  0.00  0.00    +0.000 C 
ATOM      4  C   UNL     1       1.815   6.952  20.173  0.00  0.00    +0.000 C 
ATOM      5  C   UNL     1       2.958   6.853  18.194  0.00  0.00    +0.000 C 
ATOM      6  O   UNL     1       3.228   7.865  17.578  0.00  0.00    +0.000 OA
ATOM      7  O   UNL     1       2.540   5.663  17.661  0.00  0.00    +0.000 OA
ENDROOT
BRANCH   4   8
ATOM      8  C   UNL     1       1.272   8.252  20.597  0.00  0.00    +0.000 A 
ATOM      9  C   UNL     1       0.958   8.551  21.920  0.00  0.00    +0.000 A 
ATOM     10  C   UNL     1       0.421   9.801  22.248  0.00  0.00    +0.000 A 
ATOM     11  C   UNL     1       0.190  10.752  21.254  0.00  0.00    +0.000 A 
ATOM     12  C   UNL     1       0.499  10.465  19.924  0.00  0.00    +0.000 A 
ATOM     13  C   UNL     1       1.027   9.217  19.603  0.00  0.00    +0.000 A 
ENDBRANCH   4   8
BRANCH   1  14
ATOM     14  C   UNL     1       3.665   3.559  17.721  0.00  0.00    +0.000 C 
BRANCH  14  15
ATOM     15  O   UNL     1       4.101   4.096  16.467  0.00  0.00    +0.000 OA
BRANCH  15  16
ATOM     16  C   UNL     1       5.429   3.956  16.222  0.00  0.00    +0.000 C 
ATOM     17  O   UNL     1       5.923   3.104  15.506  0.00  0.00    +0.000 OA
BRANCH  16  22
ATOM     18  C   UNL     1       8.445   8.271  18.602  0.00  0.00    +0.000 C 
ATOM     19  C   UNL     1       7.655   7.136  18.020  0.00  0.00    +0.000 A 
ATOM     20  C   UNL     1       6.769   7.366  16.963  0.00  0.00    +0.000 A 
ATOM     21  C   UNL     1       6.055   6.310  16.405  0.00  0.00    +0.000 A 
ATOM     22  C   UNL     1       6.216   5.010  16.894  0.00  0.00    +0.000 A 
ATOM     23  C   UNL     1       7.085   4.772  17.962  0.00  0.00    +0.000 A 
ATOM     24  C   UNL     1       7.799   5.833  18.526  0.00  0.00    +0.000 A 
ENDBRANCH  16  22
ENDBRANCH  15  16
ENDBRANCH  14  15
ENDBRANCH   1  14
BRANCH   1  25
ATOM     25  C   UNL     1       1.644   3.863  19.166  0.00  0.00    +0.000 C 
BRANCH  25  26
ATOM     26  O   UNL     1       0.971   3.056  18.209  0.00  0.00    +0.000 OA
ATOM     27  H   UNL     1       1.601   2.882  17.486  0.00  0.00    +0.000 HD
ENDBRANCH  25  26
ENDBRANCH   1  25
TORSDOF 7
ENDMDL
MODEL 5
REMARK VINA RESULT:      -7.6      4.564      7.128
REMARK  Name = 
REMARK  8 active torsions:
REMARK  status: ('A' for Active; 'I' for Inactive)
REMARK    1  A    between atoms: C_1  and  C_2
REMARK    2  A    between atoms: C_5  and  C_6
REMARK    3  A    between atoms: C_6  and  O_8
REMARK    4  A    between atoms: O_8  and  C_9
REMARK    5  A    between atoms: C_9  and  C_10
REMARK    6  A    between atoms: C_10  and  C_11
REMARK    7  A    between atoms: C_11  and  O_12
REMARK    8  A    between atoms: C_15  and  C_16
REMARK                            x       y       z     vdW  Elec       q    Type
REMARK                         _______ _______ _______ _____ _____    ______ ____
ROOT
ATOM      1  C   UNL     1       6.804   6.013  17.508  0.00  0.00    +0.000 C 
ATOM      2  C   UNL     1       6.467   5.908  18.994  0.00  0.00    +0.000 C 
ATOM      3  C   UNL     1       4.978   5.615  18.981  0.00  0.00    +0.000 C 
ATOM      4  C   UNL     1       4.447   4.419  18.631  0.00  0.00    +0.000 C 
ATOM      5  C   UNL     1       4.606   6.579  17.894  0.00  0.00    +0.000 C 
ATOM      6  O   UNL     1       3.633   7.309  17.887  0.00  0.00    +0.000 OA
ATOM      7  O   UNL     1       5.570   6.500  16.925  0.00  0.00    +0.000 OA
ENDROOT
BRANCH   4   8
ATOM      8  C   UNL     1       3.111   3.887  18.939  0.00  0.00    +0.000 A 
ATOM      9  C   UNL     1       2.278   4.437  19.910  0.00  0.00    +0.000 A 
ATOM     10  C   UNL     1       1.028   3.862  20.168  0.00  0.00    +0.000 A 
ATOM     11  C   UNL     1       0.610   2.734  19.461  0.00  0.00    +0.000 A 
ATOM     12  C   UNL     1       1.437   2.173  18.488  0.00  0.00    +0.000 A 
ATOM     13  C   UNL     1       2.681   2.745  18.240  0.00  0.00    +0.000 A 
ENDBRANCH   4   8
BRANCH   1  14
ATOM     14  C   UNL     1       7.888   7.034  17.124  0.00  0.00    +0.000 C 
BRANCH  14  15
ATOM     15  O   UNL     1       8.223   7.914  18.205  0.00  0.00    +0.000 OA
BRANCH  15  16
ATOM     16  C   UNL     1       7.949   9.223  17.974  0.00  0.00    +0.000 C 
ATOM     17  O   UNL     1       6.943   9.643  17.430  0.00  0.00    +0.000 OA
BRANCH  16  22
ATOM     18  C   UNL     1      12.214  12.659  19.812  0.00  0.00    +0.000 C 
ATOM     19  C   UNL     1      11.083  11.782  19.363  0.00  0.00    +0.000 A 
ATOM     20  C   UNL     1      10.826  11.609  17.999  0.00  0.00    +0.000 A 
ATOM     21  C   UNL     1       9.794  10.775  17.581  0.00  0.00    +0.000 A 
ATOM     22  C   UNL     1       9.005  10.100  18.518  0.00  0.00    +0.000 A 
ATOM     23  C   UNL     1       9.242  10.280  19.883  0.00  0.00    +0.000 A 
ATOM     24  C   UNL     1      10.276  11.121  20.305  0.00  0.00    +0.000 A 
ENDBRANCH  16  22
ENDBRANCH  15  16
ENDBRANCH  14  15
ENDBRANCH   1  14
BRANCH   1  25
ATOM     25  C   UNL     1       7.238   4.622  16.971  0.00  0.00    +0.000 C 
BRANCH  25  26
ATOM     26  O   UNL     1       8.277   4.046  17.752  0.00  0.00    +0.000 OA
ATOM     27  H   UNL     1       9.115   4.214  17.284  0.00  0.00    +0.000 HD
ENDBRANCH  25  26
ENDBRANCH   1  25
TORSDOF 7
ENDMDL
MODEL 6
REMARK VINA RESULT:      -7.5      2.544      7.327
REMARK  Name = 
REMARK  8 active torsions:
REMARK  status: ('A' for Active; 'I' for Inactive)
REMARK    1  A    between atoms: C_1  and  C_2
REMARK    2  A    between atoms: C_5  and  C_6
REMARK    3  A    between atoms: C_6  and  O_8
REMARK    4  A    between atoms: O_8  and  C_9
REMARK    5  A    between atoms: C_9  and  C_10
REMARK    6  A    between atoms: C_10  and  C_11
REMARK    7  A    between atoms: C_11  and  O_12
REMARK    8  A    between atoms: C_15  and  C_16
REMARK                            x       y       z     vdW  Elec       q    Type
REMARK                         _______ _______ _______ _____ _____    ______ ____
ROOT
ATOM      1  C   UNL     1       2.504   4.557  18.844  0.00  0.00    +0.000 C 
ATOM      2  C   UNL     1       3.282   5.257  19.956  0.00  0.00    +0.000 C 
ATOM      3  C   UNL     1       2.759   6.680  19.888  0.00  0.00    +0.000 C 
ATOM      4  C   UNL     1       1.531   7.054  20.317  0.00  0.00    +0.000 C 
ATOM      5  C   UNL     1       2.741   6.802  18.393  0.00  0.00    +0.000 C 
ATOM      6  O   UNL     1       3.100   7.770  17.750  0.00  0.00    +0.000 OA
ATOM      7  O   UNL     1       2.269   5.620  17.889  0.00  0.00    +0.000 OA
ENDROOT
BRANCH   4   8
ATOM      8  C   UNL     1       1.057   8.402  20.668  0.00  0.00    +0.000 A 
ATOM      9  C   UNL     1       0.754   9.374  19.717  0.00  0.00    +0.000 A 
ATOM     10  C   UNL     1       0.331  10.644  20.125  0.00  0.00    +0.000 A 
ATOM     11  C   UNL     1       0.215  10.948  21.481  0.00  0.00    +0.000 A 
ATOM     12  C   UNL     1       0.516   9.984  22.443  0.00  0.00    +0.000 A 
ATOM     13  C   UNL     1       0.943   8.724  22.032  0.00  0.00    +0.000 A 
ENDBRANCH   4   8
BRANCH   1  14
ATOM     14  C   UNL     1       3.253   3.454  18.077  0.00  0.00    +0.000 C 
BRANCH  14  15
ATOM     15  O   UNL     1       4.677   3.577  18.187  0.00  0.00    +0.000 OA
BRANCH  15  16
ATOM     16  C   UNL     1       5.291   4.043  17.070  0.00  0.00    +0.000 C 
ATOM     17  O   UNL     1       5.169   3.570  15.954  0.00  0.00    +0.000 OA
BRANCH  16  22
ATOM     18  C   UNL     1       8.527   8.616  18.482  0.00  0.00    +0.000 C 
ATOM     19  C   UNL     1       7.693   7.437  18.076  0.00  0.00    +0.000 A 
ATOM     20  C   UNL     1       7.817   6.222  18.758  0.00  0.00    +0.000 A 
ATOM     21  C   UNL     1       7.025   5.134  18.401  0.00  0.00    +0.000 A 
ATOM     22  C   UNL     1       6.098   5.246  17.359  0.00  0.00    +0.000 A 
ATOM     23  C   UNL     1       5.979   6.450  16.661  0.00  0.00    +0.000 A 
ATOM     24  C   UNL     1       6.777   7.541  17.016  0.00  0.00    +0.000 A 
ENDBRANCH  16  22
ENDBRANCH  15  16
ENDBRANCH  14  15
ENDBRANCH   1  14
BRANCH   1  25
ATOM     25  C   UNL     1       1.201   3.943  19.424  0.00  0.00    +0.000 C 
BRANCH  25  26
ATOM     26  O   UNL     1       1.394   3.408  20.727  0.00  0.00    +0.000 OA
ATOM     27  H   UNL     1       1.704   4.137  21.294  0.00  0.00    +0.000 HD
ENDBRANCH  25  26
ENDBRANCH   1  25
TORSDOF 7
ENDMDL
MODEL 7
REMARK VINA RESULT:      -7.5      1.085      1.085
REMARK  Name = 
REMARK  8 active torsions:
REMARK  status: ('A' for Active; 'I' for Inactive)
REMARK    1  A    between atoms: C_1  and  C_2
REMARK    2  A    between atoms: C_5  and  C_6
REMARK    3  A    between atoms: C_6  and  O_8
REMARK    4  A    between atoms: O_8  and  C_9
REMARK    5  A    between atoms: C_9  and  C_10
REMARK    6  A    between atoms: C_10  and  C_11
REMARK    7  A    between atoms: C_11  and  O_12
REMARK    8  A    between atoms: C_15  and  C_16
REMARK                            x       y       z     vdW  Elec       q    Type
REMARK                         _______ _______ _______ _____ _____    ______ ____
ROOT
ATOM      1  C   UNL     1       4.168   4.484  18.587  0.00  0.00    +0.000 C 
ATOM      2  C   UNL     1       3.399   4.932  17.346  0.00  0.00    +0.000 C 
ATOM      3  C   UNL     1       4.504   5.165  16.332  0.00  0.00    +0.000 C 
ATOM      4  C   UNL     1       5.190   4.170  15.722  0.00  0.00    +0.000 C 
ATOM      5  C   UNL     1       5.470   5.841  17.259  0.00  0.00    +0.000 C 
ATOM      6  O   UNL     1       6.143   6.820  17.001  0.00  0.00    +0.000 OA
ATOM      7  O   UNL     1       5.439   5.166  18.450  0.00  0.00    +0.000 OA
ENDROOT
BRANCH   4   8
ATOM      8  C   UNL     1       5.975   4.231  14.480  0.00  0.00    +0.000 A 
ATOM      9  C   UNL     1       7.131   4.997  14.346  0.00  0.00    +0.000 A 
ATOM     10  C   UNL     1       7.814   5.026  13.125  0.00  0.00    +0.000 A 
ATOM     11  C   UNL     1       7.343   4.296  12.034  0.00  0.00    +0.000 A 
ATOM     12  C   UNL     1       6.186   3.525  12.155  0.00  0.00    +0.000 A 
ATOM     13  C   UNL     1       5.506   3.505  13.370  0.00  0.00    +0.000 A 
ENDBRANCH   4   8
BRANCH   1  14
ATOM     14  C   UNL     1       3.592   4.925  19.944  0.00  0.00    +0.000 C 
BRANCH  14  15
ATOM     15  O   UNL     1       3.255   6.317  19.972  0.00  0.00    +0.000 OA
BRANCH  15  16
ATOM     16  C   UNL     1       1.964   6.580  20.297  0.00  0.00    +0.000 C 
ATOM     17  O   UNL     1       1.203   5.794  20.833  0.00  0.00    +0.000 OA
BRANCH  16  22
ATOM     18  C   UNL     1       0.722  12.010  18.767  0.00  0.00    +0.000 C 
ATOM     19  C   UNL     1       1.009  10.598  19.182  0.00  0.00    +0.000 A 
ATOM     20  C   UNL     1       1.624   9.714  18.289  0.00  0.00    +0.000 A 
ATOM     21  C   UNL     1       1.915   8.411  18.681  0.00  0.00    +0.000 A 
ATOM     22  C   UNL     1       1.597   7.972  19.971  0.00  0.00    +0.000 A 
ATOM     23  C   UNL     1       0.966   8.842  20.864  0.00  0.00    +0.000 A 
ATOM     24  C   UNL     1       0.670  10.149  20.470  0.00  0.00    +0.000 A 
ENDBRANCH  16  22
ENDBRANCH  15  16
ENDBRANCH  14  15
ENDBRANCH   1  14
BRANCH   1  25
ATOM     25  C   UNL     1       4.292   2.936  18.595  0.00  0.00    +0.000 C 
BRANCH  25  26
ATOM     26  O   UNL     1       5.289   2.482  19.502  0.00  0.00    +0.000 OA
ATOM     27  H   UNL     1       6.153   2.633  19.077  0.00  0.00    +0.000 HD
ENDBRANCH  25  26
ENDBRANCH   1  25
TORSDOF 7
ENDMDL
MODEL 8
REMARK VINA RESULT:      -7.5      1.290      1.838
REMARK  Name = 
REMARK  8 active torsions:
REMARK  status: ('A' for Active; 'I' for Inactive)
REMARK    1  A    between atoms: C_1  and  C_2
REMARK    2  A    between atoms: C_5  and  C_6
REMARK    3  A    between atoms: C_6  and  O_8
REMARK    4  A    between atoms: O_8  and  C_9
REMARK    5  A    between atoms: C_9  and  C_10
REMARK    6  A    between atoms: C_10  and  C_11
REMARK    7  A    between atoms: C_11  and  O_12
REMARK    8  A    between atoms: C_15  and  C_16
REMARK                            x       y       z     vdW  Elec       q    Type
REMARK                         _______ _______ _______ _____ _____    ______ ____
ROOT
ATOM      1  C   UNL     1       4.727   5.104  18.389  0.00  0.00    +0.000 C 
ATOM      2  C   UNL     1       3.865   4.481  17.294  0.00  0.00    +0.000 C 
ATOM      3  C   UNL     1       4.599   4.874  16.025  0.00  0.00    +0.000 C 
ATOM      4  C   UNL     1       5.765   4.314  15.623  0.00  0.00    +0.000 C 
ATOM      5  C   UNL     1       4.920   6.284  16.422  0.00  0.00    +0.000 C 
ATOM      6  O   UNL     1       4.840   7.264  15.707  0.00  0.00    +0.000 OA
ATOM      7  O   UNL     1       5.297   6.265  17.738  0.00  0.00    +0.000 OA
ENDROOT
BRANCH   4   8
ATOM      8  C   UNL     1       6.360   4.309  14.278  0.00  0.00    +0.000 A 
ATOM      9  C   UNL     1       7.379   5.176  13.893  0.00  0.00    +0.000 A 
ATOM     10  C   UNL     1       7.881   5.131  12.588  0.00  0.00    +0.000 A 
ATOM     11  C   UNL     1       7.364   4.225  11.663  0.00  0.00    +0.000 A 
ATOM     12  C   UNL     1       6.342   3.351  12.036  0.00  0.00    +0.000 A 
ATOM     13  C   UNL     1       5.842   3.404  13.334  0.00  0.00    +0.000 A 
ENDBRANCH   4   8
BRANCH   1  14
ATOM     14  C   UNL     1       3.981   5.633  19.627  0.00  0.00    +0.000 C 
BRANCH  14  15
ATOM     15  O   UNL     1       2.953   6.572  19.289  0.00  0.00    +0.000 OA
BRANCH  15  16
ATOM     16  C   UNL     1       1.968   6.689  20.216  0.00  0.00    +0.000 C 
ATOM     17  O   UNL     1       1.546   5.780  20.908  0.00  0.00    +0.000 OA
BRANCH  16  22
ATOM     18  C   UNL     1      -0.005  12.069  20.945  0.00  0.00    +0.000 C 
ATOM     19  C   UNL     1       0.536  10.687  20.732  0.00  0.00    +0.000 A 
ATOM     20  C   UNL     1       0.619   9.792  21.804  0.00  0.00    +0.000 A 
ATOM     21  C   UNL     1       1.096   8.500  21.604  0.00  0.00    +0.000 A 
ATOM     22  C   UNL     1       1.495   8.083  20.329  0.00  0.00    +0.000 A 
ATOM     23  C   UNL     1       1.433   8.975  19.256  0.00  0.00    +0.000 A 
ATOM     24  C   UNL     1       0.958  10.274  19.457  0.00  0.00    +0.000 A 
ENDBRANCH  16  22
ENDBRANCH  15  16
ENDBRANCH  14  15
ENDBRANCH   1  14
BRANCH   1  25
ATOM     25  C   UNL     1       5.788   4.076  18.868  0.00  0.00    +0.000 C 
BRANCH  25  26
ATOM     26  O   UNL     1       5.196   2.867  19.326  0.00  0.00    +0.000 OA
ATOM     27  H   UNL     1       4.255   3.054  19.494  0.00  0.00    +0.000 HD
ENDBRANCH  25  26
ENDBRANCH   1  25
TORSDOF 7
ENDMDL
MODEL 9
REMARK VINA RESULT:      -7.3      2.639      7.354
REMARK  Name = 
REMARK  8 active torsions:
REMARK  status: ('A' for Active; 'I' for Inactive)
REMARK    1  A    between atoms: C_1  and  C_2
REMARK    2  A    between atoms: C_5  and  C_6
REMARK    3  A    between atoms: C_6  and  O_8
REMARK    4  A    between atoms: O_8  and  C_9
REMARK    5  A    between atoms: C_9  and  C_10
REMARK    6  A    between atoms: C_10  and  C_11
REMARK    7  A    between atoms: C_11  and  O_12
REMARK    8  A    between atoms: C_15  and  C_16
REMARK                            x       y       z     vdW  Elec       q    Type
REMARK                         _______ _______ _______ _____ _____    ______ ____
ROOT
ATOM      1  C   UNL     1       2.264   4.417  19.231  0.00  0.00    +0.000 C 
ATOM      2  C   UNL     1       3.127   5.184  20.230  0.00  0.00    +0.000 C 
ATOM      3  C   UNL     1       2.598   6.602  20.112  0.00  0.00    +0.000 C 
ATOM      4  C   UNL     1       1.408   7.007  20.613  0.00  0.00    +0.000 C 
ATOM      5  C   UNL     1       2.462   6.628  18.619  0.00  0.00    +0.000 C 
ATOM      6  O   UNL     1       2.767   7.551  17.889  0.00  0.00    +0.000 OA
ATOM      7  O   UNL     1       1.952   5.418  18.231  0.00  0.00    +0.000 OA
ENDROOT
BRANCH   4   8
ATOM      8  C   UNL     1       0.961   8.376  20.913  0.00  0.00    +0.000 A 
ATOM      9  C   UNL     1       0.592   8.794  22.190  0.00  0.00    +0.000 A 
ATOM     10  C   UNL     1       0.152  10.106  22.397  0.00  0.00    +0.000 A 
ATOM     11  C   UNL     1       0.075  11.002  21.331  0.00  0.00    +0.000 A 
ATOM     12  C   UNL     1       0.441  10.596  20.047  0.00  0.00    +0.000 A 
ATOM     13  C   UNL     1       0.871   9.287  19.845  0.00  0.00    +0.000 A 
ENDBRANCH   4   8
BRANCH   1  14
ATOM     14  C   UNL     1       2.951   3.264  18.479  0.00  0.00    +0.000 C 
BRANCH  14  15
ATOM     15  O   UNL     1       4.375   3.412  18.427  0.00  0.00    +0.000 OA
BRANCH  15  16
ATOM     16  C   UNL     1       4.852   3.883  17.246  0.00  0.00    +0.000 C 
ATOM     17  O   UNL     1       4.558   3.445  16.148  0.00  0.00    +0.000 OA
BRANCH  16  22
ATOM     18  C   UNL     1       8.414   8.303  18.318  0.00  0.00    +0.000 C 
ATOM     19  C   UNL     1       7.495   7.160  18.000  0.00  0.00    +0.000 A 
ATOM     20  C   UNL     1       7.555   5.981  18.750  0.00  0.00    +0.000 A 
ATOM     21  C   UNL     1       6.685   4.931  18.474  0.00  0.00    +0.000 A 
ATOM     22  C   UNL     1       5.742   5.044  17.447  0.00  0.00    +0.000 A 
ATOM     23  C   UNL     1       5.686   6.211  16.681  0.00  0.00    +0.000 A 
ATOM     24  C   UNL     1       6.562   7.265  16.955  0.00  0.00    +0.000 A 
ENDBRANCH  16  22
ENDBRANCH  15  16
ENDBRANCH  14  15
ENDBRANCH   1  14
BRANCH   1  25
ATOM     25  C   UNL     1       1.011   3.847  19.950  0.00  0.00    +0.000 C 
BRANCH  25  26
ATOM     26  O   UNL     1       1.342   2.804  20.858  0.00  0.00    +0.000 OA
ATOM     27  H   UNL     1       2.138   2.363  20.510  0.00  0.00    +0.000 HD
ENDBRANCH  25  26
ENDBRANCH   1  25
TORSDOF 7
ENDMDL
