MODEL 1
REMARK VINA RESULT:      -5.4      0.000      0.000
REMARK  Name = 
REMARK  5 active torsions:
REMARK  status: ('A' for Active; 'I' for Inactive)
REMARK    1  A    between atoms: C_1  and  C_2
REMARK    2  A    between atoms: C_2  and  N_3
REMARK    3  A    between atoms: N_3  and  C_4
REMARK    4  A    between atoms: N_3  and  C_6
REMARK    5  A    between atoms: C_4  and  C_5
REMARK                            x       y       z     vdW  Elec       q    Type
REMARK                         _______ _______ _______ _____ _____    ______ ____
ROOT
ATOM      1  C   UNL     1       4.460   4.783  16.967  0.00  0.00    +0.000 C 
ATOM      2  C   UNL     1       5.143   4.565  15.595  0.00  0.00    +0.000 C 
ATOM      3  C   UNL     1       6.603   4.217  15.846  0.00  0.00    +0.000 C 
ATOM      4  S   UNL     1       7.089   5.297  17.168  0.00  0.00    +0.000 S 
ATOM      5  O   UNL     1       7.664   6.496  16.594  0.00  0.00    +0.000 OA
ATOM      6  O   UNL     1       7.782   4.527  18.182  0.00  0.00    +0.000 OA
ATOM      7  C   UNL     1       5.450   5.692  17.737  0.00  0.00    +0.000 C 
ENDROOT
BRANCH   1   8
ATOM      8  N   UNL     1       4.064   3.539  17.689  0.00  0.00    +0.000 NA
BRANCH   8  10
ATOM      9  C   UNL     1       4.345   2.323  19.917  0.00  0.00    +0.000 C 
ATOM     10  C   UNL     1       4.370   3.638  19.140  0.00  0.00    +0.000 C 
ENDBRANCH   8  10
BRANCH   8  11
ATOM     11  C   UNL     1       2.652   3.149  17.464  0.00  0.00    +0.000 C 
ATOM     12  C   UNL     1       1.596   4.212  17.759  0.00  0.00    +0.000 C 
ENDBRANCH   8  11
ENDBRANCH   1   8
TORSDOF 3
ENDMDL
MODEL 2
REMARK VINA RESULT:      -5.0      1.058      1.527
REMARK  Name = 
REMARK  5 active torsions:
REMARK  status: ('A' for Active; 'I' for Inactive)
REMARK    1  A    between atoms: C_1  and  C_2
REMARK    2  A    between atoms: C_2  and  N_3
REMARK    3  A    between atoms: N_3  and  C_4
REMARK    4  A    between atoms: N_3  and  C_6
REMARK    5  A    between atoms: C_4  and  C_5
REMARK                            x       y       z     vdW  Elec       q    Type
REMARK                         _______ _______ _______ _____ _____    ______ ____
ROOT
ATOM      1  C   UNL     1       4.386   5.067  17.515  0.00  0.00    +0.000 C 
ATOM      2  C   UNL     1       4.718   4.542  16.097  0.00  0.00    +0.000 C 
ATOM      3  C   UNL     1       6.145   4.013  16.114  0.00  0.00    +0.000 C 
ATOM      4  S   UNL     1       7.036   5.191  17.097  0.00  0.00    +0.000 S 
ATOM      5  O   UNL     1       7.610   6.187  16.215  0.00  0.00    +0.000 OA
ATOM      6  O   UNL     1       7.839   4.485  18.076  0.00  0.00    +0.000 OA
ATOM      7  C   UNL     1       5.623   5.917  17.898  0.00  0.00    +0.000 C 
ENDROOT
BRANCH   1   8
ATOM      8  N   UNL     1       4.013   4.023  18.512  0.00  0.00    +0.000 NA
BRANCH   8  10
ATOM      9  C   UNL     1       1.915   4.767  19.764  0.00  0.00    +0.000 C 
ATOM     10  C   UNL     1       3.437   4.630  19.739  0.00  0.00    +0.000 C 
ENDBRANCH   8  10
BRANCH   8  11
ATOM     11  C   UNL     1       3.122   2.973  17.964  0.00  0.00    +0.000 C 
ATOM     12  C   UNL     1       3.430   1.534  18.374  0.00  0.00    +0.000 C 
ENDBRANCH   8  11
ENDBRANCH   1   8
TORSDOF 3
ENDMDL
MODEL 3
REMARK VINA RESULT:      -5.0      1.152      1.285
REMARK  Name = 
REMARK  5 active torsions:
REMARK  status: ('A' for Active; 'I' for Inactive)
REMARK    1  A    between atoms: C_1  and  C_2
REMARK    2  A    between atoms: C_2  and  N_3
REMARK    3  A    between atoms: N_3  and  C_4
REMARK    4  A    between atoms: N_3  and  C_6
REMARK    5  A    between atoms: C_4  and  C_5
REMARK                            x       y       z     vdW  Elec       q    Type
REMARK                         _______ _______ _______ _____ _____    ______ ____
ROOT
ATOM      1  C   UNL     1       4.712   5.549  18.267  0.00  0.00    +0.000 C 
ATOM      2  C   UNL     1       4.445   6.408  17.006  0.00  0.00    +0.000 C 
ATOM      3  C   UNL     1       5.453   6.004  15.940  0.00  0.00    +0.000 C 
ATOM      4  S   UNL     1       6.971   5.787  16.834  0.00  0.00    +0.000 S 
ATOM      5  O   UNL     1       7.709   7.033  16.798  0.00  0.00    +0.000 OA
ATOM      6  O   UNL     1       7.579   4.529  16.444  0.00  0.00    +0.000 OA
ATOM      7  C   UNL     1       6.248   5.623  18.451  0.00  0.00    +0.000 C 
ENDROOT
BRANCH   1   8
ATOM      8  N   UNL     1       4.154   4.166  18.228  0.00  0.00    +0.000 NA
BRANCH   8  10
ATOM      9  C   UNL     1       4.371   2.293  19.949  0.00  0.00    +0.000 C 
ATOM     10  C   UNL     1       3.831   3.676  19.593  0.00  0.00    +0.000 C 
ENDBRANCH   8  10
BRANCH   8  11
ATOM     11  C   UNL     1       2.992   4.023  17.318  0.00  0.00    +0.000 C 
ATOM     12  C   UNL     1       1.610   4.030  17.969  0.00  0.00    +0.000 C 
ENDBRANCH   8  11
ENDBRANCH   1   8
TORSDOF 3
ENDMDL
MODEL 4
REMARK VINA RESULT:      -4.9      2.028      2.731
REMARK  Name = 
REMARK  5 active torsions:
REMARK  status: ('A' for Active; 'I' for Inactive)
REMARK    1  A    between atoms: C_1  and  C_2
REMARK    2  A    between atoms: C_2  and  N_3
REMARK    3  A    between atoms: N_3  and  C_4
REMARK    4  A    between atoms: N_3  and  C_6
REMARK    5  A    between atoms: C_4  and  C_5
REMARK                            x       y       z     vdW  Elec       q    Type
REMARK                         _______ _______ _______ _____ _____    ______ ____
ROOT
ATOM      1  C   UNL     1       4.987   5.778  18.221  0.00  0.00    +0.000 C 
ATOM      2  C   UNL     1       5.950   6.759  17.508  0.00  0.00    +0.000 C 
ATOM      3  C   UNL     1       6.406   6.110  16.210  0.00  0.00    +0.000 C 
ATOM      4  S   UNL     1       6.674   4.410  16.641  0.00  0.00    +0.000 S 
ATOM      5  O   UNL     1       8.067   4.241  17.001  0.00  0.00    +0.000 OA
ATOM      6  O   UNL     1       6.032   3.561  15.657  0.00  0.00    +0.000 OA
ATOM      7  C   UNL     1       5.716   4.414  18.141  0.00  0.00    +0.000 C 
ENDROOT
BRANCH   1   8
ATOM      8  N   UNL     1       3.587   5.768  17.706  0.00  0.00    +0.000 NA
BRANCH   8  10
ATOM      9  C   UNL     1       1.538   4.246  17.783  0.00  0.00    +0.000 C 
ATOM     10  C   UNL     1       3.052   4.385  17.627  0.00  0.00    +0.000 C 
ENDBRANCH   8  10
BRANCH   8  11
ATOM     11  C   UNL     1       2.672   6.655  18.463  0.00  0.00    +0.000 C 
ATOM     12  C   UNL     1       2.487   8.070  17.917  0.00  0.00    +0.000 C 
ENDBRANCH   8  11
ENDBRANCH   1   8
TORSDOF 3
ENDMDL
MODEL 5
REMARK VINA RESULT:      -4.9      3.151      4.690
REMARK  Name = 
REMARK  5 active torsions:
REMARK  status: ('A' for Active; 'I' for Inactive)
REMARK    1  A    between atoms: C_1  and  C_2
REMARK    2  A    between atoms: C_2  and  N_3
REMARK    3  A    between atoms: N_3  and  C_4
REMARK    4  A    between atoms: N_3  and  C_6
REMARK    5  A    between atoms: C_4  and  C_5
REMARK                            x       y       z     vdW  Elec       q    Type
REMARK                         _______ _______ _______ _____ _____    ______ ____
ROOT
ATOM      1  C   UNL     1       4.987   4.808  18.277  0.00  0.00    +0.000 C 
ATOM      2  C   UNL     1       4.757   3.753  19.387  0.00  0.00    +0.000 C 
ATOM      3  C   UNL     1       3.705   2.772  18.893  0.00  0.00    +0.000 C 
ATOM      4  S   UNL     1       2.510   3.790  18.066  0.00  0.00    +0.000 S 
ATOM      5  O   UNL     1       1.472   4.143  19.013  0.00  0.00    +0.000 OA
ATOM      6  O   UNL     1       2.199   3.210  16.775  0.00  0.00    +0.000 OA
ATOM      7  C   UNL     1       3.556   5.212  17.844  0.00  0.00    +0.000 C 
ENDROOT
BRANCH   1   8
ATOM      8  N   UNL     1       5.878   4.376  17.160  0.00  0.00    +0.000 NA
BRANCH   8  10
ATOM      9  C   UNL     1       5.914   4.133  14.618  0.00  0.00    +0.000 C 
ATOM     10  C   UNL     1       5.369   4.855  15.849  0.00  0.00    +0.000 C 
ENDBRANCH   8  10
BRANCH   8  11
ATOM     11  C   UNL     1       7.297   4.757  17.356  0.00  0.00    +0.000 C 
ATOM     12  C   UNL     1       7.558   6.022  18.172  0.00  0.00    +0.000 C 
ENDBRANCH   8  11
ENDBRANCH   1   8
TORSDOF 3
ENDMDL
MODEL 6
REMARK VINA RESULT:      -4.9      2.809      4.547
REMARK  Name = 
REMARK  5 active torsions:
REMARK  status: ('A' for Active; 'I' for Inactive)
REMARK    1  A    between atoms: C_1  and  C_2
REMARK    2  A    between atoms: C_2  and  N_3
REMARK    3  A    between atoms: N_3  and  C_4
REMARK    4  A    between atoms: N_3  and  C_6
REMARK    5  A    between atoms: C_4  and  C_5
REMARK                            x       y       z     vdW  Elec       q    Type
REMARK                         _______ _______ _______ _____ _____    ______ ____
ROOT
ATOM      1  C   UNL     1       4.345   4.648  17.141  0.00  0.00    +0.000 C 
ATOM      2  C   UNL     1       3.451   5.440  18.127  0.00  0.00    +0.000 C 
ATOM      3  C   UNL     1       3.664   4.866  19.519  0.00  0.00    +0.000 C 
ATOM      4  S   UNL     1       3.748   3.112  19.262  0.00  0.00    +0.000 S 
ATOM      5  O   UNL     1       2.421   2.557  19.436  0.00  0.00    +0.000 OA
ATOM      6  O   UNL     1       4.896   2.580  19.969  0.00  0.00    +0.000 OA
ATOM      7  C   UNL     1       4.096   3.167  17.518  0.00  0.00    +0.000 C 
ENDROOT
BRANCH   1   8
ATOM      8  N   UNL     1       5.781   5.052  17.114  0.00  0.00    +0.000 NA
BRANCH   8  10
ATOM      9  C   UNL     1       5.987   4.600  14.609  0.00  0.00    +0.000 C 
ATOM     10  C   UNL     1       6.515   4.361  16.023  0.00  0.00    +0.000 C 
ENDBRANCH   8  10
BRANCH   8  11
ATOM     11  C   UNL     1       5.981   6.519  17.050  0.00  0.00    +0.000 C 
ATOM     12  C   UNL     1       7.367   7.036  17.429  0.00  0.00    +0.000 C 
ENDBRANCH   8  11
ENDBRANCH   1   8
TORSDOF 3
ENDMDL
MODEL 7
REMARK VINA RESULT:      -4.9      1.441      2.770
REMARK  Name = 
REMARK  5 active torsions:
REMARK  status: ('A' for Active; 'I' for Inactive)
REMARK    1  A    between atoms: C_1  and  C_2
REMARK    2  A    between atoms: C_2  and  N_3
REMARK    3  A    between atoms: N_3  and  C_4
REMARK    4  A    between atoms: N_3  and  C_6
REMARK    5  A    between atoms: C_4  and  C_5
REMARK                            x       y       z     vdW  Elec       q    Type
REMARK                         _______ _______ _______ _____ _____    ______ ____
ROOT
ATOM      1  C   UNL     1       5.370   4.239  18.091  0.00  0.00    +0.000 C 
ATOM      2  C   UNL     1       6.557   5.106  18.578  0.00  0.00    +0.000 C 
ATOM      3  C   UNL     1       6.592   6.372  17.735  0.00  0.00    +0.000 C 
ATOM      4  S   UNL     1       6.228   5.813  16.091  0.00  0.00    +0.000 S 
ATOM      5  O   UNL     1       7.478   5.544  15.409  0.00  0.00    +0.000 OA
ATOM      6  O   UNL     1       5.211   6.667  15.510  0.00  0.00    +0.000 OA
ATOM      7  C   UNL     1       5.506   4.253  16.549  0.00  0.00    +0.000 C 
ENDROOT
BRANCH   1   8
ATOM      8  N   UNL     1       4.029   4.647  18.603  0.00  0.00    +0.000 NA
BRANCH   8  10
ATOM      9  C   UNL     1       1.628   4.187  17.865  0.00  0.00    +0.000 C 
ATOM     10  C   UNL     1       3.025   4.690  17.508  0.00  0.00    +0.000 C 
ENDBRANCH   8  10
BRANCH   8  11
ATOM     11  C   UNL     1       3.552   3.818  19.735  0.00  0.00    +0.000 C 
ATOM     12  C   UNL     1       4.255   2.478  19.944  0.00  0.00    +0.000 C 
ENDBRANCH   8  11
ENDBRANCH   1   8
TORSDOF 3
ENDMDL
MODEL 8
REMARK VINA RESULT:      -4.8      1.811      2.242
REMARK  Name = 
REMARK  5 active torsions:
REMARK  status: ('A' for Active; 'I' for Inactive)
REMARK    1  A    between atoms: C_1  and  C_2
REMARK    2  A    between atoms: C_2  and  N_3
REMARK    3  A    between atoms: N_3  and  C_4
REMARK    4  A    between atoms: N_3  and  C_6
REMARK    5  A    between atoms: C_4  and  C_5
REMARK                            x       y       z     vdW  Elec       q    Type
REMARK                         _______ _______ _______ _____ _____    ______ ____
ROOT
ATOM      1  C   UNL     1       5.495   5.620  18.127  0.00  0.00    +0.000 C 
ATOM      2  C   UNL     1       5.311   6.736  17.070  0.00  0.00    +0.000 C 
ATOM      3  C   UNL     1       5.242   6.079  15.700  0.00  0.00    +0.000 C 
ATOM      4  S   UNL     1       6.474   4.803  15.763  0.00  0.00    +0.000 S 
ATOM      5  O   UNL     1       7.716   5.336  15.241  0.00  0.00    +0.000 OA
ATOM      6  O   UNL     1       5.906   3.566  15.265  0.00  0.00    +0.000 OA
ATOM      7  C   UNL     1       6.611   4.724  17.535  0.00  0.00    +0.000 C 
ENDROOT
BRANCH   1   8
ATOM      8  N   UNL     1       4.251   4.892  18.512  0.00  0.00    +0.000 NA
BRANCH   8  10
ATOM      9  C   UNL     1       3.640   2.482  17.929  0.00  0.00    +0.000 C 
ATOM     10  C   UNL     1       4.516   3.446  18.727  0.00  0.00    +0.000 C 
ENDBRANCH   8  10
BRANCH   8  11
ATOM     11  C   UNL     1       3.554   5.489  19.676  0.00  0.00    +0.000 C 
ATOM     12  C   UNL     1       2.088   5.101  19.866  0.00  0.00    +0.000 C 
ENDBRANCH   8  11
ENDBRANCH   1   8
TORSDOF 3
ENDMDL
MODEL 9
REMARK VINA RESULT:      -4.8      1.555      2.523
REMARK  Name = 
REMARK  5 active torsions:
REMARK  status: ('A' for Active; 'I' for Inactive)
REMARK    1  A    between atoms: C_1  and  C_2
REMARK    2  A    between atoms: C_2  and  N_3
REMARK    3  A    between atoms: N_3  and  C_4
REMARK    4  A    between atoms: N_3  and  C_6
REMARK    5  A    between atoms: C_4  and  C_5
REMARK                            x       y       z     vdW  Elec       q    Type
REMARK                         _______ _______ _______ _____ _____    ______ ____
ROOT
ATOM      1  C   UNL     1       4.930   4.058  17.713  0.00  0.00    +0.000 C 
ATOM      2  C   UNL     1       6.032   4.858  18.450  0.00  0.00    +0.000 C 
ATOM      3  C   UNL     1       6.205   6.189  17.735  0.00  0.00    +0.000 C 
ATOM      4  S   UNL     1       6.098   5.778  16.012  0.00  0.00    +0.000 S 
ATOM      5  O   UNL     1       7.437   5.543  15.510  0.00  0.00    +0.000 OA
ATOM      6  O   UNL     1       5.188   6.697  15.357  0.00  0.00    +0.000 OA
ATOM      7  C   UNL     1       5.304   4.199  16.216  0.00  0.00    +0.000 C 
ENDROOT
BRANCH   1   8
ATOM      8  N   UNL     1       3.529   4.446  18.045  0.00  0.00    +0.000 NA
BRANCH   8  10
ATOM      9  C   UNL     1       2.133   2.308  18.100  0.00  0.00    +0.000 C 
ATOM     10  C   UNL     1       2.548   3.573  17.350  0.00  0.00    +0.000 C 
ENDBRANCH   8  10
BRANCH   8  11
ATOM     11  C   UNL     1       3.260   4.501  19.501  0.00  0.00    +0.000 C 
ATOM     12  C   UNL     1       2.339   5.620  19.983  0.00  0.00    +0.000 C 
ENDBRANCH   8  11
ENDBRANCH   1   8
TORSDOF 3
ENDMDL
