MODEL 1
REMARK VINA RESULT:      -8.1      0.000      0.000
REMARK  Name = 
REMARK  7 active torsions:
REMARK  status: ('A' for Active; 'I' for Inactive)
REMARK    1  A    between atoms: N_1  and  S_2
REMARK    2  A    between atoms: S_2  and  O_5
REMARK    3  A    between atoms: O_5  and  C_6
REMARK    4  A    between atoms: C_6  and  C_7
REMARK    5  A    between atoms: C_9  and  N_10
REMARK    6  A    between atoms: N_15  and  C_16
REMARK    7  A    between atoms: C_30  and  O_31
REMARK                            x       y       z     vdW  Elec       q    Type
REMARK                         _______ _______ _______ _____ _____    ______ ____
ROOT
ATOM      1  N   UNL     1       2.909   6.663  18.812  0.00  0.00    +0.000 N 
ATOM      2  C   UNL     1       3.156   7.319  17.621  0.00  0.00    +0.000 A 
ATOM      3  C   UNL     1       2.537   8.548  17.661  0.00  0.00    +0.000 A 
ATOM      4  C   UNL     1       1.878   8.660  18.915  0.00  0.00    +0.000 A 
ATOM      5  C   UNL     1       1.078   9.628  19.564  0.00  0.00    +0.000 A 
ATOM      6  N   UNL     1       0.727  10.872  18.996  0.00  0.00    +0.000 N 
ATOM      7  N   UNL     1       0.662   9.338  20.823  0.00  0.00    +0.000 NA
ATOM      8  C   UNL     1       1.019   8.175  21.390  0.00  0.00    +0.000 A 
ATOM      9  N   UNL     1       1.770   7.198  20.869  0.00  0.00    +0.000 NA
ATOM     10  C   UNL     1       2.159   7.486  19.616  0.00  0.00    +0.000 A 
ATOM     11  H   UNL     1       1.350  11.148  18.243  0.00  0.00    +0.000 HD
ENDROOT
BRANCH   6  12
ATOM     12  C   UNL     1       0.466  11.893  19.998  0.00  0.00    +0.000 C 
ATOM     13  C   UNL     1       1.360  13.132  19.797  0.00  0.00    +0.000 C 
ATOM     14  C   UNL     1       0.622  14.310  20.437  0.00  0.00    +0.000 C 
ATOM     15  C   UNL     1      -0.806  13.876  20.334  0.00  0.00    +0.000 A 
ATOM     16  C   UNL     1      -1.920  14.621  20.686  0.00  0.00    +0.000 A 
ATOM     17  C   UNL     1      -3.167  13.998  20.660  0.00  0.00    +0.000 A 
ATOM     18  C   UNL     1      -3.283  12.658  20.255  0.00  0.00    +0.000 A 
ATOM     19  C   UNL     1      -2.150  11.911  19.908  0.00  0.00    +0.000 A 
ATOM     20  C   UNL     1      -0.907  12.522  19.972  0.00  0.00    +0.000 A 
ENDBRANCH   6  12
BRANCH   1  23
ATOM     21  C   UNL     1       5.785   4.885  18.944  0.00  0.00    +0.000 C 
ATOM     22  O   UNL     1       4.800   5.594  19.723  0.00  0.00    +0.000 OA
ATOM     23  C   UNL     1       3.481   5.366  19.149  0.00  0.00    +0.000 C 
ATOM     24  C   UNL     1       3.670   4.308  18.053  0.00  0.00    +0.000 C 
ATOM     25  C   UNL     1       5.008   3.690  18.405  0.00  0.00    +0.000 C 
BRANCH  25  26
ATOM     26  O   UNL     1       4.824   2.698  19.418  0.00  0.00    +0.000 OA
ATOM     27  H   UNL     1       5.690   2.297  19.619  0.00  0.00    +0.000 HD
ENDBRANCH  25  26
BRANCH  21  28
ATOM     28  C   UNL     1       6.327   5.756  17.802  0.00  0.00    +0.000 C 
BRANCH  28  29
ATOM     29  O   UNL     1       7.127   5.007  16.895  0.00  0.00    +0.000 OA
BRANCH  29  30
ATOM     30  S   UNL     1       6.706   5.139  15.332  0.00  0.00    +0.000 S 
ATOM     31  O   UNL     1       7.875   5.427  14.541  0.00  0.00    +0.000 OA
ATOM     32  O   UNL     1       5.516   5.955  15.261  0.00  0.00    +0.000 OA
BRANCH  30  33
ATOM     33  N   UNL     1       6.207   3.600  14.910  0.00  0.00    +0.000 NA
ATOM     34  H   UNL     1       7.004   2.970  14.994  0.00  0.00    +0.000 HD
ATOM     35  H   UNL     1       5.833   3.615  13.962  0.00  0.00    +0.000 HD
ENDBRANCH  30  33
ENDBRANCH  29  30
ENDBRANCH  28  29
ENDBRANCH  21  28
ENDBRANCH   1  23
TORSDOF 7
ENDMDL
MODEL 2
REMARK VINA RESULT:      -8.1      1.080      1.181
REMARK  Name = 
REMARK  7 active torsions:
REMARK  status: ('A' for Active; 'I' for Inactive)
REMARK    1  A    between atoms: N_1  and  S_2
REMARK    2  A    between atoms: S_2  and  O_5
REMARK    3  A    between atoms: O_5  and  C_6
REMARK    4  A    between atoms: C_6  and  C_7
REMARK    5  A    between atoms: C_9  and  N_10
REMARK    6  A    between atoms: N_15  and  C_16
REMARK    7  A    between atoms: C_30  and  O_31
REMARK                            x       y       z     vdW  Elec       q    Type
REMARK                         _______ _______ _______ _____ _____    ______ ____
ROOT
ATOM      1  N   UNL     1       2.434   6.786  19.280  0.00  0.00    +0.000 N 
ATOM      2  C   UNL     1       2.667   7.213  17.986  0.00  0.00    +0.000 A 
ATOM      3  C   UNL     1       2.197   8.502  17.859  0.00  0.00    +0.000 A 
ATOM      4  C   UNL     1       1.648   8.888  19.111  0.00  0.00    +0.000 A 
ATOM      5  C   UNL     1       1.012  10.037  19.636  0.00  0.00    +0.000 A 
ATOM      6  N   UNL     1       0.766  11.211  18.893  0.00  0.00    +0.000 N 
ATOM      7  N   UNL     1       0.659  10.000  20.946  0.00  0.00    +0.000 NA
ATOM      8  C   UNL     1       0.921   8.903  21.675  0.00  0.00    +0.000 A 
ATOM      9  N   UNL     1       1.516   7.771  21.280  0.00  0.00    +0.000 NA
ATOM     10  C   UNL     1       1.843   7.811  19.978  0.00  0.00    +0.000 A 
ATOM     11  H   UNL     1       1.360  11.287  18.073  0.00  0.00    +0.000 HD
ENDROOT
BRANCH   6  12
ATOM     12  C   UNL     1       0.696  12.400  19.727  0.00  0.00    +0.000 C 
ATOM     13  C   UNL     1       1.483  13.575  19.115  0.00  0.00    +0.000 C 
ATOM     14  C   UNL     1       0.864  14.856  19.679  0.00  0.00    +0.000 C 
ATOM     15  C   UNL     1      -0.537  14.421  19.975  0.00  0.00    +0.000 A 
ATOM     16  C   UNL     1      -1.571  15.225  20.425  0.00  0.00    +0.000 A 
ATOM     17  C   UNL     1      -2.772  14.617  20.787  0.00  0.00    +0.000 A 
ATOM     18  C   UNL     1      -2.929  13.226  20.666  0.00  0.00    +0.000 A 
ATOM     19  C   UNL     1      -1.875  12.420  20.217  0.00  0.00    +0.000 A 
ATOM     20  C   UNL     1      -0.669  13.023  19.893  0.00  0.00    +0.000 A 
ENDBRANCH   6  12
BRANCH   1  23
ATOM     21  C   UNL     1       4.601   4.236  18.783  0.00  0.00    +0.000 C 
ATOM     22  O   UNL     1       4.315   5.402  19.582  0.00  0.00    +0.000 OA
ATOM     23  C   UNL     1       2.877   5.497  19.792  0.00  0.00    +0.000 C 
ATOM     24  C   UNL     1       2.277   4.204  19.225  0.00  0.00    +0.000 C 
ATOM     25  C   UNL     1       3.474   3.278  19.149  0.00  0.00    +0.000 C 
BRANCH  25  26
ATOM     26  O   UNL     1       3.701   2.684  20.430  0.00  0.00    +0.000 OA
ATOM     27  H   UNL     1       4.343   1.957  20.325  0.00  0.00    +0.000 HD
ENDBRANCH  25  26
BRANCH  21  28
ATOM     28  C   UNL     1       4.583   4.568  17.284  0.00  0.00    +0.000 C 
BRANCH  28  29
ATOM     29  O   UNL     1       5.646   5.441  16.920  0.00  0.00    +0.000 OA
BRANCH  29  30
ATOM     30  S   UNL     1       6.829   4.758  16.042  0.00  0.00    +0.000 S 
ATOM     31  O   UNL     1       7.525   5.776  15.297  0.00  0.00    +0.000 OA
ATOM     32  O   UNL     1       6.285   3.581  15.404  0.00  0.00    +0.000 OA
BRANCH  30  33
ATOM     33  N   UNL     1       7.905   4.179  17.183  0.00  0.00    +0.000 NA
ATOM     34  H   UNL     1       7.397   3.569  17.823  0.00  0.00    +0.000 HD
ATOM     35  H   UNL     1       8.337   4.964  17.668  0.00  0.00    +0.000 HD
ENDBRANCH  30  33
ENDBRANCH  29  30
ENDBRANCH  28  29
ENDBRANCH  21  28
ENDBRANCH   1  23
TORSDOF 7
ENDMDL
MODEL 3
REMARK VINA RESULT:      -8.0      2.158      3.170
REMARK  Name = 
REMARK  7 active torsions:
REMARK  status: ('A' for Active; 'I' for Inactive)
REMARK    1  A    between atoms: N_1  and  S_2
REMARK    2  A    between atoms: S_2  and  O_5
REMARK    3  A    between atoms: O_5  and  C_6
REMARK    4  A    between atoms: C_6  and  C_7
REMARK    5  A    between atoms: C_9  and  N_10
REMARK    6  A    between atoms: N_15  and  C_16
REMARK    7  A    between atoms: C_30  and  O_31
REMARK                            x       y       z     vdW  Elec       q    Type
REMARK                         _______ _______ _______ _____ _____    ______ ____
ROOT
ATOM      1  N   UNL     1       2.175   5.321  19.787  0.00  0.00    +0.000 N 
ATOM      2  C   UNL     1       1.547   5.607  20.984  0.00  0.00    +0.000 A 
ATOM      3  C   UNL     1       1.257   6.953  21.016  0.00  0.00    +0.000 A 
ATOM      4  C   UNL     1       1.723   7.525  19.801  0.00  0.00    +0.000 A 
ATOM      5  C   UNL     1       1.749   8.816  19.226  0.00  0.00    +0.000 A 
ATOM      6  N   UNL     1       1.229   9.970  19.851  0.00  0.00    +0.000 N 
ATOM      7  N   UNL     1       2.279   8.924  17.981  0.00  0.00    +0.000 NA
ATOM      8  C   UNL     1       2.744   7.829  17.359  0.00  0.00    +0.000 A 
ATOM      9  N   UNL     1       2.764   6.569  17.809  0.00  0.00    +0.000 NA
ATOM     10  C   UNL     1       2.256   6.477  19.049  0.00  0.00    +0.000 A 
ATOM     11  H   UNL     1       0.557   9.751  20.580  0.00  0.00    +0.000 HD
ENDROOT
BRANCH   6  12
ATOM     12  C   UNL     1       0.810  10.985  18.898  0.00  0.00    +0.000 C 
ATOM     13  C   UNL     1      -0.706  10.922  18.627  0.00  0.00    +0.000 C 
ATOM     14  C   UNL     1      -1.124  12.319  18.160  0.00  0.00    +0.000 C 
ATOM     15  C   UNL     1      -0.092  13.185  18.811  0.00  0.00    +0.000 A 
ATOM     16  C   UNL     1      -0.051  14.570  18.794  0.00  0.00    +0.000 A 
ATOM     17  C   UNL     1       1.067  15.205  19.331  0.00  0.00    +0.000 A 
ATOM     18  C   UNL     1       2.107  14.451  19.900  0.00  0.00    +0.000 A 
ATOM     19  C   UNL     1       2.061  13.051  19.906  0.00  0.00    +0.000 A 
ATOM     20  C   UNL     1       0.964  12.421  19.337  0.00  0.00    +0.000 A 
ENDBRANCH   6  12
BRANCH   1  23
ATOM     21  C   UNL     1       4.742   3.402  18.701  0.00  0.00    +0.000 C 
ATOM     22  O   UNL     1       3.914   3.734  19.835  0.00  0.00    +0.000 OA
ATOM     23  C   UNL     1       2.552   3.974  19.379  0.00  0.00    +0.000 C 
ATOM     24  C   UNL     1       2.525   3.592  17.893  0.00  0.00    +0.000 C 
ATOM     25  C   UNL     1       3.765   2.733  17.741  0.00  0.00    +0.000 C 
BRANCH  25  26
ATOM     26  O   UNL     1       3.473   1.396  18.154  0.00  0.00    +0.000 OA
ATOM     27  H   UNL     1       3.020   0.938  17.421  0.00  0.00    +0.000 HD
ENDBRANCH  25  26
BRANCH  21  28
ATOM     28  C   UNL     1       5.362   4.659  18.076  0.00  0.00    +0.000 C 
BRANCH  28  29
ATOM     29  O   UNL     1       5.983   5.488  19.052  0.00  0.00    +0.000 OA
BRANCH  29  30
ATOM     30  S   UNL     1       7.599   5.597  18.936  0.00  0.00    +0.000 S 
ATOM     31  O   UNL     1       7.964   6.934  18.543  0.00  0.00    +0.000 OA
ATOM     32  O   UNL     1       8.072   4.435  18.220  0.00  0.00    +0.000 OA
BRANCH  30  33
ATOM     33  N   UNL     1       8.138   5.394  20.505  0.00  0.00    +0.000 NA
ATOM     34  H   UNL     1       7.551   4.694  20.958  0.00  0.00    +0.000 HD
ATOM     35  H   UNL     1       8.106   6.289  20.991  0.00  0.00    +0.000 HD
ENDBRANCH  30  33
ENDBRANCH  29  30
ENDBRANCH  28  29
ENDBRANCH  21  28
ENDBRANCH   1  23
TORSDOF 7
ENDMDL
MODEL 4
REMARK VINA RESULT:      -7.9      1.015      1.185
REMARK  Name = 
REMARK  7 active torsions:
REMARK  status: ('A' for Active; 'I' for Inactive)
REMARK    1  A    between atoms: N_1  and  S_2
REMARK    2  A    between atoms: S_2  and  O_5
REMARK    3  A    between atoms: O_5  and  C_6
REMARK    4  A    between atoms: C_6  and  C_7
REMARK    5  A    between atoms: C_9  and  N_10
REMARK    6  A    between atoms: N_15  and  C_16
REMARK    7  A    between atoms: C_30  and  O_31
REMARK                            x       y       z     vdW  Elec       q    Type
REMARK                         _______ _______ _______ _____ _____    ______ ____
ROOT
ATOM      1  N   UNL     1       2.585   7.174  18.915  0.00  0.00    +0.000 N 
ATOM      2  C   UNL     1       2.783   7.864  17.734  0.00  0.00    +0.000 A 
ATOM      3  C   UNL     1       2.114   9.065  17.810  0.00  0.00    +0.000 A 
ATOM      4  C   UNL     1       1.474   9.125  19.077  0.00  0.00    +0.000 A 
ATOM      5  C   UNL     1       0.646  10.045  19.760  0.00  0.00    +0.000 A 
ATOM      6  N   UNL     1       0.234  11.284  19.224  0.00  0.00    +0.000 N 
ATOM      7  N   UNL     1       0.265   9.713  21.020  0.00  0.00    +0.000 NA
ATOM      8  C   UNL     1       0.680   8.554  21.556  0.00  0.00    +0.000 A 
ATOM      9  N   UNL     1       1.461   7.620  21.002  0.00  0.00    +0.000 NA
ATOM     10  C   UNL     1       1.816   7.949  19.749  0.00  0.00    +0.000 A 
ATOM     11  H   UNL     1       0.831  11.601  18.466  0.00  0.00    +0.000 HD
ENDROOT
BRANCH   6  12
ATOM     12  C   UNL     1      -0.052  12.273  20.251  0.00  0.00    +0.000 C 
ATOM     13  C   UNL     1       0.857  13.511  20.120  0.00  0.00    +0.000 C 
ATOM     14  C   UNL     1       0.108  14.673  20.776  0.00  0.00    +0.000 C 
ATOM     15  C   UNL     1      -1.319  14.255  20.614  0.00  0.00    +0.000 A 
ATOM     16  C   UNL     1      -2.439  14.996  20.956  0.00  0.00    +0.000 A 
ATOM     17  C   UNL     1      -3.688  14.385  20.870  0.00  0.00    +0.000 A 
ATOM     18  C   UNL     1      -3.801  13.060  20.417  0.00  0.00    +0.000 A 
ATOM     19  C   UNL     1      -2.663  12.315  20.080  0.00  0.00    +0.000 A 
ATOM     20  C   UNL     1      -1.418  12.914  20.203  0.00  0.00    +0.000 A 
ENDBRANCH   6  12
BRANCH   1  23
ATOM     21  C   UNL     1       4.961   4.986  17.909  0.00  0.00    +0.000 C 
ATOM     22  O   UNL     1       4.628   6.004  18.875  0.00  0.00    +0.000 OA
ATOM     23  C   UNL     1       3.216   5.896  19.215  0.00  0.00    +0.000 C 
ATOM     24  C   UNL     1       2.709   4.617  18.535  0.00  0.00    +0.000 C 
ATOM     25  C   UNL     1       3.988   3.860  18.239  0.00  0.00    +0.000 C 
BRANCH  25  26
ATOM     26  O   UNL     1       4.403   3.149  19.408  0.00  0.00    +0.000 OA
ATOM     27  H   UNL     1       3.977   3.555  20.185  0.00  0.00    +0.000 HD
ENDBRANCH  25  26
BRANCH  21  28
ATOM     28  C   UNL     1       4.760   5.492  16.474  0.00  0.00    +0.000 C 
BRANCH  28  29
ATOM     29  O   UNL     1       5.979   5.938  15.890  0.00  0.00    +0.000 OA
BRANCH  29  30
ATOM     30  S   UNL     1       6.954   4.759  15.346  0.00  0.00    +0.000 S 
ATOM     31  O   UNL     1       6.166   3.750  14.685  0.00  0.00    +0.000 OA
ATOM     32  O   UNL     1       7.886   4.433  16.400  0.00  0.00    +0.000 OA
BRANCH  30  33
ATOM     33  N   UNL     1       7.873   5.501  14.163  0.00  0.00    +0.000 NA
ATOM     34  H   UNL     1       7.253   5.786  13.405  0.00  0.00    +0.000 HD
ATOM     35  H   UNL     1       8.593   4.855  13.841  0.00  0.00    +0.000 HD
ENDBRANCH  30  33
ENDBRANCH  29  30
ENDBRANCH  28  29
ENDBRANCH  21  28
ENDBRANCH   1  23
TORSDOF 7
ENDMDL
MODEL 5
REMARK VINA RESULT:      -7.9      1.286      1.503
REMARK  Name = 
REMARK  7 active torsions:
REMARK  status: ('A' for Active; 'I' for Inactive)
REMARK    1  A    between atoms: N_1  and  S_2
REMARK    2  A    between atoms: S_2  and  O_5
REMARK    3  A    between atoms: O_5  and  C_6
REMARK    4  A    between atoms: C_6  and  C_7
REMARK    5  A    between atoms: C_9  and  N_10
REMARK    6  A    between atoms: N_15  and  C_16
REMARK    7  A    between atoms: C_30  and  O_31
REMARK                            x       y       z     vdW  Elec       q    Type
REMARK                         _______ _______ _______ _____ _____    ______ ____
ROOT
ATOM      1  N   UNL     1       2.324   6.804  19.210  0.00  0.00    +0.000 N 
ATOM      2  C   UNL     1       2.523   7.210  17.904  0.00  0.00    +0.000 A 
ATOM      3  C   UNL     1       2.093   8.513  17.779  0.00  0.00    +0.000 A 
ATOM      4  C   UNL     1       1.606   8.931  19.047  0.00  0.00    +0.000 A 
ATOM      5  C   UNL     1       1.032  10.107  19.582  0.00  0.00    +0.000 A 
ATOM      6  N   UNL     1       0.799  11.282  18.835  0.00  0.00    +0.000 N 
ATOM      7  N   UNL     1       0.727  10.096  20.904  0.00  0.00    +0.000 NA
ATOM      8  C   UNL     1       0.978   8.998  21.635  0.00  0.00    +0.000 A 
ATOM      9  N   UNL     1       1.517   7.842  21.231  0.00  0.00    +0.000 NA
ATOM     10  C   UNL     1       1.796   7.857  19.918  0.00  0.00    +0.000 A 
ATOM     11  H   UNL     1       1.364  11.329  17.992  0.00  0.00    +0.000 HD
ENDROOT
BRANCH   6  12
ATOM     12  C   UNL     1       0.802  12.480  19.658  0.00  0.00    +0.000 C 
ATOM     13  C   UNL     1       1.618  13.616  19.009  0.00  0.00    +0.000 C 
ATOM     14  C   UNL     1       1.069  14.927  19.578  0.00  0.00    +0.000 C 
ATOM     15  C   UNL     1      -0.339  14.553  19.919  0.00  0.00    +0.000 A 
ATOM     16  C   UNL     1      -1.326  15.403  20.391  0.00  0.00    +0.000 A 
ATOM     17  C   UNL     1      -2.539  14.848  20.795  0.00  0.00    +0.000 A 
ATOM     18  C   UNL     1      -2.756  13.464  20.694  0.00  0.00    +0.000 A 
ATOM     19  C   UNL     1      -1.750  12.611  20.222  0.00  0.00    +0.000 A 
ATOM     20  C   UNL     1      -0.531  13.161  19.857  0.00  0.00    +0.000 A 
ENDBRANCH   6  12
BRANCH   1  23
ATOM     21  C   UNL     1       4.751   4.451  19.066  0.00  0.00    +0.000 C 
ATOM     22  O   UNL     1       4.190   5.521  19.854  0.00  0.00    +0.000 OA
ATOM     23  C   UNL     1       2.740   5.505  19.720  0.00  0.00    +0.000 C 
ATOM     24  C   UNL     1       2.398   4.232  18.935  0.00  0.00    +0.000 C 
ATOM     25  C   UNL     1       3.653   3.395  19.082  0.00  0.00    +0.000 C 
BRANCH  25  26
ATOM     26  O   UNL     1       3.622   2.705  20.334  0.00  0.00    +0.000 OA
ATOM     27  H   UNL     1       3.119   3.245  20.972  0.00  0.00    +0.000 HD
ENDBRANCH  25  26
BRANCH  21  28
ATOM     28  C   UNL     1       5.055   4.914  17.634  0.00  0.00    +0.000 C 
BRANCH  28  29
ATOM     29  O   UNL     1       5.687   6.189  17.609  0.00  0.00    +0.000 OA
BRANCH  29  30
ATOM     30  S   UNL     1       7.310   6.155  17.573  0.00  0.00    +0.000 S 
ATOM     31  O   UNL     1       7.822   6.226  18.918  0.00  0.00    +0.000 OA
ATOM     32  O   UNL     1       7.749   7.063  16.539  0.00  0.00    +0.000 OA
BRANCH  30  33
ATOM     33  N   UNL     1       7.676   4.628  17.000  0.00  0.00    +0.000 NA
ATOM     34  H   UNL     1       8.344   4.197  17.639  0.00  0.00    +0.000 HD
ATOM     35  H   UNL     1       8.049   4.704  16.055  0.00  0.00    +0.000 HD
ENDBRANCH  30  33
ENDBRANCH  29  30
ENDBRANCH  28  29
ENDBRANCH  21  28
ENDBRANCH   1  23
TORSDOF 7
ENDMDL
MODEL 6
REMARK VINA RESULT:      -7.8      1.527      1.700
REMARK  Name = 
REMARK  7 active torsions:
REMARK  status: ('A' for Active; 'I' for Inactive)
REMARK    1  A    between atoms: N_1  and  S_2
REMARK    2  A    between atoms: S_2  and  O_5
REMARK    3  A    between atoms: O_5  and  C_6
REMARK    4  A    between atoms: C_6  and  C_7
REMARK    5  A    between atoms: C_9  and  N_10
REMARK    6  A    between atoms: N_15  and  C_16
REMARK    7  A    between atoms: C_30  and  O_31
REMARK                            x       y       z     vdW  Elec       q    Type
REMARK                         _______ _______ _______ _____ _____    ______ ____
ROOT
ATOM      1  N   UNL     1       2.246   7.225  18.877  0.00  0.00    +0.000 N 
ATOM      2  C   UNL     1       2.295   8.018  17.746  0.00  0.00    +0.000 A 
ATOM      3  C   UNL     1       1.810   9.267  18.066  0.00  0.00    +0.000 A 
ATOM      4  C   UNL     1       1.442   9.251  19.439  0.00  0.00    +0.000 A 
ATOM      5  C   UNL     1       0.886  10.170  20.357  0.00  0.00    +0.000 A 
ATOM      6  N   UNL     1       0.537  11.499  20.030  0.00  0.00    +0.000 N 
ATOM      7  N   UNL     1       0.721   9.741  21.634  0.00  0.00    +0.000 NA
ATOM      8  C   UNL     1       1.083   8.492  21.967  0.00  0.00    +0.000 A 
ATOM      9  N   UNL     1       1.617   7.549  21.182  0.00  0.00    +0.000 NA
ATOM     10  C   UNL     1       1.758   7.978  19.918  0.00  0.00    +0.000 A 
ATOM     11  H   UNL     1       1.010  11.834  19.196  0.00  0.00    +0.000 HD
ENDROOT
BRANCH   6  12
ATOM     12  C   UNL     1       0.585  12.390  21.178  0.00  0.00    +0.000 C 
ATOM     13  C   UNL     1       1.102  13.790  20.792  0.00  0.00    +0.000 C 
ATOM     14  C   UNL     1       0.545  14.763  21.835  0.00  0.00    +0.000 C 
ATOM     15  C   UNL     1      -0.701  14.064  22.279  0.00  0.00    +0.000 A 
ATOM     16  C   UNL     1      -1.651  14.554  23.160  0.00  0.00    +0.000 A 
ATOM     17  C   UNL     1      -2.673  13.702  23.572  0.00  0.00    +0.000 A 
ATOM     18  C   UNL     1      -2.748  12.390  23.075  0.00  0.00    +0.000 A 
ATOM     19  C   UNL     1      -1.779  11.900  22.190  0.00  0.00    +0.000 A 
ATOM     20  C   UNL     1      -0.741  12.739  21.812  0.00  0.00    +0.000 A 
ENDBRANCH   6  12
BRANCH   1  23
ATOM     21  C   UNL     1       4.718   5.184  17.795  0.00  0.00    +0.000 C 
ATOM     22  O   UNL     1       4.212   5.930  18.921  0.00  0.00    +0.000 OA
ATOM     23  C   UNL     1       2.757   5.862  18.925  0.00  0.00    +0.000 C 
ATOM     24  C   UNL     1       2.373   4.864  17.825  0.00  0.00    +0.000 C 
ATOM     25  C   UNL     1       3.663   4.103  17.591  0.00  0.00    +0.000 C 
BRANCH  25  26
ATOM     26  O   UNL     1       3.791   3.069  18.570  0.00  0.00    +0.000 OA
ATOM     27  H   UNL     1       4.339   3.405  19.305  0.00  0.00    +0.000 HD
ENDBRANCH  25  26
BRANCH  21  28
ATOM     28  C   UNL     1       4.850   6.073  16.551  0.00  0.00    +0.000 C 
BRANCH  28  29
ATOM     29  O   UNL     1       6.206   6.231  16.151  0.00  0.00    +0.000 OA
BRANCH  29  30
ATOM     30  S   UNL     1       6.893   4.910  15.502  0.00  0.00    +0.000 S 
ATOM     31  O   UNL     1       5.876   4.088  14.897  0.00  0.00    +0.000 OA
ATOM     32  O   UNL     1       7.831   4.381  16.465  0.00  0.00    +0.000 OA
BRANCH  30  33
ATOM     33  N   UNL     1       7.833   5.506  14.256  0.00  0.00    +0.000 NA
ATOM     34  H   UNL     1       8.810   5.472  14.546  0.00  0.00    +0.000 HD
ATOM     35  H   UNL     1       7.536   6.454  14.033  0.00  0.00    +0.000 HD
ENDBRANCH  30  33
ENDBRANCH  29  30
ENDBRANCH  28  29
ENDBRANCH  21  28
ENDBRANCH   1  23
TORSDOF 7
ENDMDL
MODEL 7
REMARK VINA RESULT:      -7.7      1.679      2.132
REMARK  Name = 
REMARK  7 active torsions:
REMARK  status: ('A' for Active; 'I' for Inactive)
REMARK    1  A    between atoms: N_1  and  S_2
REMARK    2  A    between atoms: S_2  and  O_5
REMARK    3  A    between atoms: O_5  and  C_6
REMARK    4  A    between atoms: C_6  and  C_7
REMARK    5  A    between atoms: C_9  and  N_10
REMARK    6  A    between atoms: N_15  and  C_16
REMARK    7  A    between atoms: C_30  and  O_31
REMARK                            x       y       z     vdW  Elec       q    Type
REMARK                         _______ _______ _______ _____ _____    ______ ____
ROOT
ATOM      1  N   UNL     1       2.190   7.311  19.097  0.00  0.00    +0.000 N 
ATOM      2  C   UNL     1       2.453   7.836  17.846  0.00  0.00    +0.000 A 
ATOM      3  C   UNL     1       2.105   9.168  17.848  0.00  0.00    +0.000 A 
ATOM      4  C   UNL     1       1.603   9.483  19.140  0.00  0.00    +0.000 A 
ATOM      5  C   UNL     1       1.083  10.630  19.781  0.00  0.00    +0.000 A 
ATOM      6  N   UNL     1       0.942  11.888  19.156  0.00  0.00    +0.000 N 
ATOM      7  N   UNL     1       0.737  10.501  21.087  0.00  0.00    +0.000 NA
ATOM      8  C   UNL     1       0.900   9.321  21.705  0.00  0.00    +0.000 A 
ATOM      9  N   UNL     1       1.383   8.181  21.196  0.00  0.00    +0.000 NA
ATOM     10  C   UNL     1       1.704   8.314  19.899  0.00  0.00    +0.000 A 
ATOM     11  H   UNL     1       1.534  11.987  18.337  0.00  0.00    +0.000 HD
ENDROOT
BRANCH   6  12
ATOM     12  C   UNL     1       0.990  12.993  20.100  0.00  0.00    +0.000 C 
ATOM     13  C   UNL     1       2.395  13.161  20.711  0.00  0.00    +0.000 C 
ATOM     14  C   UNL     1       2.506  14.622  21.153  0.00  0.00    +0.000 C 
ATOM     15  C   UNL     1       1.552  15.302  20.222  0.00  0.00    +0.000 A 
ATOM     16  C   UNL     1       1.328  16.666  20.125  0.00  0.00    +0.000 A 
ATOM     17  C   UNL     1       0.294  17.109  19.302  0.00  0.00    +0.000 A 
ATOM     18  C   UNL     1      -0.476  16.189  18.572  0.00  0.00    +0.000 A 
ATOM     19  C   UNL     1      -0.248  14.811  18.682  0.00  0.00    +0.000 A 
ATOM     20  C   UNL     1       0.757  14.371  19.530  0.00  0.00    +0.000 A 
ENDBRANCH   6  12
BRANCH   1  23
ATOM     21  C   UNL     1       4.388   4.780  18.629  0.00  0.00    +0.000 C 
ATOM     22  O   UNL     1       3.965   5.824  19.530  0.00  0.00    +0.000 OA
ATOM     23  C   UNL     1       2.514   5.943  19.478  0.00  0.00    +0.000 C 
ATOM     24  C   UNL     1       2.021   4.773  18.616  0.00  0.00    +0.000 C 
ATOM     25  C   UNL     1       3.202   3.823  18.625  0.00  0.00    +0.000 C 
BRANCH  25  26
ATOM     26  O   UNL     1       3.173   3.036  19.818  0.00  0.00    +0.000 OA
ATOM     27  H   UNL     1       4.008   3.176  20.301  0.00  0.00    +0.000 HD
ENDBRANCH  25  26
BRANCH  21  28
ATOM     28  C   UNL     1       4.660   5.334  17.223  0.00  0.00    +0.000 C 
BRANCH  28  29
ATOM     29  O   UNL     1       5.992   5.817  17.090  0.00  0.00    +0.000 OA
BRANCH  29  30
ATOM     30  S   UNL     1       7.014   4.820  16.316  0.00  0.00    +0.000 S 
ATOM     31  O   UNL     1       7.988   4.310  17.248  0.00  0.00    +0.000 OA
ATOM     32  O   UNL     1       7.401   5.455  15.078  0.00  0.00    +0.000 OA
BRANCH  30  33
ATOM     33  N   UNL     1       6.060   3.524  15.863  0.00  0.00    +0.000 NA
ATOM     34  H   UNL     1       5.087   3.757  16.062  0.00  0.00    +0.000 HD
ATOM     35  H   UNL     1       6.361   2.691  16.367  0.00  0.00    +0.000 HD
ENDBRANCH  30  33
ENDBRANCH  29  30
ENDBRANCH  28  29
ENDBRANCH  21  28
ENDBRANCH   1  23
TORSDOF 7
ENDMDL
MODEL 8
REMARK VINA RESULT:      -7.7      1.587      2.675
REMARK  Name = 
REMARK  7 active torsions:
REMARK  status: ('A' for Active; 'I' for Inactive)
REMARK    1  A    between atoms: N_1  and  S_2
REMARK    2  A    between atoms: S_2  and  O_5
REMARK    3  A    between atoms: O_5  and  C_6
REMARK    4  A    between atoms: C_6  and  C_7
REMARK    5  A    between atoms: C_9  and  N_10
REMARK    6  A    between atoms: N_15  and  C_16
REMARK    7  A    between atoms: C_30  and  O_31
REMARK                            x       y       z     vdW  Elec       q    Type
REMARK                         _______ _______ _______ _____ _____    ______ ____
ROOT
ATOM      1  N   UNL     1       2.315   5.504  19.697  0.00  0.00    +0.000 N 
ATOM      2  C   UNL     1       1.619   5.712  20.873  0.00  0.00    +0.000 A 
ATOM      3  C   UNL     1       1.246   7.037  20.933  0.00  0.00    +0.000 A 
ATOM      4  C   UNL     1       1.729   7.676  19.759  0.00  0.00    +0.000 A 
ATOM      5  C   UNL     1       1.701   8.985  19.225  0.00  0.00    +0.000 A 
ATOM      6  N   UNL     1       1.084  10.084  19.862  0.00  0.00    +0.000 N 
ATOM      7  N   UNL     1       2.276   9.166  18.010  0.00  0.00    +0.000 NA
ATOM      8  C   UNL     1       2.834   8.122  17.376  0.00  0.00    +0.000 A 
ATOM      9  N   UNL     1       2.912   6.851  17.788  0.00  0.00    +0.000 NA
ATOM     10  C   UNL     1       2.357   6.687  18.999  0.00  0.00    +0.000 A 
ATOM     11  H   UNL     1       0.395   9.800  20.552  0.00  0.00    +0.000 HD
ENDROOT
BRANCH   6  12
ATOM     12  C   UNL     1       0.645  11.103  18.922  0.00  0.00    +0.000 C 
ATOM     13  C   UNL     1      -0.886  11.095  18.745  0.00  0.00    +0.000 C 
ATOM     14  C   UNL     1      -1.279  12.501  18.286  0.00  0.00    +0.000 C 
ATOM     15  C   UNL     1      -0.178  13.335  18.860  0.00  0.00    +0.000 A 
ATOM     16  C   UNL     1      -0.086  14.718  18.823  0.00  0.00    +0.000 A 
ATOM     17  C   UNL     1       1.086  15.315  19.282  0.00  0.00    +0.000 A 
ATOM     18  C   UNL     1       2.130  14.529  19.797  0.00  0.00    +0.000 A 
ATOM     19  C   UNL     1       2.032  13.131  19.824  0.00  0.00    +0.000 A 
ATOM     20  C   UNL     1       0.879  12.537  19.331  0.00  0.00    +0.000 A 
ENDBRANCH   6  12
BRANCH   1  23
ATOM     21  C   UNL     1       5.070   3.730  18.855  0.00  0.00    +0.000 C 
ATOM     22  O   UNL     1       4.089   3.967  19.885  0.00  0.00    +0.000 OA
ATOM     23  C   UNL     1       2.791   4.197  19.265  0.00  0.00    +0.000 C 
ATOM     24  C   UNL     1       2.975   3.909  17.770  0.00  0.00    +0.000 C 
ATOM     25  C   UNL     1       4.254   3.096  17.735  0.00  0.00    +0.000 C 
BRANCH  25  26
ATOM     26  O   UNL     1       3.959   1.728  18.026  0.00  0.00    +0.000 OA
ATOM     27  H   UNL     1       3.043   1.542  17.745  0.00  0.00    +0.000 HD
ENDBRANCH  25  26
BRANCH  21  28
ATOM     28  C   UNL     1       5.722   5.041  18.394  0.00  0.00    +0.000 C 
BRANCH  28  29
ATOM     29  O   UNL     1       6.908   4.811  17.642  0.00  0.00    +0.000 OA
BRANCH  29  30
ATOM     30  S   UNL     1       7.057   5.707  16.297  0.00  0.00    +0.000 S 
ATOM     31  O   UNL     1       7.530   4.879  15.217  0.00  0.00    +0.000 OA
ATOM     32  O   UNL     1       7.715   6.942  16.657  0.00  0.00    +0.000 OA
BRANCH  30  33
ATOM     33  N   UNL     1       5.488   6.142  15.917  0.00  0.00    +0.000 NA
ATOM     34  H   UNL     1       5.293   5.838  14.963  0.00  0.00    +0.000 HD
ATOM     35  H   UNL     1       5.383   7.149  16.023  0.00  0.00    +0.000 HD
ENDBRANCH  30  33
ENDBRANCH  29  30
ENDBRANCH  28  29
ENDBRANCH  21  28
ENDBRANCH   1  23
TORSDOF 7
ENDMDL
MODEL 9
REMARK VINA RESULT:      -7.6      1.315      1.512
REMARK  Name = 
REMARK  7 active torsions:
REMARK  status: ('A' for Active; 'I' for Inactive)
REMARK    1  A    between atoms: N_1  and  S_2
REMARK    2  A    between atoms: S_2  and  O_5
REMARK    3  A    between atoms: O_5  and  C_6
REMARK    4  A    between atoms: C_6  and  C_7
REMARK    5  A    between atoms: C_9  and  N_10
REMARK    6  A    between atoms: N_15  and  C_16
REMARK    7  A    between atoms: C_30  and  O_31
REMARK                            x       y       z     vdW  Elec       q    Type
REMARK                         _______ _______ _______ _____ _____    ______ ____
ROOT
ATOM      1  N   UNL     1       2.039   7.315  19.013  0.00  0.00    +0.000 N 
ATOM      2  C   UNL     1       2.234   8.023  17.841  0.00  0.00    +0.000 A 
ATOM      3  C   UNL     1       1.839   9.326  18.046  0.00  0.00    +0.000 A 
ATOM      4  C   UNL     1       1.378   9.434  19.386  0.00  0.00    +0.000 A 
ATOM      5  C   UNL     1       0.843  10.457  20.202  0.00  0.00    +0.000 A 
ATOM      6  N   UNL     1       0.634  11.784  19.768  0.00  0.00    +0.000 N 
ATOM      7  N   UNL     1       0.554  10.131  21.487  0.00  0.00    +0.000 NA
ATOM      8  C   UNL     1       0.783   8.882  21.924  0.00  0.00    +0.000 A 
ATOM      9  N   UNL     1       1.286   7.847  21.241  0.00  0.00    +0.000 NA
ATOM     10  C   UNL     1       1.549   8.175  19.966  0.00  0.00    +0.000 A 
ATOM     11  H   UNL     1       1.189  12.022  18.952  0.00  0.00    +0.000 HD
ENDROOT
BRANCH   6  12
ATOM     12  C   UNL     1       0.680  12.745  20.858  0.00  0.00    +0.000 C 
ATOM     13  C   UNL     1       1.592  13.942  20.525  0.00  0.00    +0.000 C 
ATOM     14  C   UNL     1       1.105  15.113  21.382  0.00  0.00    +0.000 C 
ATOM     15  C   UNL     1      -0.337  14.769  21.589  0.00  0.00    +0.000 A 
ATOM     16  C   UNL     1      -1.286  15.549  22.230  0.00  0.00    +0.000 A 
ATOM     17  C   UNL     1      -2.547  15.001  22.457  0.00  0.00    +0.000 A 
ATOM     18  C   UNL     1      -2.848  13.702  22.017  0.00  0.00    +0.000 A 
ATOM     19  C   UNL     1      -1.879  12.917  21.376  0.00  0.00    +0.000 A 
ATOM     20  C   UNL     1      -0.614  13.451  21.185  0.00  0.00    +0.000 A 
ENDBRANCH   6  12
BRANCH   1  23
ATOM     21  C   UNL     1       4.573   5.106  18.630  0.00  0.00    +0.000 C 
ATOM     22  O   UNL     1       3.826   5.891  19.582  0.00  0.00    +0.000 OA
ATOM     23  C   UNL     1       2.426   5.922  19.183  0.00  0.00    +0.000 C 
ATOM     24  C   UNL     1       2.296   4.945  18.007  0.00  0.00    +0.000 C 
ATOM     25  C   UNL     1       3.546   4.097  18.130  0.00  0.00    +0.000 C 
BRANCH  25  26
ATOM     26  O   UNL     1       3.330   3.063  19.093  0.00  0.00    +0.000 OA
ATOM     27  H   UNL     1       4.185   2.844  19.509  0.00  0.00    +0.000 HD
ENDBRANCH  25  26
BRANCH  21  28
ATOM     28  C   UNL     1       5.102   5.976  17.482  0.00  0.00    +0.000 C 
BRANCH  28  29
ATOM     29  O   UNL     1       5.662   5.193  16.434  0.00  0.00    +0.000 OA
BRANCH  29  30
ATOM     30  S   UNL     1       7.267   5.349  16.238  0.00  0.00    +0.000 S 
ATOM     31  O   UNL     1       7.937   4.222  16.837  0.00  0.00    +0.000 OA
ATOM     32  O   UNL     1       7.623   6.711  16.564  0.00  0.00    +0.000 OA
BRANCH  30  33
ATOM     33  N   UNL     1       7.494   5.220  14.587  0.00  0.00    +0.000 NA
ATOM     34  H   UNL     1       7.399   6.148  14.177  0.00  0.00    +0.000 HD
ATOM     35  H   UNL     1       6.815   4.564  14.204  0.00  0.00    +0.000 HD
ENDBRANCH  30  33
ENDBRANCH  29  30
ENDBRANCH  28  29
ENDBRANCH  21  28
ENDBRANCH   1  23
TORSDOF 7
ENDMDL
