MODEL 1
REMARK VINA RESULT:      -7.3      0.000      0.000
REMARK  Name = 
REMARK  9 active torsions:
REMARK  status: ('A' for Active; 'I' for Inactive)
REMARK    1  A    between atoms: C_1  and  C_2
REMARK    2  A    between atoms: C_6  and  C_7
REMARK    3  A    between atoms: N_9  and  C_10
REMARK    4  A    between atoms: C_10  and  C_11
REMARK    5  A    between atoms: C_10  and  C_17
REMARK    6  A    between atoms: C_11  and  N_12
REMARK    7  A    between atoms: C_17  and  C_18
REMARK    8  A    between atoms: C_17  and  C_19
REMARK    9  A    between atoms: C_17  and  C_20
REMARK                            x       y       z     vdW  Elec       q    Type
REMARK                         _______ _______ _______ _____ _____    ______ ____
ROOT
ATOM      1  C   UNL     1       6.147   4.260  15.902  0.00  0.00    +0.000 A 
ATOM      2  C   UNL     1       4.849   4.062  16.325  0.00  0.00    +0.000 A 
ATOM      3  N   UNL     1       4.897   4.227  17.676  0.00  0.00    +0.000 N 
ATOM      4  N   UNL     1       6.161   4.499  18.068  0.00  0.00    +0.000 NA
ATOM      5  N   UNL     1       6.940   4.482  16.993  0.00  0.00    +0.000 NA
ENDROOT
BRANCH   1  11
ATOM      6  C   UNL     1       5.586   2.460  11.496  0.00  0.00    +0.000 C 
ATOM      7  C   UNL     1       6.306   3.434  12.376  0.00  0.00    +0.000 A 
ATOM      8  C   UNL     1       7.216   4.347  11.856  0.00  0.00    +0.000 A 
ATOM      9  C   UNL     1       7.825   5.252  12.720  0.00  0.00    +0.000 A 
ATOM     10  C   UNL     1       7.502   5.233  14.074  0.00  0.00    +0.000 A 
ATOM     11  C   UNL     1       6.581   4.296  14.520  0.00  0.00    +0.000 A 
ATOM     12  N   UNL     1       5.994   3.392  13.691  0.00  0.00    +0.000 NA
ENDBRANCH   1  11
BRANCH   3  13
ATOM     13  C   UNL     1       3.807   4.255  18.657  0.00  0.00    +0.000 C 
BRANCH  13  14
ATOM     14  C   UNL     1       3.425   2.817  19.220  0.00  0.00    +0.000 C 
ATOM     15  C   UNL     1       3.341   1.764  18.089  0.00  0.00    +0.000 C 
ATOM     16  C   UNL     1       4.508   2.303  20.200  0.00  0.00    +0.000 C 
ATOM     17  C   UNL     1       2.077   2.834  19.965  0.00  0.00    +0.000 C 
ENDBRANCH  13  14
BRANCH  13  18
ATOM     18  C   UNL     1       2.559   5.025  18.139  0.00  0.00    +0.000 C 
BRANCH  18  19
ATOM     19  N   UNL     1       2.290   6.343  18.687  0.00  0.00    +0.000 N 
ATOM     20  C   UNL     1       2.293   7.548  18.047  0.00  0.00    +0.000 A 
ATOM     21  C   UNL     1       2.031   8.473  19.031  0.00  0.00    +0.000 A 
ATOM     22  N   UNL     1       1.898   7.865  20.251  0.00  0.00    +0.000 NA
ATOM     23  C   UNL     1       2.058   6.585  20.017  0.00  0.00    +0.000 A 
ENDBRANCH  18  19
ENDBRANCH  13  18
ENDBRANCH   3  13
TORSDOF 5
ENDMDL
MODEL 2
REMARK VINA RESULT:      -7.2      0.478      1.129
REMARK  Name = 
REMARK  9 active torsions:
REMARK  status: ('A' for Active; 'I' for Inactive)
REMARK    1  A    between atoms: C_1  and  C_2
REMARK    2  A    between atoms: C_6  and  C_7
REMARK    3  A    between atoms: N_9  and  C_10
REMARK    4  A    between atoms: C_10  and  C_11
REMARK    5  A    between atoms: C_10  and  C_17
REMARK    6  A    between atoms: C_11  and  N_12
REMARK    7  A    between atoms: C_17  and  C_18
REMARK    8  A    between atoms: C_17  and  C_19
REMARK    9  A    between atoms: C_17  and  C_20
REMARK                            x       y       z     vdW  Elec       q    Type
REMARK                         _______ _______ _______ _____ _____    ______ ____
ROOT
ATOM      1  C   UNL     1       6.157   4.295  16.068  0.00  0.00    +0.000 A 
ATOM      2  C   UNL     1       4.883   4.017  16.518  0.00  0.00    +0.000 A 
ATOM      3  N   UNL     1       4.934   4.244  17.860  0.00  0.00    +0.000 N 
ATOM      4  N   UNL     1       6.178   4.628  18.221  0.00  0.00    +0.000 NA
ATOM      5  N   UNL     1       6.943   4.623  17.137  0.00  0.00    +0.000 NA
ENDROOT
BRANCH   1  11
ATOM      6  C   UNL     1       5.411   2.539  11.671  0.00  0.00    +0.000 C 
ATOM      7  C   UNL     1       6.207   3.463  12.540  0.00  0.00    +0.000 A 
ATOM      8  C   UNL     1       7.167   4.314  12.006  0.00  0.00    +0.000 A 
ATOM      9  C   UNL     1       7.848   5.176  12.861  0.00  0.00    +0.000 A 
ATOM     10  C   UNL     1       7.545   5.177  14.220  0.00  0.00    +0.000 A 
ATOM     11  C   UNL     1       6.572   4.302  14.679  0.00  0.00    +0.000 A 
ATOM     12  N   UNL     1       5.913   3.441  13.860  0.00  0.00    +0.000 NA
ENDBRANCH   1  11
BRANCH   3  13
ATOM     13  C   UNL     1       3.856   4.233  18.855  0.00  0.00    +0.000 C 
BRANCH  13  14
ATOM     14  C   UNL     1       3.491   2.775  19.376  0.00  0.00    +0.000 C 
ATOM     15  C   UNL     1       4.713   2.073  20.014  0.00  0.00    +0.000 C 
ATOM     16  C   UNL     1       2.411   2.840  20.484  0.00  0.00    +0.000 C 
ATOM     17  C   UNL     1       2.956   1.880  18.242  0.00  0.00    +0.000 C 
ENDBRANCH  13  14
BRANCH  13  18
ATOM     18  C   UNL     1       2.596   5.010  18.378  0.00  0.00    +0.000 C 
BRANCH  18  19
ATOM     19  N   UNL     1       2.322   6.306  18.974  0.00  0.00    +0.000 N 
ATOM     20  C   UNL     1       1.877   6.586  20.234  0.00  0.00    +0.000 A 
ATOM     21  C   UNL     1       1.733   7.954  20.262  0.00  0.00    +0.000 A 
ATOM     22  N   UNL     1       2.050   8.505  19.049  0.00  0.00    +0.000 NA
ATOM     23  C   UNL     1       2.401   7.493  18.293  0.00  0.00    +0.000 A 
ENDBRANCH  18  19
ENDBRANCH  13  18
ENDBRANCH   3  13
TORSDOF 5
ENDMDL
MODEL 3
REMARK VINA RESULT:      -7.1      0.603      1.102
REMARK  Name = 
REMARK  9 active torsions:
REMARK  status: ('A' for Active; 'I' for Inactive)
REMARK    1  A    between atoms: C_1  and  C_2
REMARK    2  A    between atoms: C_6  and  C_7
REMARK    3  A    between atoms: N_9  and  C_10
REMARK    4  A    between atoms: C_10  and  C_11
REMARK    5  A    between atoms: C_10  and  C_17
REMARK    6  A    between atoms: C_11  and  N_12
REMARK    7  A    between atoms: C_17  and  C_18
REMARK    8  A    between atoms: C_17  and  C_19
REMARK    9  A    between atoms: C_17  and  C_20
REMARK                            x       y       z     vdW  Elec       q    Type
REMARK                         _______ _______ _______ _____ _____    ______ ____
ROOT
ATOM      1  C   UNL     1       6.021   4.262  15.916  0.00  0.00    +0.000 A 
ATOM      2  C   UNL     1       4.702   4.186  16.311  0.00  0.00    +0.000 A 
ATOM      3  N   UNL     1       4.738   4.326  17.665  0.00  0.00    +0.000 N 
ATOM      4  N   UNL     1       6.014   4.467  18.085  0.00  0.00    +0.000 NA
ATOM      5  N   UNL     1       6.809   4.388  17.025  0.00  0.00    +0.000 NA
ENDROOT
BRANCH   1  11
ATOM      6  C   UNL     1       5.471   2.475  11.502  0.00  0.00    +0.000 C 
ATOM      7  C   UNL     1       6.216   3.419  12.396  0.00  0.00    +0.000 A 
ATOM      8  C   UNL     1       7.175   4.289  11.892  0.00  0.00    +0.000 A 
ATOM      9  C   UNL     1       7.806   5.170  12.767  0.00  0.00    +0.000 A 
ATOM     10  C   UNL     1       7.455   5.169  14.115  0.00  0.00    +0.000 A 
ATOM     11  C   UNL     1       6.485   4.274  14.543  0.00  0.00    +0.000 A 
ATOM     12  N   UNL     1       5.875   3.395  13.704  0.00  0.00    +0.000 NA
ENDBRANCH   1  11
BRANCH   3  13
ATOM     13  C   UNL     1       3.636   4.448  18.625  0.00  0.00    +0.000 C 
BRANCH  13  14
ATOM     14  C   UNL     1       2.955   3.056  18.987  0.00  0.00    +0.000 C 
ATOM     15  C   UNL     1       1.466   3.022  18.569  0.00  0.00    +0.000 C 
ATOM     16  C   UNL     1       3.638   1.893  18.224  0.00  0.00    +0.000 C 
ATOM     17  C   UNL     1       3.042   2.751  20.494  0.00  0.00    +0.000 C 
ENDBRANCH  13  14
BRANCH  13  18
ATOM     18  C   UNL     1       2.586   5.512  18.197  0.00  0.00    +0.000 C 
BRANCH  18  19
ATOM     19  N   UNL     1       2.210   6.532  19.160  0.00  0.00    +0.000 N 
ATOM     20  C   UNL     1       1.785   6.372  20.448  0.00  0.00    +0.000 A 
ATOM     21  C   UNL     1       1.512   7.645  20.891  0.00  0.00    +0.000 A 
ATOM     22  N   UNL     1       1.731   8.566  19.902  0.00  0.00    +0.000 NA
ATOM     23  C   UNL     1       2.150   7.871  18.872  0.00  0.00    +0.000 A 
ENDBRANCH  18  19
ENDBRANCH  13  18
ENDBRANCH   3  13
TORSDOF 5
ENDMDL
MODEL 4
REMARK VINA RESULT:      -7.1      0.724      1.679
REMARK  Name = 
REMARK  9 active torsions:
REMARK  status: ('A' for Active; 'I' for Inactive)
REMARK    1  A    between atoms: C_1  and  C_2
REMARK    2  A    between atoms: C_6  and  C_7
REMARK    3  A    between atoms: N_9  and  C_10
REMARK    4  A    between atoms: C_10  and  C_11
REMARK    5  A    between atoms: C_10  and  C_17
REMARK    6  A    between atoms: C_11  and  N_12
REMARK    7  A    between atoms: C_17  and  C_18
REMARK    8  A    between atoms: C_17  and  C_19
REMARK    9  A    between atoms: C_17  and  C_20
REMARK                            x       y       z     vdW  Elec       q    Type
REMARK                         _______ _______ _______ _____ _____    ______ ____
ROOT
ATOM      1  C   UNL     1       5.951   4.307  16.089  0.00  0.00    +0.000 A 
ATOM      2  C   UNL     1       4.672   4.104  16.564  0.00  0.00    +0.000 A 
ATOM      3  N   UNL     1       4.773   4.272  17.911  0.00  0.00    +0.000 N 
ATOM      4  N   UNL     1       6.049   4.551  18.252  0.00  0.00    +0.000 NA
ATOM      5  N   UNL     1       6.785   4.534  17.148  0.00  0.00    +0.000 NA
ENDROOT
BRANCH   1  11
ATOM      6  C   UNL     1       9.004   6.035  12.823  0.00  0.00    +0.000 C 
ATOM      7  C   UNL     1       7.816   5.166  13.102  0.00  0.00    +0.000 A 
ATOM      8  C   UNL     1       7.233   4.393  12.105  0.00  0.00    +0.000 A 
ATOM      9  C   UNL     1       6.154   3.577  12.435  0.00  0.00    +0.000 A 
ATOM     10  C   UNL     1       5.695   3.544  13.749  0.00  0.00    +0.000 A 
ATOM     11  C   UNL     1       6.330   4.341  14.691  0.00  0.00    +0.000 A 
ATOM     12  N   UNL     1       7.371   5.157  14.380  0.00  0.00    +0.000 NA
ENDBRANCH   1  11
BRANCH   3  13
ATOM     13  C   UNL     1       3.722   4.299  18.934  0.00  0.00    +0.000 C 
BRANCH  13  14
ATOM     14  C   UNL     1       3.402   2.867  19.550  0.00  0.00    +0.000 C 
ATOM     15  C   UNL     1       4.678   2.179  20.090  0.00  0.00    +0.000 C 
ATOM     16  C   UNL     1       2.440   2.988  20.758  0.00  0.00    +0.000 C 
ATOM     17  C   UNL     1       2.750   1.932  18.514  0.00  0.00    +0.000 C 
ENDBRANCH  13  14
BRANCH  13  18
ATOM     18  C   UNL     1       2.433   5.021  18.448  0.00  0.00    +0.000 C 
BRANCH  18  19
ATOM     19  N   UNL     1       2.200   6.383  18.895  0.00  0.00    +0.000 N 
ATOM     20  C   UNL     1       2.322   7.544  18.188  0.00  0.00    +0.000 A 
ATOM     21  C   UNL     1       2.040   8.541  19.093  0.00  0.00    +0.000 A 
ATOM     22  N   UNL     1       1.780   8.019  20.331  0.00  0.00    +0.000 NA
ATOM     23  C   UNL     1       1.883   6.720  20.185  0.00  0.00    +0.000 A 
ENDBRANCH  18  19
ENDBRANCH  13  18
ENDBRANCH   3  13
TORSDOF 5
ENDMDL
MODEL 5
REMARK VINA RESULT:      -6.9      2.905      7.309
REMARK  Name = 
REMARK  9 active torsions:
REMARK  status: ('A' for Active; 'I' for Inactive)
REMARK    1  A    between atoms: C_1  and  C_2
REMARK    2  A    between atoms: C_6  and  C_7
REMARK    3  A    between atoms: N_9  and  C_10
REMARK    4  A    between atoms: C_10  and  C_11
REMARK    5  A    between atoms: C_10  and  C_17
REMARK    6  A    between atoms: C_11  and  N_12
REMARK    7  A    between atoms: C_17  and  C_18
REMARK    8  A    between atoms: C_17  and  C_19
REMARK    9  A    between atoms: C_17  and  C_20
REMARK                            x       y       z     vdW  Elec       q    Type
REMARK                         _______ _______ _______ _____ _____    ______ ____
ROOT
ATOM      1  C   UNL     1       2.115   7.413  19.372  0.00  0.00    +0.000 A 
ATOM      2  C   UNL     1       2.348   6.106  19.746  0.00  0.00    +0.000 A 
ATOM      3  N   UNL     1       3.007   5.557  18.687  0.00  0.00    +0.000 N 
ATOM      4  N   UNL     1       3.159   6.474  17.707  0.00  0.00    +0.000 NA
ATOM      5  N   UNL     1       2.580   7.601  18.101  0.00  0.00    +0.000 NA
ENDROOT
BRANCH   1  11
ATOM      6  C   UNL     1      -0.152  11.632  19.551  0.00  0.00    +0.000 C 
ATOM      7  C   UNL     1       0.420  10.476  20.313  0.00  0.00    +0.000 A 
ATOM      8  C   UNL     1       0.282  10.377  21.692  0.00  0.00    +0.000 A 
ATOM      9  C   UNL     1       0.804   9.260  22.338  0.00  0.00    +0.000 A 
ATOM     10  C   UNL     1       1.435   8.267  21.593  0.00  0.00    +0.000 A 
ATOM     11  C   UNL     1       1.531   8.434  20.219  0.00  0.00    +0.000 A 
ATOM     12  N   UNL     1       1.045   9.529  19.577  0.00  0.00    +0.000 NA
ENDBRANCH   1  11
BRANCH   3  13
ATOM     13  C   UNL     1       3.620   4.232  18.549  0.00  0.00    +0.000 C 
BRANCH  13  14
ATOM     14  C   UNL     1       2.637   3.038  18.921  0.00  0.00    +0.000 C 
ATOM     15  C   UNL     1       3.137   1.688  18.355  0.00  0.00    +0.000 C 
ATOM     16  C   UNL     1       2.554   2.850  20.457  0.00  0.00    +0.000 C 
ATOM     17  C   UNL     1       1.211   3.286  18.394  0.00  0.00    +0.000 C 
ENDBRANCH  13  14
BRANCH  13  18
ATOM     18  C   UNL     1       4.977   4.121  19.301  0.00  0.00    +0.000 C 
BRANCH  18  19
ATOM     19  N   UNL     1       6.123   4.828  18.756  0.00  0.00    +0.000 N 
ATOM     20  C   UNL     1       6.981   5.678  19.393  0.00  0.00    +0.000 A 
ATOM     21  C   UNL     1       7.845   6.109  18.413  0.00  0.00    +0.000 A 
ATOM     22  N   UNL     1       7.517   5.568  17.199  0.00  0.00    +0.000 NA
ATOM     23  C   UNL     1       6.479   4.802  17.432  0.00  0.00    +0.000 A 
ENDBRANCH  18  19
ENDBRANCH  13  18
ENDBRANCH   3  13
TORSDOF 5
ENDMDL
MODEL 6
REMARK VINA RESULT:      -6.9      0.944      1.857
REMARK  Name = 
REMARK  9 active torsions:
REMARK  status: ('A' for Active; 'I' for Inactive)
REMARK    1  A    between atoms: C_1  and  C_2
REMARK    2  A    between atoms: C_6  and  C_7
REMARK    3  A    between atoms: N_9  and  C_10
REMARK    4  A    between atoms: C_10  and  C_11
REMARK    5  A    between atoms: C_10  and  C_17
REMARK    6  A    between atoms: C_11  and  N_12
REMARK    7  A    between atoms: C_17  and  C_18
REMARK    8  A    between atoms: C_17  and  C_19
REMARK    9  A    between atoms: C_17  and  C_20
REMARK                            x       y       z     vdW  Elec       q    Type
REMARK                         _______ _______ _______ _____ _____    ______ ____
ROOT
ATOM      1  C   UNL     1       5.861   4.348  15.939  0.00  0.00    +0.000 A 
ATOM      2  C   UNL     1       4.543   4.358  16.343  0.00  0.00    +0.000 A 
ATOM      3  N   UNL     1       4.599   4.469  17.700  0.00  0.00    +0.000 N 
ATOM      4  N   UNL     1       5.884   4.511  18.111  0.00  0.00    +0.000 NA
ATOM      5  N   UNL     1       6.664   4.397  17.044  0.00  0.00    +0.000 NA
ENDROOT
BRANCH   1  11
ATOM      6  C   UNL     1       9.028   6.083  12.788  0.00  0.00    +0.000 C 
ATOM      7  C   UNL     1       7.857   5.182  13.030  0.00  0.00    +0.000 A 
ATOM      8  C   UNL     1       7.356   4.360  12.029  0.00  0.00    +0.000 A 
ATOM      9  C   UNL     1       6.288   3.516  12.326  0.00  0.00    +0.000 A 
ATOM     10  C   UNL     1       5.759   3.506  13.614  0.00  0.00    +0.000 A 
ATOM     11  C   UNL     1       6.315   4.353  14.562  0.00  0.00    +0.000 A 
ATOM     12  N   UNL     1       7.344   5.195  14.282  0.00  0.00    +0.000 NA
ENDBRANCH   1  11
BRANCH   3  13
ATOM     13  C   UNL     1       3.515   4.651  18.671  0.00  0.00    +0.000 C 
BRANCH  13  14
ATOM     14  C   UNL     1       2.797   3.291  19.079  0.00  0.00    +0.000 C 
ATOM     15  C   UNL     1       1.360   3.210  18.510  0.00  0.00    +0.000 C 
ATOM     16  C   UNL     1       3.555   2.071  18.498  0.00  0.00    +0.000 C 
ATOM     17  C   UNL     1       2.722   3.120  20.608  0.00  0.00    +0.000 C 
ENDBRANCH  13  14
BRANCH  13  18
ATOM     18  C   UNL     1       2.493   5.735  18.229  0.00  0.00    +0.000 C 
BRANCH  18  19
ATOM     19  N   UNL     1       2.126   6.765  19.187  0.00  0.00    +0.000 N 
ATOM     20  C   UNL     1       1.823   6.627  20.510  0.00  0.00    +0.000 A 
ATOM     21  C   UNL     1       1.497   7.894  20.933  0.00  0.00    +0.000 A 
ATOM     22  N   UNL     1       1.565   8.788  19.899  0.00  0.00    +0.000 NA
ATOM     23  C   UNL     1       1.946   8.084  18.860  0.00  0.00    +0.000 A 
ENDBRANCH  18  19
ENDBRANCH  13  18
ENDBRANCH   3  13
TORSDOF 5
ENDMDL
MODEL 7
REMARK VINA RESULT:      -6.9      2.353      7.896
REMARK  Name = 
REMARK  9 active torsions:
REMARK  status: ('A' for Active; 'I' for Inactive)
REMARK    1  A    between atoms: C_1  and  C_2
REMARK    2  A    between atoms: C_6  and  C_7
REMARK    3  A    between atoms: N_9  and  C_10
REMARK    4  A    between atoms: C_10  and  C_11
REMARK    5  A    between atoms: C_10  and  C_17
REMARK    6  A    between atoms: C_11  and  N_12
REMARK    7  A    between atoms: C_17  and  C_18
REMARK    8  A    between atoms: C_17  and  C_19
REMARK    9  A    between atoms: C_17  and  C_20
REMARK                            x       y       z     vdW  Elec       q    Type
REMARK                         _______ _______ _______ _____ _____    ______ ____
ROOT
ATOM      1  C   UNL     1       1.729   8.793  18.828  0.00  0.00    +0.000 A 
ATOM      2  C   UNL     1       2.133   7.509  19.127  0.00  0.00    +0.000 A 
ATOM      3  N   UNL     1       2.797   7.088  18.015  0.00  0.00    +0.000 N 
ATOM      4  N   UNL     1       2.790   8.056  17.074  0.00  0.00    +0.000 NA
ATOM      5  N   UNL     1       2.104   9.089  17.547  0.00  0.00    +0.000 NA
ENDROOT
BRANCH   1  11
ATOM      6  C   UNL     1       0.010   9.434  23.256  0.00  0.00    +0.000 C 
ATOM      7  C   UNL     1       0.248  10.023  21.899  0.00  0.00    +0.000 A 
ATOM      8  C   UNL     1      -0.042  11.354  21.626  0.00  0.00    +0.000 A 
ATOM      9  C   UNL     1       0.237  11.853  20.356  0.00  0.00    +0.000 A 
ATOM     10  C   UNL     1       0.809  11.018  19.400  0.00  0.00    +0.000 A 
ATOM     11  C   UNL     1       1.074   9.702  19.749  0.00  0.00    +0.000 A 
ATOM     12  N   UNL     1       0.789   9.195  20.977  0.00  0.00    +0.000 NA
ENDBRANCH   1  11
BRANCH   3  13
ATOM     13  C   UNL     1       3.553   5.852  17.786  0.00  0.00    +0.000 C 
BRANCH  13  14
ATOM     14  C   UNL     1       2.826   4.552  18.346  0.00  0.00    +0.000 C 
ATOM     15  C   UNL     1       1.374   4.440  17.825  0.00  0.00    +0.000 C 
ATOM     16  C   UNL     1       3.550   3.268  17.871  0.00  0.00    +0.000 C 
ATOM     17  C   UNL     1       2.790   4.536  19.886  0.00  0.00    +0.000 C 
ENDBRANCH  13  14
BRANCH  13  18
ATOM     18  C   UNL     1       5.023   5.952  18.280  0.00  0.00    +0.000 C 
BRANCH  18  19
ATOM     19  N   UNL     1       6.073   5.426  17.425  0.00  0.00    +0.000 N 
ATOM     20  C   UNL     1       6.131   5.410  16.061  0.00  0.00    +0.000 A 
ATOM     21  C   UNL     1       7.303   4.752  15.764  0.00  0.00    +0.000 A 
ATOM     22  N   UNL     1       7.938   4.345  16.906  0.00  0.00    +0.000 NA
ATOM     23  C   UNL     1       7.178   4.762  17.890  0.00  0.00    +0.000 A 
ENDBRANCH  18  19
ENDBRANCH  13  18
ENDBRANCH   3  13
TORSDOF 5
ENDMDL
MODEL 8
REMARK VINA RESULT:      -6.9      2.491      8.112
REMARK  Name = 
REMARK  9 active torsions:
REMARK  status: ('A' for Active; 'I' for Inactive)
REMARK    1  A    between atoms: C_1  and  C_2
REMARK    2  A    between atoms: C_6  and  C_7
REMARK    3  A    between atoms: N_9  and  C_10
REMARK    4  A    between atoms: C_10  and  C_11
REMARK    5  A    between atoms: C_10  and  C_17
REMARK    6  A    between atoms: C_11  and  N_12
REMARK    7  A    between atoms: C_17  and  C_18
REMARK    8  A    between atoms: C_17  and  C_19
REMARK    9  A    between atoms: C_17  and  C_20
REMARK                            x       y       z     vdW  Elec       q    Type
REMARK                         _______ _______ _______ _____ _____    ______ ____
ROOT
ATOM      1  C   UNL     1       1.588   8.598  19.336  0.00  0.00    +0.000 A 
ATOM      2  C   UNL     1       2.148   7.339  19.397  0.00  0.00    +0.000 A 
ATOM      3  N   UNL     1       2.718   7.155  18.174  0.00  0.00    +0.000 N 
ATOM      4  N   UNL     1       2.507   8.237  17.394  0.00  0.00    +0.000 NA
ATOM      5  N   UNL     1       1.782   9.109  18.083  0.00  0.00    +0.000 NA
ENDROOT
BRANCH   1  11
ATOM      6  C   UNL     1       0.088  12.802  21.081  0.00  0.00    +0.000 C 
ATOM      7  C   UNL     1       0.216  11.325  21.291  0.00  0.00    +0.000 A 
ATOM      8  C   UNL     1      -0.334  10.700  22.404  0.00  0.00    +0.000 A 
ATOM      9  C   UNL     1      -0.214   9.318  22.523  0.00  0.00    +0.000 A 
ATOM     10  C   UNL     1       0.437   8.596  21.527  0.00  0.00    +0.000 A 
ATOM     11  C   UNL     1       0.957   9.289  20.443  0.00  0.00    +0.000 A 
ATOM     12  N   UNL     1       0.865  10.639  20.322  0.00  0.00    +0.000 NA
ENDBRANCH   1  11
BRANCH   3  13
ATOM     13  C   UNL     1       3.561   6.057  17.687  0.00  0.00    +0.000 C 
BRANCH  13  14
ATOM     14  C   UNL     1       2.961   4.616  17.994  0.00  0.00    +0.000 C 
ATOM     15  C   UNL     1       3.579   3.533  17.077  0.00  0.00    +0.000 C 
ATOM     16  C   UNL     1       3.287   4.181  19.445  0.00  0.00    +0.000 C 
ATOM     17  C   UNL     1       1.432   4.583  17.819  0.00  0.00    +0.000 C 
ENDBRANCH  13  14
BRANCH  13  18
ATOM     18  C   UNL     1       5.036   6.184  18.160  0.00  0.00    +0.000 C 
BRANCH  18  19
ATOM     19  N   UNL     1       6.076   5.604  17.328  0.00  0.00    +0.000 N 
ATOM     20  C   UNL     1       6.187   5.623  15.967  0.00  0.00    +0.000 A 
ATOM     21  C   UNL     1       7.316   4.887  15.694  0.00  0.00    +0.000 A 
ATOM     22  N   UNL     1       7.874   4.399  16.845  0.00  0.00    +0.000 NA
ATOM     23  C   UNL     1       7.109   4.845  17.813  0.00  0.00    +0.000 A 
ENDBRANCH  18  19
ENDBRANCH  13  18
ENDBRANCH   3  13
TORSDOF 5
ENDMDL
MODEL 9
REMARK VINA RESULT:      -6.8      3.133      7.374
REMARK  Name = 
REMARK  9 active torsions:
REMARK  status: ('A' for Active; 'I' for Inactive)
REMARK    1  A    between atoms: C_1  and  C_2
REMARK    2  A    between atoms: C_6  and  C_7
REMARK    3  A    between atoms: N_9  and  C_10
REMARK    4  A    between atoms: C_10  and  C_11
REMARK    5  A    between atoms: C_10  and  C_17
REMARK    6  A    between atoms: C_11  and  N_12
REMARK    7  A    between atoms: C_17  and  C_18
REMARK    8  A    between atoms: C_17  and  C_19
REMARK    9  A    between atoms: C_17  and  C_20
REMARK                            x       y       z     vdW  Elec       q    Type
REMARK                         _______ _______ _______ _____ _____    ______ ____
ROOT
ATOM      1  C   UNL     1       1.995   7.490  19.436  0.00  0.00    +0.000 A 
ATOM      2  C   UNL     1       2.334   6.200  19.785  0.00  0.00    +0.000 A 
ATOM      3  N   UNL     1       2.967   5.700  18.688  0.00  0.00    +0.000 N 
ATOM      4  N   UNL     1       3.005   6.628  17.708  0.00  0.00    +0.000 NA
ATOM      5  N   UNL     1       2.377   7.714  18.142  0.00  0.00    +0.000 NA
ENDROOT
BRANCH   1  11
ATOM      6  C   UNL     1      -0.580  11.518  19.772  0.00  0.00    +0.000 C 
ATOM      7  C   UNL     1       0.134  10.416  20.492  0.00  0.00    +0.000 A 
ATOM      8  C   UNL     1       0.102  10.314  21.877  0.00  0.00    +0.000 A 
ATOM      9  C   UNL     1       0.754   9.246  22.486  0.00  0.00    +0.000 A 
ATOM     10  C   UNL     1       1.408   8.302  21.698  0.00  0.00    +0.000 A 
ATOM     11  C   UNL     1       1.394   8.467  20.321  0.00  0.00    +0.000 A 
ATOM     12  N   UNL     1       0.778   9.516  19.714  0.00  0.00    +0.000 NA
ENDBRANCH   1  11
BRANCH   3  13
ATOM     13  C   UNL     1       3.657   4.418  18.506  0.00  0.00    +0.000 C 
BRANCH  13  14
ATOM     14  C   UNL     1       2.756   3.158  18.868  0.00  0.00    +0.000 C 
ATOM     15  C   UNL     1       1.325   3.295  18.296  0.00  0.00    +0.000 C 
ATOM     16  C   UNL     1       3.341   1.865  18.246  0.00  0.00    +0.000 C 
ATOM     17  C   UNL     1       2.651   2.949  20.391  0.00  0.00    +0.000 C 
ENDBRANCH  13  14
BRANCH  13  18
ATOM     18  C   UNL     1       5.033   4.374  19.229  0.00  0.00    +0.000 C 
BRANCH  18  19
ATOM     19  N   UNL     1       6.093   5.238  18.739  0.00  0.00    +0.000 N 
ATOM     20  C   UNL     1       6.279   5.727  17.479  0.00  0.00    +0.000 A 
ATOM     21  C   UNL     1       7.455   6.439  17.545  0.00  0.00    +0.000 A 
ATOM     22  N   UNL     1       7.999   6.370  18.799  0.00  0.00    +0.000 NA
ATOM     23  C   UNL     1       7.161   5.642  19.498  0.00  0.00    +0.000 A 
ENDBRANCH  18  19
ENDBRANCH  13  18
ENDBRANCH   3  13
TORSDOF 5
ENDMDL
