MODEL 1
REMARK VINA RESULT:      -6.2      0.000      0.000
REMARK  Name = 
REMARK  4 active torsions:
REMARK  status: ('A' for Active; 'I' for Inactive)
REMARK    1  A    between atoms: C_1  and  C_2
REMARK    2  A    between atoms: C_4  and  C_5
REMARK    3  A    between atoms: N_7  and  C_8
REMARK    4  A    between atoms: C_8  and  C_9
REMARK                            x       y       z     vdW  Elec       q    Type
REMARK                         _______ _______ _______ _____ _____    ______ ____
ROOT
ATOM      1  C   UNL     1       1.861   3.255  18.072  0.00  0.00    +0.000 C 
ATOM      2  C   UNL     1       3.277   3.739  17.983  0.00  0.00    +0.000 A 
ATOM      3  C   UNL     1       3.875   4.035  16.748  0.00  0.00    +0.000 A 
ATOM      4  C   UNL     1       5.227   4.432  16.668  0.00  0.00    +0.000 A 
ATOM      5  C   UNL     1       5.976   4.526  17.852  0.00  0.00    +0.000 A 
ATOM      6 CL   UNL     1       7.662   4.915  17.894  0.00  0.00    +0.000 Cl
ATOM      7  C   UNL     1       5.376   4.250  19.085  0.00  0.00    +0.000 A 
ATOM      8  C   UNL     1       4.044   3.860  19.140  0.00  0.00    +0.000 A 
ATOM      9  F   UNL     1       3.502   3.576  20.331  0.00  0.00    +0.000 F 
ENDROOT
BRANCH   4  10
ATOM     10  C   UNL     1       5.766   4.667  15.296  0.00  0.00    +0.000 C 
ATOM     11  O   UNL     1       5.986   5.813  14.915  0.00  0.00    +0.000 OA
ATOM     12  N   UNL     1       6.031   3.574  14.510  0.00  0.00    +0.000 N 
ATOM     13  H   UNL     1       5.780   2.644  14.833  0.00  0.00    +0.000 HD
BRANCH  12  14
ATOM     14  C   UNL     1       6.456   3.740  13.131  0.00  0.00    +0.000 C 
BRANCH  14  15
ATOM     15  C   UNL     1       5.407   3.346  12.176  0.00  0.00    +0.000 C 
ATOM     16  N   UNL     1       4.565   3.027  11.444  0.00  0.00    +0.000 NA
ENDBRANCH  14  15
ENDBRANCH  12  14
ENDBRANCH   4  10
TORSDOF 3
ENDMDL
MODEL 2
REMARK VINA RESULT:      -6.1      3.652      4.295
REMARK  Name = 
REMARK  4 active torsions:
REMARK  status: ('A' for Active; 'I' for Inactive)
REMARK    1  A    between atoms: C_1  and  C_2
REMARK    2  A    between atoms: C_4  and  C_5
REMARK    3  A    between atoms: N_7  and  C_8
REMARK    4  A    between atoms: C_8  and  C_9
REMARK                            x       y       z     vdW  Elec       q    Type
REMARK                         _______ _______ _______ _____ _____    ______ ____
ROOT
ATOM      1  C   UNL     1       1.372   2.671  21.220  0.00  0.00    +0.000 C 
ATOM      2  C   UNL     1       2.154   2.917  19.965  0.00  0.00    +0.000 A 
ATOM      3  C   UNL     1       3.396   3.572  19.991  0.00  0.00    +0.000 A 
ATOM      4  C   UNL     1       4.097   3.854  18.799  0.00  0.00    +0.000 A 
ATOM      5  C   UNL     1       3.530   3.471  17.573  0.00  0.00    +0.000 A 
ATOM      6 CL   UNL     1       4.235   3.830  16.034  0.00  0.00    +0.000 Cl
ATOM      7  C   UNL     1       2.302   2.802  17.547  0.00  0.00    +0.000 A 
ATOM      8  C   UNL     1       1.629   2.535  18.733  0.00  0.00    +0.000 A 
ATOM      9  F   UNL     1       0.443   1.917  18.677  0.00  0.00    +0.000 F 
ENDROOT
BRANCH   4  10
ATOM     10  C   UNL     1       5.379   4.602  18.949  0.00  0.00    +0.000 C 
ATOM     11  O   UNL     1       5.465   5.507  19.775  0.00  0.00    +0.000 OA
ATOM     12  N   UNL     1       6.443   4.225  18.168  0.00  0.00    +0.000 N 
ATOM     13  H   UNL     1       6.320   3.515  17.453  0.00  0.00    +0.000 HD
BRANCH  12  14
ATOM     14  C   UNL     1       7.684   4.981  18.193  0.00  0.00    +0.000 C 
BRANCH  14  15
ATOM     15  C   UNL     1       7.520   6.333  17.635  0.00  0.00    +0.000 C 
ATOM     16  N   UNL     1       7.373   7.389  17.178  0.00  0.00    +0.000 NA
ENDBRANCH  14  15
ENDBRANCH  12  14
ENDBRANCH   4  10
TORSDOF 3
ENDMDL
MODEL 3
REMARK VINA RESULT:      -6.0      2.566      3.264
REMARK  Name = 
REMARK  4 active torsions:
REMARK  status: ('A' for Active; 'I' for Inactive)
REMARK    1  A    between atoms: C_1  and  C_2
REMARK    2  A    between atoms: C_4  and  C_5
REMARK    3  A    between atoms: N_7  and  C_8
REMARK    4  A    between atoms: C_8  and  C_9
REMARK                            x       y       z     vdW  Elec       q    Type
REMARK                         _______ _______ _______ _____ _____    ______ ____
ROOT
ATOM      1  C   UNL     1       1.916   7.004  20.356  0.00  0.00    +0.000 C 
ATOM      2  C   UNL     1       2.417   5.675  19.876  0.00  0.00    +0.000 A 
ATOM      3  C   UNL     1       3.652   5.549  19.221  0.00  0.00    +0.000 A 
ATOM      4  C   UNL     1       4.087   4.305  18.718  0.00  0.00    +0.000 A 
ATOM      5  C   UNL     1       3.261   3.181  18.881  0.00  0.00    +0.000 A 
ATOM      6 CL   UNL     1       3.628   1.617  18.240  0.00  0.00    +0.000 Cl
ATOM      7  C   UNL     1       2.038   3.302  19.551  0.00  0.00    +0.000 A 
ATOM      8  C   UNL     1       1.629   4.538  20.037  0.00  0.00    +0.000 A 
ATOM      9  F   UNL     1       0.443   4.629  20.650  0.00  0.00    +0.000 F 
ENDROOT
BRANCH   4  10
ATOM     10  C   UNL     1       5.392   4.306  17.993  0.00  0.00    +0.000 C 
ATOM     11  O   UNL     1       6.442   4.261  18.627  0.00  0.00    +0.000 OA
ATOM     12  N   UNL     1       5.369   4.326  16.621  0.00  0.00    +0.000 N 
ATOM     13  H   UNL     1       4.484   4.425  16.131  0.00  0.00    +0.000 HD
BRANCH  12  14
ATOM     14  C   UNL     1       6.602   4.434  15.862  0.00  0.00    +0.000 C 
BRANCH  14  15
ATOM     15  C   UNL     1       6.415   4.076  14.446  0.00  0.00    +0.000 C 
ATOM     16  N   UNL     1       6.248   3.776  13.338  0.00  0.00    +0.000 NA
ENDBRANCH  14  15
ENDBRANCH  12  14
ENDBRANCH   4  10
TORSDOF 3
ENDMDL
MODEL 4
REMARK VINA RESULT:      -6.0      1.008      1.008
REMARK  Name = 
REMARK  4 active torsions:
REMARK  status: ('A' for Active; 'I' for Inactive)
REMARK    1  A    between atoms: C_1  and  C_2
REMARK    2  A    between atoms: C_4  and  C_5
REMARK    3  A    between atoms: N_7  and  C_8
REMARK    4  A    between atoms: C_8  and  C_9
REMARK                            x       y       z     vdW  Elec       q    Type
REMARK                         _______ _______ _______ _____ _____    ______ ____
ROOT
ATOM      1  C   UNL     1       1.924   3.812  17.948  0.00  0.00    +0.000 C 
ATOM      2  C   UNL     1       3.339   4.298  18.042  0.00  0.00    +0.000 A 
ATOM      3  C   UNL     1       4.225   4.192  16.957  0.00  0.00    +0.000 A 
ATOM      4  C   UNL     1       5.572   4.596  17.073  0.00  0.00    +0.000 A 
ATOM      5  C   UNL     1       6.022   5.109  18.300  0.00  0.00    +0.000 A 
ATOM      6 CL   UNL     1       7.664   5.560  18.609  0.00  0.00    +0.000 Cl
ATOM      7  C   UNL     1       5.136   5.234  19.376  0.00  0.00    +0.000 A 
ATOM      8  C   UNL     1       3.814   4.828  19.239  0.00  0.00    +0.000 A 
ATOM      9  F   UNL     1       2.994   4.934  20.292  0.00  0.00    +0.000 F 
ENDROOT
BRANCH   4  10
ATOM     10  C   UNL     1       6.430   4.383  15.871  0.00  0.00    +0.000 C 
ATOM     11  O   UNL     1       7.653   4.391  15.984  0.00  0.00    +0.000 OA
ATOM     12  N   UNL     1       5.812   4.152  14.668  0.00  0.00    +0.000 N 
ATOM     13  H   UNL     1       4.800   4.213  14.598  0.00  0.00    +0.000 HD
BRANCH  12  14
ATOM     14  C   UNL     1       6.589   4.043  13.445  0.00  0.00    +0.000 C 
BRANCH  14  15
ATOM     15  C   UNL     1       5.886   3.269  12.409  0.00  0.00    +0.000 C 
ATOM     16  N   UNL     1       5.311   2.655  11.610  0.00  0.00    +0.000 NA
ENDBRANCH  14  15
ENDBRANCH  12  14
ENDBRANCH   4  10
TORSDOF 3
ENDMDL
MODEL 5
REMARK VINA RESULT:      -5.9      3.483      5.193
REMARK  Name = 
REMARK  4 active torsions:
REMARK  status: ('A' for Active; 'I' for Inactive)
REMARK    1  A    between atoms: C_1  and  C_2
REMARK    2  A    between atoms: C_4  and  C_5
REMARK    3  A    between atoms: N_7  and  C_8
REMARK    4  A    between atoms: C_8  and  C_9
REMARK                            x       y       z     vdW  Elec       q    Type
REMARK                         _______ _______ _______ _____ _____    ______ ____
ROOT
ATOM      1  C   UNL     1       5.328   3.945  13.748  0.00  0.00    +0.000 C 
ATOM      2  C   UNL     1       5.711   4.255  15.164  0.00  0.00    +0.000 A 
ATOM      3  C   UNL     1       4.864   3.940  16.239  0.00  0.00    +0.000 A 
ATOM      4  C   UNL     1       5.204   4.290  17.562  0.00  0.00    +0.000 A 
ATOM      5  C   UNL     1       6.412   4.967  17.795  0.00  0.00    +0.000 A 
ATOM      6 CL   UNL     1       6.912   5.533  19.351  0.00  0.00    +0.000 Cl
ATOM      7  C   UNL     1       7.266   5.264  16.727  0.00  0.00    +0.000 A 
ATOM      8  C   UNL     1       6.910   4.911  15.432  0.00  0.00    +0.000 A 
ATOM      9  F   UNL     1       7.733   5.231  14.426  0.00  0.00    +0.000 F 
ENDROOT
BRANCH   4  10
ATOM     10  C   UNL     1       4.200   3.952  18.613  0.00  0.00    +0.000 C 
ATOM     11  O   UNL     1       4.511   3.206  19.537  0.00  0.00    +0.000 OA
ATOM     12  N   UNL     1       2.954   4.521  18.524  0.00  0.00    +0.000 N 
ATOM     13  H   UNL     1       2.711   5.085  17.715  0.00  0.00    +0.000 HD
BRANCH  12  14
ATOM     14  C   UNL     1       1.902   4.150  19.456  0.00  0.00    +0.000 C 
BRANCH  14  15
ATOM     15  C   UNL     1       1.064   3.056  18.937  0.00  0.00    +0.000 C 
ATOM     16  N   UNL     1       0.408   2.181  18.551  0.00  0.00    +0.000 NA
ENDBRANCH  14  15
ENDBRANCH  12  14
ENDBRANCH   4  10
TORSDOF 3
ENDMDL
MODEL 6
REMARK VINA RESULT:      -5.9      3.195      4.135
REMARK  Name = 
REMARK  4 active torsions:
REMARK  status: ('A' for Active; 'I' for Inactive)
REMARK    1  A    between atoms: C_1  and  C_2
REMARK    2  A    between atoms: C_4  and  C_5
REMARK    3  A    between atoms: N_7  and  C_8
REMARK    4  A    between atoms: C_8  and  C_9
REMARK                            x       y       z     vdW  Elec       q    Type
REMARK                         _______ _______ _______ _____ _____    ______ ____
ROOT
ATOM      1  C   UNL     1       1.453   6.393  20.808  0.00  0.00    +0.000 C 
ATOM      2  C   UNL     1       2.098   5.208  20.155  0.00  0.00    +0.000 A 
ATOM      3  C   UNL     1       3.409   5.269  19.655  0.00  0.00    +0.000 A 
ATOM      4  C   UNL     1       3.987   4.168  18.987  0.00  0.00    +0.000 A 
ATOM      5  C   UNL     1       3.226   2.999  18.825  0.00  0.00    +0.000 A 
ATOM      6 CL   UNL     1       3.775   1.610  17.953  0.00  0.00    +0.000 Cl
ATOM      7  C   UNL     1       1.927   2.930  19.339  0.00  0.00    +0.000 A 
ATOM      8  C   UNL     1       1.378   4.027  19.992  0.00  0.00    +0.000 A 
ATOM      9  F   UNL     1       0.123   3.943  20.452  0.00  0.00    +0.000 F 
ENDROOT
BRANCH   4  10
ATOM     10  C   UNL     1       5.365   4.371  18.452  0.00  0.00    +0.000 C 
ATOM     11  O   UNL     1       6.329   4.311  19.211  0.00  0.00    +0.000 OA
ATOM     12  N   UNL     1       5.511   4.589  17.105  0.00  0.00    +0.000 N 
ATOM     13  H   UNL     1       4.689   4.693  16.517  0.00  0.00    +0.000 HD
BRANCH  12  14
ATOM     14  C   UNL     1       6.814   4.897  16.542  0.00  0.00    +0.000 C 
BRANCH  14  15
ATOM     15  C   UNL     1       7.203   6.296  16.780  0.00  0.00    +0.000 C 
ATOM     16  N   UNL     1       7.531   7.396  16.950  0.00  0.00    +0.000 NA
ENDBRANCH  14  15
ENDBRANCH  12  14
ENDBRANCH   4  10
TORSDOF 3
ENDMDL
MODEL 7
REMARK VINA RESULT:      -5.9      3.353      5.153
REMARK  Name = 
REMARK  4 active torsions:
REMARK  status: ('A' for Active; 'I' for Inactive)
REMARK    1  A    between atoms: C_1  and  C_2
REMARK    2  A    between atoms: C_4  and  C_5
REMARK    3  A    between atoms: N_7  and  C_8
REMARK    4  A    between atoms: C_8  and  C_9
REMARK                            x       y       z     vdW  Elec       q    Type
REMARK                         _______ _______ _______ _____ _____    ______ ____
ROOT
ATOM      1  C   UNL     1       5.459   3.817  13.229  0.00  0.00    +0.000 C 
ATOM      2  C   UNL     1       5.859   4.200  14.622  0.00  0.00    +0.000 A 
ATOM      3  C   UNL     1       5.050   3.895  15.728  0.00  0.00    +0.000 A 
ATOM      4  C   UNL     1       5.404   4.312  17.029  0.00  0.00    +0.000 A 
ATOM      5  C   UNL     1       6.588   5.046  17.206  0.00  0.00    +0.000 A 
ATOM      6 CL   UNL     1       7.098   5.694  18.726  0.00  0.00    +0.000 Cl
ATOM      7  C   UNL     1       7.406   5.334  16.108  0.00  0.00    +0.000 A 
ATOM      8  C   UNL     1       7.036   4.914  14.835  0.00  0.00    +0.000 A 
ATOM      9  F   UNL     1       7.823   5.226  13.799  0.00  0.00    +0.000 F 
ENDROOT
BRANCH   4  10
ATOM     10  C   UNL     1       4.438   3.977  18.115  0.00  0.00    +0.000 C 
ATOM     11  O   UNL     1       3.913   4.877  18.765  0.00  0.00    +0.000 OA
ATOM     12  N   UNL     1       4.142   2.654  18.332  0.00  0.00    +0.000 N 
ATOM     13  H   UNL     1       4.640   1.933  17.818  0.00  0.00    +0.000 HD
BRANCH  12  14
ATOM     14  C   UNL     1       3.291   2.258  19.441  0.00  0.00    +0.000 C 
BRANCH  14  15
ATOM     15  C   UNL     1       1.865   2.263  19.075  0.00  0.00    +0.000 C 
ATOM     16  N   UNL     1       0.749   2.262  18.761  0.00  0.00    +0.000 NA
ENDBRANCH  14  15
ENDBRANCH  12  14
ENDBRANCH   4  10
TORSDOF 3
ENDMDL
MODEL 8
REMARK VINA RESULT:      -5.8      2.287      2.846
REMARK  Name = 
REMARK  4 active torsions:
REMARK  status: ('A' for Active; 'I' for Inactive)
REMARK    1  A    between atoms: C_1  and  C_2
REMARK    2  A    between atoms: C_4  and  C_5
REMARK    3  A    between atoms: N_7  and  C_8
REMARK    4  A    between atoms: C_8  and  C_9
REMARK                            x       y       z     vdW  Elec       q    Type
REMARK                         _______ _______ _______ _____ _____    ______ ____
ROOT
ATOM      1  C   UNL     1       2.658   2.684  21.265  0.00  0.00    +0.000 C 
ATOM      2  C   UNL     1       2.997   3.757  20.275  0.00  0.00    +0.000 A 
ATOM      3  C   UNL     1       4.124   3.659  19.443  0.00  0.00    +0.000 A 
ATOM      4  C   UNL     1       4.470   4.701  18.558  0.00  0.00    +0.000 A 
ATOM      5  C   UNL     1       3.666   5.852  18.519  0.00  0.00    +0.000 A 
ATOM      6 CL   UNL     1       4.021   7.239  17.548  0.00  0.00    +0.000 Cl
ATOM      7  C   UNL     1       2.533   5.944  19.333  0.00  0.00    +0.000 A 
ATOM      8  C   UNL     1       2.212   4.905  20.199  0.00  0.00    +0.000 A 
ATOM      9  F   UNL     1       1.136   5.030  20.987  0.00  0.00    +0.000 F 
ENDROOT
BRANCH   4  10
ATOM     10  C   UNL     1       5.719   4.505  17.764  0.00  0.00    +0.000 C 
ATOM     11  O   UNL     1       6.804   4.458  18.336  0.00  0.00    +0.000 OA
ATOM     12  N   UNL     1       5.604   4.351  16.405  0.00  0.00    +0.000 N 
ATOM     13  H   UNL     1       4.698   4.457  15.958  0.00  0.00    +0.000 HD
BRANCH  12  14
ATOM     14  C   UNL     1       6.788   4.262  15.568  0.00  0.00    +0.000 C 
BRANCH  14  15
ATOM     15  C   UNL     1       6.454   3.961  14.166  0.00  0.00    +0.000 C 
ATOM     16  N   UNL     1       6.212   3.737  13.054  0.00  0.00    +0.000 NA
ENDBRANCH  14  15
ENDBRANCH  12  14
ENDBRANCH   4  10
TORSDOF 3
ENDMDL
MODEL 9
REMARK VINA RESULT:      -5.8      4.071      5.912
REMARK  Name = 
REMARK  4 active torsions:
REMARK  status: ('A' for Active; 'I' for Inactive)
REMARK    1  A    between atoms: C_1  and  C_2
REMARK    2  A    between atoms: C_4  and  C_5
REMARK    3  A    between atoms: N_7  and  C_8
REMARK    4  A    between atoms: C_8  and  C_9
REMARK                            x       y       z     vdW  Elec       q    Type
REMARK                         _______ _______ _______ _____ _____    ______ ____
ROOT
ATOM      1  C   UNL     1       5.919   4.298  14.472  0.00  0.00    +0.000 C 
ATOM      2  C   UNL     1       5.252   4.791  15.720  0.00  0.00    +0.000 A 
ATOM      3  C   UNL     1       4.758   3.902  16.689  0.00  0.00    +0.000 A 
ATOM      4  C   UNL     1       4.077   4.373  17.831  0.00  0.00    +0.000 A 
ATOM      5  C   UNL     1       3.895   5.756  17.990  0.00  0.00    +0.000 A 
ATOM      6 CL   UNL     1       3.006   6.465  19.294  0.00  0.00    +0.000 Cl
ATOM      7  C   UNL     1       4.404   6.644  17.036  0.00  0.00    +0.000 A 
ATOM      8  C   UNL     1       5.070   6.158  15.917  0.00  0.00    +0.000 A 
ATOM      9  F   UNL     1       5.522   7.029  15.007  0.00  0.00    +0.000 F 
ENDROOT
BRANCH   4  10
ATOM     10  C   UNL     1       3.551   3.331  18.761  0.00  0.00    +0.000 C 
ATOM     11  O   UNL     1       4.333   2.631  19.399  0.00  0.00    +0.000 OA
ATOM     12  N   UNL     1       2.191   3.211  18.896  0.00  0.00    +0.000 N 
ATOM     13  H   UNL     1       1.573   3.764  18.308  0.00  0.00    +0.000 HD
BRANCH  12  14
ATOM     14  C   UNL     1       1.617   2.149  19.704  0.00  0.00    +0.000 C 
BRANCH  14  15
ATOM     15  C   UNL     1       1.621   2.480  21.138  0.00  0.00    +0.000 C 
ATOM     16  N   UNL     1       1.603   2.759  22.264  0.00  0.00    +0.000 NA
ENDBRANCH  14  15
ENDBRANCH  12  14
ENDBRANCH   4  10
TORSDOF 3
ENDMDL
