MODEL 1
REMARK VINA RESULT:      -7.0      0.000      0.000
REMARK  Name = 
REMARK  10 active torsions:
REMARK  status: ('A' for Active; 'I' for Inactive)
REMARK    1  A    between atoms: C_1  and  C_2
REMARK    2  A    between atoms: C_2  and  C_3
REMARK    3  A    between atoms: C_3  and  C_4
REMARK    4  A    between atoms: C_4  and  C_5
REMARK    5  A    between atoms: C_5  and  C_6
REMARK    6  A    between atoms: C_6  and  C_7
REMARK    7  A    between atoms: C_7  and  C_8
REMARK    8  A    between atoms: C_8  and  N_9
REMARK    9  A    between atoms: C_11  and  C_12
REMARK   10  A    between atoms: C_12  and  O_14
REMARK                            x       y       z     vdW  Elec       q    Type
REMARK                         _______ _______ _______ _____ _____    ______ ____
ROOT
ATOM      1  N   UNL     1       5.427   4.433  16.974  0.00  0.00    +0.000 N 
ATOM      2  C   UNL     1       4.128   3.967  16.914  0.00  0.00    +0.000 A 
ATOM      3  C   UNL     1       3.534   3.364  17.953  0.00  0.00    +0.000 A 
ATOM      4  C   UNL     1       4.333   3.188  19.178  0.00  0.00    +0.000 A 
ATOM      5  O   UNL     1       3.819   2.725  20.195  0.00  0.00    +0.000 OA
ATOM      6  N   UNL     1       5.641   3.567  19.127  0.00  0.00    +0.000 N 
ATOM      7  C   UNL     1       6.228   4.247  18.094  0.00  0.00    +0.000 A 
ATOM      8  O   UNL     1       7.379   4.665  18.206  0.00  0.00    +0.000 OA
ATOM      9  H   UNL     1       6.197   3.469  19.961  0.00  0.00    +0.000 HD
ENDROOT
BRANCH   3  10
ATOM     10  C   UNL     1       2.121   2.955  17.836  0.00  0.00    +0.000 C 
ATOM     11  O   UNL     1       1.238   3.706  17.447  0.00  0.00    +0.000 OA
BRANCH  10  12
ATOM     12  O   UNL     1       1.868   1.680  18.204  0.00  0.00    +0.000 OA
ATOM     13  H   UNL     1       1.357   1.149  17.546  0.00  0.00    +0.000 HD
ENDBRANCH  10  12
ENDBRANCH   3  10
BRANCH   1  14
ATOM     14  C   UNL     1       5.969   5.185  15.851  0.00  0.00    +0.000 C 
BRANCH  14  15
ATOM     15  C   UNL     1       5.423   4.708  14.505  0.00  0.00    +0.000 C 
BRANCH  15  16
ATOM     16  C   UNL     1       6.318   3.645  13.862  0.00  0.00    +0.000 C 
BRANCH  16  17
ATOM     17  C   UNL     1       6.322   3.741  12.337  0.00  0.00    +0.000 C 
BRANCH  17  18
ATOM     18  C   UNL     1       5.541   2.605  11.689  0.00  0.00    +0.000 C 
BRANCH  18  19
ATOM     19  C   UNL     1       4.074   3.003  11.540  0.00  0.00    +0.000 C 
BRANCH  19  21
ATOM     20  C   UNL     1       2.817   3.788   9.518  0.00  0.00    +0.000 C 
ATOM     21  C   UNL     1       3.906   4.124  10.521  0.00  0.00    +0.000 C 
ENDBRANCH  19  21
ENDBRANCH  18  19
ENDBRANCH  17  18
ENDBRANCH  16  17
ENDBRANCH  15  16
ENDBRANCH  14  15
ENDBRANCH   1  14
TORSDOF 9
ENDMDL
MODEL 2
REMARK VINA RESULT:      -6.8      2.967      6.451
REMARK  Name = 
REMARK  10 active torsions:
REMARK  status: ('A' for Active; 'I' for Inactive)
REMARK    1  A    between atoms: C_1  and  C_2
REMARK    2  A    between atoms: C_2  and  C_3
REMARK    3  A    between atoms: C_3  and  C_4
REMARK    4  A    between atoms: C_4  and  C_5
REMARK    5  A    between atoms: C_5  and  C_6
REMARK    6  A    between atoms: C_6  and  C_7
REMARK    7  A    between atoms: C_7  and  C_8
REMARK    8  A    between atoms: C_8  and  N_9
REMARK    9  A    between atoms: C_11  and  C_12
REMARK   10  A    between atoms: C_12  and  O_14
REMARK                            x       y       z     vdW  Elec       q    Type
REMARK                         _______ _______ _______ _____ _____    ______ ____
ROOT
ATOM      1  N   UNL     1       4.457   4.529  17.450  0.00  0.00    +0.000 N 
ATOM      2  C   UNL     1       5.025   4.672  16.198  0.00  0.00    +0.000 A 
ATOM      3  C   UNL     1       6.348   4.593  15.998  0.00  0.00    +0.000 A 
ATOM      4  C   UNL     1       7.198   4.369  17.180  0.00  0.00    +0.000 A 
ATOM      5  O   UNL     1       8.409   4.196  17.052  0.00  0.00    +0.000 OA
ATOM      6  N   UNL     1       6.580   4.353  18.395  0.00  0.00    +0.000 N 
ATOM      7  C   UNL     1       5.226   4.360  18.595  0.00  0.00    +0.000 A 
ATOM      8  O   UNL     1       4.769   4.203  19.725  0.00  0.00    +0.000 OA
ATOM      9  H   UNL     1       7.145   4.184  19.212  0.00  0.00    +0.000 HD
ENDROOT
BRANCH   3  10
ATOM     10  C   UNL     1       6.874   4.688  14.622  0.00  0.00    +0.000 C 
ATOM     11  O   UNL     1       6.486   3.975  13.708  0.00  0.00    +0.000 OA
BRANCH  10  12
ATOM     12  O   UNL     1       7.834   5.623  14.446  0.00  0.00    +0.000 OA
ATOM     13  H   UNL     1       8.367   5.830  15.251  0.00  0.00    +0.000 HD
ENDBRANCH  10  12
ENDBRANCH   3  10
BRANCH   1  14
ATOM     14  C   UNL     1       3.008   4.504  17.578  0.00  0.00    +0.000 C 
BRANCH  14  15
ATOM     15  C   UNL     1       2.401   3.172  17.136  0.00  0.00    +0.000 C 
BRANCH  15  16
ATOM     16  C   UNL     1       2.376   2.143  18.270  0.00  0.00    +0.000 C 
BRANCH  16  17
ATOM     17  C   UNL     1       1.055   2.164  19.038  0.00  0.00    +0.000 C 
BRANCH  17  18
ATOM     18  C   UNL     1       1.209   2.773  20.426  0.00  0.00    +0.000 C 
BRANCH  18  19
ATOM     19  C   UNL     1       0.821   4.250  20.391  0.00  0.00    +0.000 C 
BRANCH  19  21
ATOM     20  C   UNL     1       1.753   6.574  20.527  0.00  0.00    +0.000 C 
ATOM     21  C   UNL     1       1.933   5.127  20.954  0.00  0.00    +0.000 C 
ENDBRANCH  19  21
ENDBRANCH  18  19
ENDBRANCH  17  18
ENDBRANCH  16  17
ENDBRANCH  15  16
ENDBRANCH  14  15
ENDBRANCH   1  14
TORSDOF 9
ENDMDL
MODEL 3
REMARK VINA RESULT:      -6.8      3.083      6.751
REMARK  Name = 
REMARK  10 active torsions:
REMARK  status: ('A' for Active; 'I' for Inactive)
REMARK    1  A    between atoms: C_1  and  C_2
REMARK    2  A    between atoms: C_2  and  C_3
REMARK    3  A    between atoms: C_3  and  C_4
REMARK    4  A    between atoms: C_4  and  C_5
REMARK    5  A    between atoms: C_5  and  C_6
REMARK    6  A    between atoms: C_6  and  C_7
REMARK    7  A    between atoms: C_7  and  C_8
REMARK    8  A    between atoms: C_8  and  N_9
REMARK    9  A    between atoms: C_11  and  C_12
REMARK   10  A    between atoms: C_12  and  O_14
REMARK                            x       y       z     vdW  Elec       q    Type
REMARK                         _______ _______ _______ _____ _____    ______ ____
ROOT
ATOM      1  N   UNL     1       6.019   4.342  15.950  0.00  0.00    +0.000 N 
ATOM      2  C   UNL     1       5.612   3.773  14.759  0.00  0.00    +0.000 A 
ATOM      3  C   UNL     1       6.232   4.022  13.597  0.00  0.00    +0.000 A 
ATOM      4  C   UNL     1       7.367   4.960  13.625  0.00  0.00    +0.000 A 
ATOM      5  O   UNL     1       8.034   5.160  12.611  0.00  0.00    +0.000 OA
ATOM      6  N   UNL     1       7.639   5.571  14.812  0.00  0.00    +0.000 N 
ATOM      7  C   UNL     1       7.057   5.265  16.012  0.00  0.00    +0.000 A 
ATOM      8  O   UNL     1       7.472   5.779  17.049  0.00  0.00    +0.000 OA
ATOM      9  H   UNL     1       8.423   6.203  14.852  0.00  0.00    +0.000 HD
ENDROOT
BRANCH   3  10
ATOM     10  C   UNL     1       5.782   3.323  12.378  0.00  0.00    +0.000 C 
ATOM     11  O   UNL     1       4.675   3.484  11.885  0.00  0.00    +0.000 OA
BRANCH  10  12
ATOM     12  O   UNL     1       6.688   2.475  11.844  0.00  0.00    +0.000 OA
ATOM     13  H   UNL     1       6.514   1.517  12.013  0.00  0.00    +0.000 HD
ENDBRANCH  10  12
ENDBRANCH   3  10
BRANCH   1  14
ATOM     14  C   UNL     1       5.380   3.934  17.193  0.00  0.00    +0.000 C 
BRANCH  14  15
ATOM     15  C   UNL     1       3.945   4.449  17.312  0.00  0.00    +0.000 C 
BRANCH  15  16
ATOM     16  C   UNL     1       2.933   3.311  17.473  0.00  0.00    +0.000 C 
BRANCH  16  17
ATOM     17  C   UNL     1       1.554   3.821  17.889  0.00  0.00    +0.000 C 
BRANCH  17  18
ATOM     18  C   UNL     1       1.086   3.202  19.201  0.00  0.00    +0.000 C 
BRANCH  18  19
ATOM     19  C   UNL     1       1.025   4.274  20.288  0.00  0.00    +0.000 C 
BRANCH  19  21
ATOM     20  C   UNL     1       2.473   2.661  21.549  0.00  0.00    +0.000 C 
ATOM     21  C   UNL     1       2.178   4.126  21.274  0.00  0.00    +0.000 C 
ENDBRANCH  19  21
ENDBRANCH  18  19
ENDBRANCH  17  18
ENDBRANCH  16  17
ENDBRANCH  15  16
ENDBRANCH  14  15
ENDBRANCH   1  14
TORSDOF 9
ENDMDL
MODEL 4
REMARK VINA RESULT:      -6.7      3.690      6.422
REMARK  Name = 
REMARK  10 active torsions:
REMARK  status: ('A' for Active; 'I' for Inactive)
REMARK    1  A    between atoms: C_1  and  C_2
REMARK    2  A    between atoms: C_2  and  C_3
REMARK    3  A    between atoms: C_3  and  C_4
REMARK    4  A    between atoms: C_4  and  C_5
REMARK    5  A    between atoms: C_5  and  C_6
REMARK    6  A    between atoms: C_6  and  C_7
REMARK    7  A    between atoms: C_7  and  C_8
REMARK    8  A    between atoms: C_8  and  N_9
REMARK    9  A    between atoms: C_11  and  C_12
REMARK   10  A    between atoms: C_12  and  O_14
REMARK                            x       y       z     vdW  Elec       q    Type
REMARK                         _______ _______ _______ _____ _____    ______ ____
ROOT
ATOM      1  N   UNL     1       4.413   5.126  17.874  0.00  0.00    +0.000 N 
ATOM      2  C   UNL     1       5.404   5.542  18.742  0.00  0.00    +0.000 A 
ATOM      3  C   UNL     1       6.699   5.260  18.541  0.00  0.00    +0.000 A 
ATOM      4  C   UNL     1       7.037   4.455  17.354  0.00  0.00    +0.000 A 
ATOM      5  O   UNL     1       8.213   4.239  17.064  0.00  0.00    +0.000 OA
ATOM      6  N   UNL     1       6.001   3.982  16.608  0.00  0.00    +0.000 N 
ATOM      7  C   UNL     1       4.686   4.328  16.769  0.00  0.00    +0.000 A 
ATOM      8  O   UNL     1       3.845   3.954  15.954  0.00  0.00    +0.000 OA
ATOM      9  H   UNL     1       6.215   3.444  15.784  0.00  0.00    +0.000 HD
ENDROOT
BRANCH   3  10
ATOM     10  C   UNL     1       7.706   5.798  19.475  0.00  0.00    +0.000 C 
ATOM     11  O   UNL     1       7.903   5.329  20.587  0.00  0.00    +0.000 OA
BRANCH  10  12
ATOM     12  O   UNL     1       8.395   6.864  19.014  0.00  0.00    +0.000 OA
ATOM     13  H   UNL     1       8.150   7.729  19.424  0.00  0.00    +0.000 HD
ENDBRANCH  10  12
ENDBRANCH   3  10
BRANCH   1  14
ATOM     14  C   UNL     1       3.043   5.570  18.087  0.00  0.00    +0.000 C 
BRANCH  14  15
ATOM     15  C   UNL     1       2.821   6.136  19.490  0.00  0.00    +0.000 C 
BRANCH  15  16
ATOM     16  C   UNL     1       2.570   5.036  20.525  0.00  0.00    +0.000 C 
BRANCH  16  17
ATOM     17  C   UNL     1       1.157   4.463  20.427  0.00  0.00    +0.000 C 
BRANCH  17  18
ATOM     18  C   UNL     1       1.162   2.944  20.303  0.00  0.00    +0.000 C 
BRANCH  18  19
ATOM     19  C   UNL     1       0.792   2.538  18.878  0.00  0.00    +0.000 C 
BRANCH  19  21
ATOM     20  C   UNL     1       3.195   1.839  19.030  0.00  0.00    +0.000 C 
ATOM     21  C   UNL     1       2.019   2.079  18.099  0.00  0.00    +0.000 C 
ENDBRANCH  19  21
ENDBRANCH  18  19
ENDBRANCH  17  18
ENDBRANCH  16  17
ENDBRANCH  15  16
ENDBRANCH  14  15
ENDBRANCH   1  14
TORSDOF 9
ENDMDL
MODEL 5
REMARK VINA RESULT:      -6.7      3.143      6.473
REMARK  Name = 
REMARK  10 active torsions:
REMARK  status: ('A' for Active; 'I' for Inactive)
REMARK    1  A    between atoms: C_1  and  C_2
REMARK    2  A    between atoms: C_2  and  C_3
REMARK    3  A    between atoms: C_3  and  C_4
REMARK    4  A    between atoms: C_4  and  C_5
REMARK    5  A    between atoms: C_5  and  C_6
REMARK    6  A    between atoms: C_6  and  C_7
REMARK    7  A    between atoms: C_7  and  C_8
REMARK    8  A    between atoms: C_8  and  N_9
REMARK    9  A    between atoms: C_11  and  C_12
REMARK   10  A    between atoms: C_12  and  O_14
REMARK                            x       y       z     vdW  Elec       q    Type
REMARK                         _______ _______ _______ _____ _____    ______ ____
ROOT
ATOM      1  N   UNL     1       5.152   4.078  17.865  0.00  0.00    +0.000 N 
ATOM      2  C   UNL     1       5.557   3.977  16.548  0.00  0.00    +0.000 A 
ATOM      3  C   UNL     1       6.383   4.868  15.981  0.00  0.00    +0.000 A 
ATOM      4  C   UNL     1       6.837   5.994  16.816  0.00  0.00    +0.000 A 
ATOM      5  O   UNL     1       7.666   6.793  16.385  0.00  0.00    +0.000 OA
ATOM      6  N   UNL     1       6.307   6.092  18.067  0.00  0.00    +0.000 N 
ATOM      7  C   UNL     1       5.522   5.147  18.672  0.00  0.00    +0.000 A 
ATOM      8  O   UNL     1       5.210   5.269  19.854  0.00  0.00    +0.000 OA
ATOM      9  H   UNL     1       6.619   6.847  18.657  0.00  0.00    +0.000 HD
ENDROOT
BRANCH   3  10
ATOM     10  C   UNL     1       6.825   4.656  14.589  0.00  0.00    +0.000 C 
ATOM     11  O   UNL     1       6.331   3.814  13.853  0.00  0.00    +0.000 OA
BRANCH  10  12
ATOM     12  O   UNL     1       7.832   5.460  14.185  0.00  0.00    +0.000 OA
ATOM     13  H   UNL     1       8.406   5.086  13.473  0.00  0.00    +0.000 HD
ENDBRANCH  10  12
ENDBRANCH   3  10
BRANCH   1  14
ATOM     14  C   UNL     1       4.353   3.011  18.450  0.00  0.00    +0.000 C 
BRANCH  14  15
ATOM     15  C   UNL     1       3.264   2.505  17.503  0.00  0.00    +0.000 C 
BRANCH  15  16
ATOM     16  C   UNL     1       1.859   2.870  17.989  0.00  0.00    +0.000 C 
BRANCH  16  17
ATOM     17  C   UNL     1       1.559   4.359  17.820  0.00  0.00    +0.000 C 
BRANCH  17  18
ATOM     18  C   UNL     1       1.737   5.131  19.122  0.00  0.00    +0.000 C 
BRANCH  18  19
ATOM     19  C   UNL     1       1.133   4.340  20.280  0.00  0.00    +0.000 C 
BRANCH  19  21
ATOM     20  C   UNL     1       2.388   2.633  21.622  0.00  0.00    +0.000 C 
ATOM     21  C   UNL     1       2.156   4.116  21.388  0.00  0.00    +0.000 C 
ENDBRANCH  19  21
ENDBRANCH  18  19
ENDBRANCH  17  18
ENDBRANCH  16  17
ENDBRANCH  15  16
ENDBRANCH  14  15
ENDBRANCH   1  14
TORSDOF 9
ENDMDL
MODEL 6
REMARK VINA RESULT:      -6.7      2.888      6.546
REMARK  Name = 
REMARK  10 active torsions:
REMARK  status: ('A' for Active; 'I' for Inactive)
REMARK    1  A    between atoms: C_1  and  C_2
REMARK    2  A    between atoms: C_2  and  C_3
REMARK    3  A    between atoms: C_3  and  C_4
REMARK    4  A    between atoms: C_4  and  C_5
REMARK    5  A    between atoms: C_5  and  C_6
REMARK    6  A    between atoms: C_6  and  C_7
REMARK    7  A    between atoms: C_7  and  C_8
REMARK    8  A    between atoms: C_8  and  N_9
REMARK    9  A    between atoms: C_11  and  C_12
REMARK   10  A    between atoms: C_12  and  O_14
REMARK                            x       y       z     vdW  Elec       q    Type
REMARK                         _______ _______ _______ _____ _____    ______ ____
ROOT
ATOM      1  N   UNL     1       5.637   4.294  16.516  0.00  0.00    +0.000 N 
ATOM      2  C   UNL     1       5.394   3.806  15.246  0.00  0.00    +0.000 A 
ATOM      3  C   UNL     1       6.125   4.175  14.185  0.00  0.00    +0.000 A 
ATOM      4  C   UNL     1       7.200   5.156  14.414  0.00  0.00    +0.000 A 
ATOM      5  O   UNL     1       7.964   5.466  13.500  0.00  0.00    +0.000 OA
ATOM      6  N   UNL     1       7.307   5.679  15.667  0.00  0.00    +0.000 N 
ATOM      7  C   UNL     1       6.612   5.252  16.766  0.00  0.00    +0.000 A 
ATOM      8  O   UNL     1       6.883   5.697  17.879  0.00  0.00    +0.000 OA
ATOM      9  H   UNL     1       8.048   6.339  15.844  0.00  0.00    +0.000 HD
ENDROOT
BRANCH   3  10
ATOM     10  C   UNL     1       5.850   3.559  12.872  0.00  0.00    +0.000 C 
ATOM     11  O   UNL     1       4.747   3.575  12.345  0.00  0.00    +0.000 OA
BRANCH  10  12
ATOM     12  O   UNL     1       6.913   2.961  12.293  0.00  0.00    +0.000 OA
ATOM     13  H   UNL     1       7.254   3.410  11.482  0.00  0.00    +0.000 HD
ENDBRANCH  10  12
ENDBRANCH   3  10
BRANCH   1  14
ATOM     14  C   UNL     1       4.886   3.759  17.642  0.00  0.00    +0.000 C 
BRANCH  14  15
ATOM     15  C   UNL     1       3.404   4.136  17.592  0.00  0.00    +0.000 C 
BRANCH  15  16
ATOM     16  C   UNL     1       2.517   2.948  17.210  0.00  0.00    +0.000 C 
BRANCH  16  17
ATOM     17  C   UNL     1       1.975   2.215  18.436  0.00  0.00    +0.000 C 
BRANCH  17  18
ATOM     18  C   UNL     1       0.999   3.073  19.232  0.00  0.00    +0.000 C 
BRANCH  18  19
ATOM     19  C   UNL     1       1.255   2.899  20.727  0.00  0.00    +0.000 C 
BRANCH  19  21
ATOM     20  C   UNL     1       1.721   5.361  20.612  0.00  0.00    +0.000 C 
ATOM     21  C   UNL     1       2.090   4.048  21.282  0.00  0.00    +0.000 C 
ENDBRANCH  19  21
ENDBRANCH  18  19
ENDBRANCH  17  18
ENDBRANCH  16  17
ENDBRANCH  15  16
ENDBRANCH  14  15
ENDBRANCH   1  14
TORSDOF 9
ENDMDL
MODEL 7
REMARK VINA RESULT:      -6.6      2.918      6.644
REMARK  Name = 
REMARK  10 active torsions:
REMARK  status: ('A' for Active; 'I' for Inactive)
REMARK    1  A    between atoms: C_1  and  C_2
REMARK    2  A    between atoms: C_2  and  C_3
REMARK    3  A    between atoms: C_3  and  C_4
REMARK    4  A    between atoms: C_4  and  C_5
REMARK    5  A    between atoms: C_5  and  C_6
REMARK    6  A    between atoms: C_6  and  C_7
REMARK    7  A    between atoms: C_7  and  C_8
REMARK    8  A    between atoms: C_8  and  N_9
REMARK    9  A    between atoms: C_11  and  C_12
REMARK   10  A    between atoms: C_12  and  O_14
REMARK                            x       y       z     vdW  Elec       q    Type
REMARK                         _______ _______ _______ _____ _____    ______ ____
ROOT
ATOM      1  N   UNL     1       5.505   4.466  16.686  0.00  0.00    +0.000 N 
ATOM      2  C   UNL     1       5.272   3.955  15.424  0.00  0.00    +0.000 A 
ATOM      3  C   UNL     1       6.043   4.263  14.371  0.00  0.00    +0.000 A 
ATOM      4  C   UNL     1       7.155   5.201  14.601  0.00  0.00    +0.000 A 
ATOM      5  O   UNL     1       7.954   5.453  13.700  0.00  0.00    +0.000 OA
ATOM      6  N   UNL     1       7.255   5.754  15.842  0.00  0.00    +0.000 N 
ATOM      7  C   UNL     1       6.516   5.387  16.935  0.00  0.00    +0.000 A 
ATOM      8  O   UNL     1       6.779   5.851  18.042  0.00  0.00    +0.000 OA
ATOM      9  H   UNL     1       8.020   6.385  16.021  0.00  0.00    +0.000 HD
ENDROOT
BRANCH   3  10
ATOM     10  C   UNL     1       5.773   3.623  13.069  0.00  0.00    +0.000 C 
ATOM     11  O   UNL     1       4.692   3.694  12.502  0.00  0.00    +0.000 OA
BRANCH  10  12
ATOM     12  O   UNL     1       6.813   2.937  12.548  0.00  0.00    +0.000 OA
ATOM     13  H   UNL     1       7.255   2.311  13.171  0.00  0.00    +0.000 HD
ENDBRANCH  10  12
ENDBRANCH   3  10
BRANCH   1  14
ATOM     14  C   UNL     1       4.704   3.996  17.806  0.00  0.00    +0.000 C 
BRANCH  14  15
ATOM     15  C   UNL     1       3.234   3.798  17.435  0.00  0.00    +0.000 C 
BRANCH  15  16
ATOM     16  C   UNL     1       2.346   4.927  17.965  0.00  0.00    +0.000 C 
BRANCH  16  17
ATOM     17  C   UNL     1       2.941   5.595  19.204  0.00  0.00    +0.000 C 
BRANCH  17  18
ATOM     18  C   UNL     1       2.267   5.126  20.488  0.00  0.00    +0.000 C 
BRANCH  18  19
ATOM     19  C   UNL     1       1.083   4.223  20.152  0.00  0.00    +0.000 C 
BRANCH  19  21
ATOM     20  C   UNL     1       2.489   2.719  21.583  0.00  0.00    +0.000 C 
ATOM     21  C   UNL     1       1.115   2.941  20.976  0.00  0.00    +0.000 C 
ENDBRANCH  19  21
ENDBRANCH  18  19
ENDBRANCH  17  18
ENDBRANCH  16  17
ENDBRANCH  15  16
ENDBRANCH  14  15
ENDBRANCH   1  14
TORSDOF 9
ENDMDL
MODEL 8
REMARK VINA RESULT:      -6.6      1.671      2.896
REMARK  Name = 
REMARK  10 active torsions:
REMARK  status: ('A' for Active; 'I' for Inactive)
REMARK    1  A    between atoms: C_1  and  C_2
REMARK    2  A    between atoms: C_2  and  C_3
REMARK    3  A    between atoms: C_3  and  C_4
REMARK    4  A    between atoms: C_4  and  C_5
REMARK    5  A    between atoms: C_5  and  C_6
REMARK    6  A    between atoms: C_6  and  C_7
REMARK    7  A    between atoms: C_7  and  C_8
REMARK    8  A    between atoms: C_8  and  N_9
REMARK    9  A    between atoms: C_11  and  C_12
REMARK   10  A    between atoms: C_12  and  O_14
REMARK                            x       y       z     vdW  Elec       q    Type
REMARK                         _______ _______ _______ _____ _____    ______ ____
ROOT
ATOM      1  N   UNL     1       4.833   5.116  18.361  0.00  0.00    +0.000 N 
ATOM      2  C   UNL     1       4.499   3.800  18.612  0.00  0.00    +0.000 A 
ATOM      3  C   UNL     1       3.285   3.303  18.337  0.00  0.00    +0.000 A 
ATOM      4  C   UNL     1       2.289   4.229  17.772  0.00  0.00    +0.000 A 
ATOM      5  O   UNL     1       1.187   3.815  17.414  0.00  0.00    +0.000 OA
ATOM      6  N   UNL     1       2.651   5.538  17.659  0.00  0.00    +0.000 N 
ATOM      7  C   UNL     1       3.910   6.032  17.870  0.00  0.00    +0.000 A 
ATOM      8  O   UNL     1       4.164   7.205  17.606  0.00  0.00    +0.000 OA
ATOM      9  H   UNL     1       1.987   6.181  17.259  0.00  0.00    +0.000 HD
ENDROOT
BRANCH   3  10
ATOM     10  C   UNL     1       3.024   1.869  18.570  0.00  0.00    +0.000 C 
ATOM     11  O   UNL     1       3.892   1.011  18.490  0.00  0.00    +0.000 OA
BRANCH  10  12
ATOM     12  O   UNL     1       1.742   1.567  18.870  0.00  0.00    +0.000 OA
ATOM     13  H   UNL     1       1.342   0.851  18.319  0.00  0.00    +0.000 HD
ENDBRANCH  10  12
ENDBRANCH   3  10
BRANCH   1  14
ATOM     14  C   UNL     1       6.204   5.558  18.569  0.00  0.00    +0.000 C 
BRANCH  14  15
ATOM     15  C   UNL     1       7.208   4.776  17.722  0.00  0.00    +0.000 C 
BRANCH  15  16
ATOM     16  C   UNL     1       7.077   5.093  16.230  0.00  0.00    +0.000 C 
BRANCH  16  17
ATOM     17  C   UNL     1       6.579   3.893  15.427  0.00  0.00    +0.000 C 
BRANCH  17  18
ATOM     18  C   UNL     1       5.622   4.304  14.314  0.00  0.00    +0.000 C 
BRANCH  18  19
ATOM     19  C   UNL     1       6.289   4.102  12.955  0.00  0.00    +0.000 C 
BRANCH  19  21
ATOM     20  C   UNL     1       4.411   3.311  11.494  0.00  0.00    +0.000 C 
ATOM     21  C   UNL     1       5.687   2.913  12.216  0.00  0.00    +0.000 C 
ENDBRANCH  19  21
ENDBRANCH  18  19
ENDBRANCH  17  18
ENDBRANCH  16  17
ENDBRANCH  15  16
ENDBRANCH  14  15
ENDBRANCH   1  14
TORSDOF 9
ENDMDL
MODEL 9
REMARK VINA RESULT:      -6.6      3.000      6.303
REMARK  Name = 
REMARK  10 active torsions:
REMARK  status: ('A' for Active; 'I' for Inactive)
REMARK    1  A    between atoms: C_1  and  C_2
REMARK    2  A    between atoms: C_2  and  C_3
REMARK    3  A    between atoms: C_3  and  C_4
REMARK    4  A    between atoms: C_4  and  C_5
REMARK    5  A    between atoms: C_5  and  C_6
REMARK    6  A    between atoms: C_6  and  C_7
REMARK    7  A    between atoms: C_7  and  C_8
REMARK    8  A    between atoms: C_8  and  N_9
REMARK    9  A    between atoms: C_11  and  C_12
REMARK   10  A    between atoms: C_12  and  O_14
REMARK                            x       y       z     vdW  Elec       q    Type
REMARK                         _______ _______ _______ _____ _____    ______ ____
ROOT
ATOM      1  N   UNL     1       3.973   3.304  17.847  0.00  0.00    +0.000 N 
ATOM      2  C   UNL     1       4.245   4.041  16.711  0.00  0.00    +0.000 A 
ATOM      3  C   UNL     1       5.414   4.670  16.526  0.00  0.00    +0.000 A 
ATOM      4  C   UNL     1       6.412   4.569  17.605  0.00  0.00    +0.000 A 
ATOM      5  O   UNL     1       7.537   5.046  17.459  0.00  0.00    +0.000 OA
ATOM      6  N   UNL     1       6.033   3.924  18.744  0.00  0.00    +0.000 N 
ATOM      7  C   UNL     1       4.870   3.221  18.906  0.00  0.00    +0.000 A 
ATOM      8  O   UNL     1       4.686   2.559  19.925  0.00  0.00    +0.000 OA
ATOM      9  H   UNL     1       6.709   3.832  19.485  0.00  0.00    +0.000 HD
ENDROOT
BRANCH   3  10
ATOM     10  C   UNL     1       5.657   5.381  15.256  0.00  0.00    +0.000 C 
ATOM     11  O   UNL     1       5.296   6.532  15.055  0.00  0.00    +0.000 OA
BRANCH  10  12
ATOM     12  O   UNL     1       6.303   4.657  14.316  0.00  0.00    +0.000 OA
ATOM     13  H   UNL     1       7.267   4.853  14.228  0.00  0.00    +0.000 HD
ENDBRANCH  10  12
ENDBRANCH   3  10
BRANCH   1  14
ATOM     14  C   UNL     1       2.732   2.548  17.929  0.00  0.00    +0.000 C 
BRANCH  14  15
ATOM     15  C   UNL     1       1.532   3.425  18.286  0.00  0.00    +0.000 C 
BRANCH  15  16
ATOM     16  C   UNL     1       0.981   3.113  19.680  0.00  0.00    +0.000 C 
BRANCH  16  17
ATOM     17  C   UNL     1       1.255   4.240  20.674  0.00  0.00    +0.000 C 
BRANCH  17  18
ATOM     18  C   UNL     1       2.127   5.335  20.073  0.00  0.00    +0.000 C 
BRANCH  18  19
ATOM     19  C   UNL     1       1.647   6.703  20.554  0.00  0.00    +0.000 C 
BRANCH  19  21
ATOM     20  C   UNL     1       2.823   7.241  18.405  0.00  0.00    +0.000 C 
ATOM     21  C   UNL     1       1.970   7.791  19.536  0.00  0.00    +0.000 C 
ENDBRANCH  19  21
ENDBRANCH  18  19
ENDBRANCH  17  18
ENDBRANCH  16  17
ENDBRANCH  15  16
ENDBRANCH  14  15
ENDBRANCH   1  14
TORSDOF 9
ENDMDL
