MODEL 1
REMARK VINA RESULT:      -8.0      0.000      0.000
REMARK  Name = 
REMARK  7 active torsions:
REMARK  status: ('A' for Active; 'I' for Inactive)
REMARK    1  A    between atoms: C_1  and  O_2
REMARK    2  A    between atoms: O_2  and  C_3
REMARK    3  A    between atoms: C_6  and  C_7
REMARK    4  A    between atoms: C_7  and  O_8
REMARK    5  A    between atoms: C_15  and  C_16
REMARK    6  A    between atoms: C_17  and  C_18
REMARK    7  A    between atoms: C_21  and  C_22
REMARK                            x       y       z     vdW  Elec       q    Type
REMARK                         _______ _______ _______ _____ _____    ______ ____
ROOT
ATOM      1  C   UNL     1       3.915   4.589  18.167  0.00  0.00    +0.000 C 
ATOM      2  C   UNL     1       4.293   3.676  19.400  0.00  0.00    +0.000 C 
ATOM      3  O   UNL     1       5.384   3.260  19.757  0.00  0.00    +0.000 OA
ATOM      4  N   UNL     1       3.130   3.540  20.155  0.00  0.00    +0.000 N 
ATOM      5  C   UNL     1       2.397   4.723  19.942  0.00  0.00    +0.000 A 
ATOM      6  C   UNL     1       1.346   5.067  20.757  0.00  0.00    +0.000 A 
ATOM      7  C   UNL     1       0.948   6.387  20.721  0.00  0.00    +0.000 A 
ATOM      8  C   UNL     1       1.623   7.331  19.909  0.00  0.00    +0.000 A 
ATOM      9  C   UNL     1       2.585   6.889  18.935  0.00  0.00    +0.000 A 
ATOM     10  C   UNL     1       2.985   5.543  18.937  0.00  0.00    +0.000 A 
ATOM     11  H   UNL     1       2.578   2.727  19.897  0.00  0.00    +0.000 HD
ENDROOT
BRANCH   8  12
ATOM     12  C   UNL     1       1.362   8.736  20.255  0.00  0.00    +0.000 A 
ATOM     13  C   UNL     1       1.227   9.469  21.479  0.00  0.00    +0.000 A 
ATOM     14  C   UNL     1       1.226   9.009  22.872  0.00  0.00    +0.000 C 
ATOM     15  N   UNL     1       1.107  10.774  21.259  0.00  0.00    +0.000 NA
ATOM     16  O   UNL     1       1.147  10.950  19.902  0.00  0.00    +0.000 OA
ATOM     17  C   UNL     1       1.282   9.745  19.294  0.00  0.00    +0.000 A 
ATOM     18  C   UNL     1       1.304   9.814  17.815  0.00  0.00    +0.000 C 
ENDBRANCH   8  12
BRANCH   1  22
ATOM     19  C   UNL     1       6.961   5.162  15.054  0.00  0.00    +0.000 A 
ATOM     20  C   UNL     1       7.002   5.922  16.233  0.00  0.00    +0.000 A 
ATOM     21  C   UNL     1       6.084   5.740  17.298  0.00  0.00    +0.000 A 
ATOM     22  C   UNL     1       5.089   4.768  17.211  0.00  0.00    +0.000 A 
ATOM     23  C   UNL     1       5.065   4.021  15.982  0.00  0.00    +0.000 A 
ATOM     24  C   UNL     1       5.970   4.205  14.931  0.00  0.00    +0.000 A 
BRANCH  19  26
ATOM     25  C   UNL     1       7.601   5.052  12.757  0.00  0.00    +0.000 C 
ATOM     26  O   UNL     1       7.888   5.450  14.100  0.00  0.00    +0.000 OA
ENDBRANCH  19  26
ENDBRANCH   1  22
BRANCH   1  27
ATOM     27  O   UNL     1       2.981   3.767  17.387  0.00  0.00    +0.000 OA
ATOM     28  H   UNL     1       2.574   4.349  16.719  0.00  0.00    +0.000 HD
ENDBRANCH   1  27
TORSDOF 4
ENDMDL
MODEL 2
REMARK VINA RESULT:      -7.4      3.583      5.689
REMARK  Name = 
REMARK  7 active torsions:
REMARK  status: ('A' for Active; 'I' for Inactive)
REMARK    1  A    between atoms: C_1  and  O_2
REMARK    2  A    between atoms: O_2  and  C_3
REMARK    3  A    between atoms: C_6  and  C_7
REMARK    4  A    between atoms: C_7  and  O_8
REMARK    5  A    between atoms: C_15  and  C_16
REMARK    6  A    between atoms: C_17  and  C_18
REMARK    7  A    between atoms: C_21  and  C_22
REMARK                            x       y       z     vdW  Elec       q    Type
REMARK                         _______ _______ _______ _____ _____    ______ ____
ROOT
ATOM      1  C   UNL     1       6.147   6.082  16.972  0.00  0.00    +0.000 C 
ATOM      2  C   UNL     1       6.825   4.985  16.059  0.00  0.00    +0.000 C 
ATOM      3  O   UNL     1       8.008   4.739  15.882  0.00  0.00    +0.000 OA
ATOM      4  N   UNL     1       5.789   4.186  15.578  0.00  0.00    +0.000 N 
ATOM      5  C   UNL     1       4.789   4.221  16.567  0.00  0.00    +0.000 A 
ATOM      6  C   UNL     1       3.757   3.314  16.570  0.00  0.00    +0.000 A 
ATOM      7  C   UNL     1       3.064   3.177  17.755  0.00  0.00    +0.000 A 
ATOM      8  C   UNL     1       3.435   3.912  18.907  0.00  0.00    +0.000 A 
ATOM      9  C   UNL     1       4.391   4.983  18.804  0.00  0.00    +0.000 A 
ATOM     10  C   UNL     1       5.089   5.157  17.598  0.00  0.00    +0.000 A 
ATOM     11  H   UNL     1       5.420   4.504  14.685  0.00  0.00    +0.000 HD
ENDROOT
BRANCH   8  12
ATOM     12  C   UNL     1       2.887   3.394  20.169  0.00  0.00    +0.000 A 
ATOM     13  C   UNL     1       1.670   3.587  20.899  0.00  0.00    +0.000 A 
ATOM     14  C   UNL     1       0.536   4.484  20.646  0.00  0.00    +0.000 C 
ATOM     15  N   UNL     1       1.597   2.783  21.956  0.00  0.00    +0.000 NA
ATOM     16  O   UNL     1       2.752   2.048  21.969  0.00  0.00    +0.000 OA
ATOM     17  C   UNL     1       3.534   2.413  20.923  0.00  0.00    +0.000 A 
ATOM     18  C   UNL     1       4.829   1.699  20.859  0.00  0.00    +0.000 C 
ENDBRANCH   8  12
BRANCH   1  22
ATOM     19  C   UNL     1       8.702   9.247  18.630  0.00  0.00    +0.000 A 
ATOM     20  C   UNL     1       8.799   7.934  19.114  0.00  0.00    +0.000 A 
ATOM     21  C   UNL     1       8.046   6.859  18.577  0.00  0.00    +0.000 A 
ATOM     22  C   UNL     1       7.166   7.076  17.518  0.00  0.00    +0.000 A 
ATOM     23  C   UNL     1       7.078   8.437  17.060  0.00  0.00    +0.000 A 
ATOM     24  C   UNL     1       7.821   9.496  17.594  0.00  0.00    +0.000 A 
BRANCH  19  26
ATOM     25  C   UNL     1      10.031  11.221  18.431  0.00  0.00    +0.000 C 
ATOM     26  O   UNL     1       9.465  10.191  19.246  0.00  0.00    +0.000 OA
ENDBRANCH  19  26
ENDBRANCH   1  22
BRANCH   1  27
ATOM     27  O   UNL     1       5.368   6.897  16.033  0.00  0.00    +0.000 OA
ATOM     28  H   UNL     1       6.003   7.417  15.507  0.00  0.00    +0.000 HD
ENDBRANCH   1  27
TORSDOF 4
ENDMDL
MODEL 3
REMARK VINA RESULT:      -7.4      0.584      1.875
REMARK  Name = 
REMARK  7 active torsions:
REMARK  status: ('A' for Active; 'I' for Inactive)
REMARK    1  A    between atoms: C_1  and  O_2
REMARK    2  A    between atoms: O_2  and  C_3
REMARK    3  A    between atoms: C_6  and  C_7
REMARK    4  A    between atoms: C_7  and  O_8
REMARK    5  A    between atoms: C_15  and  C_16
REMARK    6  A    between atoms: C_17  and  C_18
REMARK    7  A    between atoms: C_21  and  C_22
REMARK                            x       y       z     vdW  Elec       q    Type
REMARK                         _______ _______ _______ _____ _____    ______ ____
ROOT
ATOM      1  C   UNL     1       3.806   4.841  17.947  0.00  0.00    +0.000 C 
ATOM      2  C   UNL     1       4.419   4.071  19.184  0.00  0.00    +0.000 C 
ATOM      3  O   UNL     1       5.571   3.727  19.395  0.00  0.00    +0.000 OA
ATOM      4  N   UNL     1       3.399   3.978  20.128  0.00  0.00    +0.000 N 
ATOM      5  C   UNL     1       2.587   5.110  19.926  0.00  0.00    +0.000 A 
ATOM      6  C   UNL     1       1.665   5.504  20.865  0.00  0.00    +0.000 A 
ATOM      7  C   UNL     1       1.206   6.801  20.768  0.00  0.00    +0.000 A 
ATOM      8  C   UNL     1       1.698   7.676  19.769  0.00  0.00    +0.000 A 
ATOM      9  C   UNL     1       2.511   7.166  18.698  0.00  0.00    +0.000 A 
ATOM     10  C   UNL     1       2.969   5.840  18.764  0.00  0.00    +0.000 A 
ATOM     11  H   UNL     1       2.851   3.126  20.044  0.00  0.00    +0.000 HD
ENDROOT
BRANCH   8  12
ATOM     12  C   UNL     1       1.431   9.101  20.017  0.00  0.00    +0.000 A 
ATOM     13  C   UNL     1       1.447  10.288  19.215  0.00  0.00    +0.000 A 
ATOM     14  C   UNL     1       1.837  10.489  17.815  0.00  0.00    +0.000 C 
ATOM     15  N   UNL     1       1.008  11.345  19.891  0.00  0.00    +0.000 NA
ATOM     16  O   UNL     1       0.701  10.904  21.151  0.00  0.00    +0.000 OA
ATOM     17  C   UNL     1       0.964   9.577  21.243  0.00  0.00    +0.000 A 
ATOM     18  C   UNL     1       0.696   9.000  22.580  0.00  0.00    +0.000 C 
ENDBRANCH   8  12
BRANCH   1  22
ATOM     19  C   UNL     1       7.026   5.215  14.984  0.00  0.00    +0.000 A 
ATOM     20  C   UNL     1       6.112   4.155  14.904  0.00  0.00    +0.000 A 
ATOM     21  C   UNL     1       5.016   4.015  15.793  0.00  0.00    +0.000 A 
ATOM     22  C   UNL     1       4.802   4.956  16.799  0.00  0.00    +0.000 A 
ATOM     23  C   UNL     1       5.769   6.019  16.863  0.00  0.00    +0.000 A 
ATOM     24  C   UNL     1       6.851   6.153  15.985  0.00  0.00    +0.000 A 
BRANCH  19  26
ATOM     25  C   UNL     1       7.704   5.125  12.696  0.00  0.00    +0.000 C 
ATOM     26  O   UNL     1       8.046   5.222  14.081  0.00  0.00    +0.000 OA
ENDBRANCH  19  26
ENDBRANCH   1  22
BRANCH   1  27
ATOM     27  O   UNL     1       2.799   3.916  17.413  0.00  0.00    +0.000 OA
ATOM     28  H   UNL     1       2.481   4.290  16.572  0.00  0.00    +0.000 HD
ENDBRANCH   1  27
TORSDOF 4
ENDMDL
MODEL 4
REMARK VINA RESULT:      -7.3      3.658      5.668
REMARK  Name = 
REMARK  7 active torsions:
REMARK  status: ('A' for Active; 'I' for Inactive)
REMARK    1  A    between atoms: C_1  and  O_2
REMARK    2  A    between atoms: O_2  and  C_3
REMARK    3  A    between atoms: C_6  and  C_7
REMARK    4  A    between atoms: C_7  and  O_8
REMARK    5  A    between atoms: C_15  and  C_16
REMARK    6  A    between atoms: C_17  and  C_18
REMARK    7  A    between atoms: C_21  and  C_22
REMARK                            x       y       z     vdW  Elec       q    Type
REMARK                         _______ _______ _______ _____ _____    ______ ____
ROOT
ATOM      1  C   UNL     1       6.083   6.081  16.957  0.00  0.00    +0.000 C 
ATOM      2  C   UNL     1       6.721   5.038  15.956  0.00  0.00    +0.000 C 
ATOM      3  O   UNL     1       7.895   4.807  15.712  0.00  0.00    +0.000 OA
ATOM      4  N   UNL     1       5.666   4.264  15.478  0.00  0.00    +0.000 N 
ATOM      5  C   UNL     1       4.711   4.240  16.511  0.00  0.00    +0.000 A 
ATOM      6  C   UNL     1       3.681   3.331  16.510  0.00  0.00    +0.000 A 
ATOM      7  C   UNL     1       3.041   3.127  17.715  0.00  0.00    +0.000 A 
ATOM      8  C   UNL     1       3.463   3.799  18.888  0.00  0.00    +0.000 A 
ATOM      9  C   UNL     1       4.412   4.877  18.802  0.00  0.00    +0.000 A 
ATOM     10  C   UNL     1       5.055   5.119  17.577  0.00  0.00    +0.000 A 
ATOM     11  H   UNL     1       5.257   4.628  14.621  0.00  0.00    +0.000 HD
ENDROOT
BRANCH   8  12
ATOM     12  C   UNL     1       2.972   3.210  20.143  0.00  0.00    +0.000 A 
ATOM     13  C   UNL     1       3.488   2.263  21.086  0.00  0.00    +0.000 A 
ATOM     14  C   UNL     1       4.718   1.464  21.061  0.00  0.00    +0.000 C 
ATOM     15  N   UNL     1       2.695   2.143  22.146  0.00  0.00    +0.000 NA
ATOM     16  O   UNL     1       1.636   2.986  21.941  0.00  0.00    +0.000 OA
ATOM     17  C   UNL     1       1.780   3.613  20.747  0.00  0.00    +0.000 A 
ATOM     18  C   UNL     1       0.668   4.529  20.408  0.00  0.00    +0.000 C 
ENDBRANCH   8  12
BRANCH   1  22
ATOM     19  C   UNL     1       8.709   9.174  18.640  0.00  0.00    +0.000 A 
ATOM     20  C   UNL     1       8.776   7.855  19.113  0.00  0.00    +0.000 A 
ATOM     21  C   UNL     1       7.999   6.802  18.568  0.00  0.00    +0.000 A 
ATOM     22  C   UNL     1       7.125   7.047  17.511  0.00  0.00    +0.000 A 
ATOM     23  C   UNL     1       7.068   8.413  17.064  0.00  0.00    +0.000 A 
ATOM     24  C   UNL     1       7.834   9.452  17.606  0.00  0.00    +0.000 A 
BRANCH  19  26
ATOM     25  C   UNL     1       9.724  11.335  18.589  0.00  0.00    +0.000 C 
ATOM     26  O   UNL     1       9.494  10.096  19.264  0.00  0.00    +0.000 OA
ENDBRANCH  19  26
ENDBRANCH   1  22
BRANCH   1  27
ATOM     27  O   UNL     1       5.262   6.944  16.099  0.00  0.00    +0.000 OA
ATOM     28  H   UNL     1       4.901   7.651  16.664  0.00  0.00    +0.000 HD
ENDBRANCH   1  27
TORSDOF 4
ENDMDL
MODEL 5
REMARK VINA RESULT:      -7.1      1.704      2.592
REMARK  Name = 
REMARK  7 active torsions:
REMARK  status: ('A' for Active; 'I' for Inactive)
REMARK    1  A    between atoms: C_1  and  O_2
REMARK    2  A    between atoms: O_2  and  C_3
REMARK    3  A    between atoms: C_6  and  C_7
REMARK    4  A    between atoms: C_7  and  O_8
REMARK    5  A    between atoms: C_15  and  C_16
REMARK    6  A    between atoms: C_17  and  C_18
REMARK    7  A    between atoms: C_21  and  C_22
REMARK                            x       y       z     vdW  Elec       q    Type
REMARK                         _______ _______ _______ _____ _____    ______ ____
ROOT
ATOM      1  C   UNL     1       2.932   5.931  18.411  0.00  0.00    +0.000 C 
ATOM      2  C   UNL     1       3.596   5.462  19.766  0.00  0.00    +0.000 C 
ATOM      3  O   UNL     1       4.737   5.085  19.987  0.00  0.00    +0.000 OA
ATOM      4  N   UNL     1       2.658   5.711  20.765  0.00  0.00    +0.000 N 
ATOM      5  C   UNL     1       1.910   6.817  20.320  0.00  0.00    +0.000 A 
ATOM      6  C   UNL     1       1.102   7.524  21.177  0.00  0.00    +0.000 A 
ATOM      7  C   UNL     1       0.725   8.785  20.765  0.00  0.00    +0.000 A 
ATOM      8  C   UNL     1       1.186   9.320  19.538  0.00  0.00    +0.000 A 
ATOM      9  C   UNL     1       1.868   8.477  18.592  0.00  0.00    +0.000 A 
ATOM     10  C   UNL     1       2.238   7.180  18.982  0.00  0.00    +0.000 A 
ATOM     11  H   UNL     1       2.048   4.918  20.949  0.00  0.00    +0.000 HD
ENDROOT
BRANCH   8  12
ATOM     12  C   UNL     1       1.039  10.778  19.410  0.00  0.00    +0.000 A 
ATOM     13  C   UNL     1       1.682  11.796  18.634  0.00  0.00    +0.000 A 
ATOM     14  C   UNL     1       2.822  11.718  17.714  0.00  0.00    +0.000 C 
ATOM     15  N   UNL     1       1.097  12.979  18.794  0.00  0.00    +0.000 NA
ATOM     16  O   UNL     1       0.068  12.792  19.678  0.00  0.00    +0.000 OA
ATOM     17  C   UNL     1       0.034  11.492  20.064  0.00  0.00    +0.000 A 
ATOM     18  C   UNL     1      -1.026  11.184  21.050  0.00  0.00    +0.000 C 
ENDBRANCH   8  12
BRANCH   1  22
ATOM     19  C   UNL     1       5.871   5.382  15.193  0.00  0.00    +0.000 A 
ATOM     20  C   UNL     1       5.187   4.277  15.722  0.00  0.00    +0.000 A 
ATOM     21  C   UNL     1       4.184   4.399  16.718  0.00  0.00    +0.000 A 
ATOM     22  C   UNL     1       3.831   5.653  17.211  0.00  0.00    +0.000 A 
ATOM     23  C   UNL     1       4.565   6.760  16.660  0.00  0.00    +0.000 A 
ATOM     24  C   UNL     1       5.556   6.637  15.679  0.00  0.00    +0.000 A 
BRANCH  19  26
ATOM     25  C   UNL     1       6.604   4.030  13.367  0.00  0.00    +0.000 C 
ATOM     26  O   UNL     1       6.826   5.127  14.256  0.00  0.00    +0.000 OA
ENDBRANCH  19  26
ENDBRANCH   1  22
BRANCH   1  27
ATOM     27  O   UNL     1       1.822   4.991  18.212  0.00  0.00    +0.000 OA
ATOM     28  H   UNL     1       2.187   4.206  17.765  0.00  0.00    +0.000 HD
ENDBRANCH   1  27
TORSDOF 4
ENDMDL
MODEL 6
REMARK VINA RESULT:      -7.0      1.840      2.518
REMARK  Name = 
REMARK  7 active torsions:
REMARK  status: ('A' for Active; 'I' for Inactive)
REMARK    1  A    between atoms: C_1  and  O_2
REMARK    2  A    between atoms: O_2  and  C_3
REMARK    3  A    between atoms: C_6  and  C_7
REMARK    4  A    between atoms: C_7  and  O_8
REMARK    5  A    between atoms: C_15  and  C_16
REMARK    6  A    between atoms: C_17  and  C_18
REMARK    7  A    between atoms: C_21  and  C_22
REMARK                            x       y       z     vdW  Elec       q    Type
REMARK                         _______ _______ _______ _____ _____    ______ ____
ROOT
ATOM      1  C   UNL     1       3.361   6.028  18.133  0.00  0.00    +0.000 C 
ATOM      2  C   UNL     1       3.974   5.694  19.551  0.00  0.00    +0.000 C 
ATOM      3  O   UNL     1       5.123   5.421  19.860  0.00  0.00    +0.000 OA
ATOM      4  N   UNL     1       2.960   5.929  20.477  0.00  0.00    +0.000 N 
ATOM      5  C   UNL     1       2.162   6.945  19.920  0.00  0.00    +0.000 A 
ATOM      6  C   UNL     1       1.252   7.637  20.682  0.00  0.00    +0.000 A 
ATOM      7  C   UNL     1       0.808   8.838  20.168  0.00  0.00    +0.000 A 
ATOM      8  C   UNL     1       1.303   9.332  18.937  0.00  0.00    +0.000 A 
ATOM      9  C   UNL     1       2.102   8.489  18.088  0.00  0.00    +0.000 A 
ATOM     10  C   UNL     1       2.543   7.251  18.582  0.00  0.00    +0.000 A 
ATOM     11  H   UNL     1       2.401   5.104  20.677  0.00  0.00    +0.000 HD
ENDROOT
BRANCH   8  12
ATOM     12  C   UNL     1       1.056  10.764  18.707  0.00  0.00    +0.000 A 
ATOM     13  C   UNL     1       1.868  11.883  18.330  0.00  0.00    +0.000 A 
ATOM     14  C   UNL     1       3.316  11.984  18.116  0.00  0.00    +0.000 C 
ATOM     15  N   UNL     1       1.137  12.976  18.136  0.00  0.00    +0.000 NA
ATOM     16  O   UNL     1      -0.164  12.629  18.384  0.00  0.00    +0.000 OA
ATOM     17  C   UNL     1      -0.223  11.321  18.741  0.00  0.00    +0.000 A 
ATOM     18  C   UNL     1      -1.587  10.845  19.064  0.00  0.00    +0.000 C 
ENDBRANCH   8  12
BRANCH   1  22
ATOM     19  C   UNL     1       5.895   4.871  14.737  0.00  0.00    +0.000 A 
ATOM     20  C   UNL     1       5.548   6.216  14.934  0.00  0.00    +0.000 A 
ATOM     21  C   UNL     1       4.785   6.658  16.045  0.00  0.00    +0.000 A 
ATOM     22  C   UNL     1       4.350   5.748  17.006  0.00  0.00    +0.000 A 
ATOM     23  C   UNL     1       4.708   4.376  16.762  0.00  0.00    +0.000 A 
ATOM     24  C   UNL     1       5.459   3.943  15.663  0.00  0.00    +0.000 A 
BRANCH  19  26
ATOM     25  C   UNL     1       6.086   3.586  12.733  0.00  0.00    +0.000 C 
ATOM     26  O   UNL     1       6.615   4.576  13.619  0.00  0.00    +0.000 OA
ENDBRANCH  19  26
ENDBRANCH   1  22
BRANCH   1  27
ATOM     27  O   UNL     1       2.338   4.994  17.933  0.00  0.00    +0.000 OA
ATOM     28  H   UNL     1       2.168   4.585  18.801  0.00  0.00    +0.000 HD
ENDBRANCH   1  27
TORSDOF 4
ENDMDL
MODEL 7
REMARK VINA RESULT:      -7.0      2.713      8.743
REMARK  Name = 
REMARK  7 active torsions:
REMARK  status: ('A' for Active; 'I' for Inactive)
REMARK    1  A    between atoms: C_1  and  O_2
REMARK    2  A    between atoms: O_2  and  C_3
REMARK    3  A    between atoms: C_6  and  C_7
REMARK    4  A    between atoms: C_7  and  O_8
REMARK    5  A    between atoms: C_15  and  C_16
REMARK    6  A    between atoms: C_17  and  C_18
REMARK    7  A    between atoms: C_21  and  C_22
REMARK                            x       y       z     vdW  Elec       q    Type
REMARK                         _______ _______ _______ _____ _____    ______ ____
ROOT
ATOM      1  C   UNL     1       0.545  10.261  19.536  0.00  0.00    +0.000 C 
ATOM      2  C   UNL     1       1.614  11.295  19.002  0.00  0.00    +0.000 C 
ATOM      3  O   UNL     1       2.037  12.318  19.517  0.00  0.00    +0.000 OA
ATOM      4  N   UNL     1       2.150  10.735  17.843  0.00  0.00    +0.000 N 
ATOM      5  C   UNL     1       2.072   9.342  18.021  0.00  0.00    +0.000 A 
ATOM      6  C   UNL     1       2.778   8.479  17.218  0.00  0.00    +0.000 A 
ATOM      7  C   UNL     1       2.947   7.196  17.694  0.00  0.00    +0.000 A 
ATOM      8  C   UNL     1       2.445   6.816  18.963  0.00  0.00    +0.000 A 
ATOM      9  C   UNL     1       1.553   7.690  19.678  0.00  0.00    +0.000 A 
ATOM     10  C   UNL     1       1.346   8.992  19.196  0.00  0.00    +0.000 A 
ATOM     11  H   UNL     1       1.659  11.016  16.999  0.00  0.00    +0.000 HD
ENDROOT
BRANCH   8  12
ATOM     12  C   UNL     1       3.022   5.577  19.505  0.00  0.00    +0.000 A 
ATOM     13  C   UNL     1       2.498   4.428  20.182  0.00  0.00    +0.000 A 
ATOM     14  C   UNL     1       1.140   4.135  20.654  0.00  0.00    +0.000 C 
ATOM     15  N   UNL     1       3.430   3.500  20.370  0.00  0.00    +0.000 NA
ATOM     16  O   UNL     1       4.591   3.997  19.841  0.00  0.00    +0.000 OA
ATOM     17  C   UNL     1       4.365   5.237  19.339  0.00  0.00    +0.000 A 
ATOM     18  C   UNL     1       5.567   5.885  18.768  0.00  0.00    +0.000 C 
ENDBRANCH   8  12
BRANCH   1  22
ATOM     19  C   UNL     1      -1.951  11.699  22.852  0.00  0.00    +0.000 A 
ATOM     20  C   UNL     1      -1.013  10.677  23.064  0.00  0.00    +0.000 A 
ATOM     21  C   UNL     1      -0.138  10.215  22.050  0.00  0.00    +0.000 A 
ATOM     22  C   UNL     1      -0.176  10.779  20.776  0.00  0.00    +0.000 A 
ATOM     23  C   UNL     1      -1.161  11.810  20.589  0.00  0.00    +0.000 A 
ATOM     24  C   UNL     1      -2.026  12.263  21.592  0.00  0.00    +0.000 A 
BRANCH  19  26
ATOM     25  C   UNL     1      -3.982  12.695  23.617  0.00  0.00    +0.000 C 
ATOM     26  O   UNL     1      -2.746  12.037  23.905  0.00  0.00    +0.000 OA
ENDBRANCH  19  26
ENDBRANCH   1  22
BRANCH   1  27
ATOM     27  O   UNL     1      -0.509  10.277  18.516  0.00  0.00    +0.000 OA
ATOM     28  H   UNL     1      -1.052   9.480  18.650  0.00  0.00    +0.000 HD
ENDBRANCH   1  27
TORSDOF 4
ENDMDL
MODEL 8
REMARK VINA RESULT:      -7.0      1.748      2.321
REMARK  Name = 
REMARK  7 active torsions:
REMARK  status: ('A' for Active; 'I' for Inactive)
REMARK    1  A    between atoms: C_1  and  O_2
REMARK    2  A    between atoms: O_2  and  C_3
REMARK    3  A    between atoms: C_6  and  C_7
REMARK    4  A    between atoms: C_7  and  O_8
REMARK    5  A    between atoms: C_15  and  C_16
REMARK    6  A    between atoms: C_17  and  C_18
REMARK    7  A    between atoms: C_21  and  C_22
REMARK                            x       y       z     vdW  Elec       q    Type
REMARK                         _______ _______ _______ _____ _____    ______ ____
ROOT
ATOM      1  C   UNL     1       3.014   5.862  18.359  0.00  0.00    +0.000 C 
ATOM      2  C   UNL     1       3.807   5.609  19.702  0.00  0.00    +0.000 C 
ATOM      3  O   UNL     1       4.999   5.412  19.878  0.00  0.00    +0.000 OA
ATOM      4  N   UNL     1       2.896   5.814  20.736  0.00  0.00    +0.000 N 
ATOM      5  C   UNL     1       1.978   6.765  20.253  0.00  0.00    +0.000 A 
ATOM      6  C   UNL     1       1.124   7.427  21.100  0.00  0.00    +0.000 A 
ATOM      7  C   UNL     1       0.551   8.584  20.614  0.00  0.00    +0.000 A 
ATOM      8  C   UNL     1       0.868   9.067  19.322  0.00  0.00    +0.000 A 
ATOM      9  C   UNL     1       1.611   8.245  18.404  0.00  0.00    +0.000 A 
ATOM     10  C   UNL     1       2.181   7.050  18.872  0.00  0.00    +0.000 A 
ATOM     11  H   UNL     1       2.416   4.965  21.021  0.00  0.00    +0.000 HD
ENDROOT
BRANCH   8  12
ATOM     12  C   UNL     1       0.510  10.475  19.088  0.00  0.00    +0.000 A 
ATOM     13  C   UNL     1       1.042  11.737  19.506  0.00  0.00    +0.000 A 
ATOM     14  C   UNL     1       2.141  12.053  20.426  0.00  0.00    +0.000 C 
ATOM     15  N   UNL     1       0.418  12.753  18.918  0.00  0.00    +0.000 NA
ATOM     16  O   UNL     1      -0.544  12.208  18.110  0.00  0.00    +0.000 OA
ATOM     17  C   UNL     1      -0.510  10.856  18.215  0.00  0.00    +0.000 A 
ATOM     18  C   UNL     1      -1.536  10.162  17.403  0.00  0.00    +0.000 C 
ENDBRANCH   8  12
BRANCH   1  22
ATOM     19  C   UNL     1       5.860   5.374  15.049  0.00  0.00    +0.000 A 
ATOM     20  C   UNL     1       5.204   4.258  15.588  0.00  0.00    +0.000 A 
ATOM     21  C   UNL     1       4.230   4.359  16.614  0.00  0.00    +0.000 A 
ATOM     22  C   UNL     1       3.878   5.605  17.130  0.00  0.00    +0.000 A 
ATOM     23  C   UNL     1       4.584   6.725  16.567  0.00  0.00    +0.000 A 
ATOM     24  C   UNL     1       5.547   6.622  15.557  0.00  0.00    +0.000 A 
BRANCH  19  26
ATOM     25  C   UNL     1       6.609   3.983  13.259  0.00  0.00    +0.000 C 
ATOM     26  O   UNL     1       6.789   5.139  14.082  0.00  0.00    +0.000 OA
ENDBRANCH  19  26
ENDBRANCH   1  22
BRANCH   1  27
ATOM     27  O   UNL     1       2.039   4.766  18.307  0.00  0.00    +0.000 OA
ATOM     28  H   UNL     1       1.946   4.420  19.213  0.00  0.00    +0.000 HD
ENDBRANCH   1  27
TORSDOF 4
ENDMDL
MODEL 9
REMARK VINA RESULT:      -6.9      1.617      2.152
REMARK  Name = 
REMARK  7 active torsions:
REMARK  status: ('A' for Active; 'I' for Inactive)
REMARK    1  A    between atoms: C_1  and  O_2
REMARK    2  A    between atoms: O_2  and  C_3
REMARK    3  A    between atoms: C_6  and  C_7
REMARK    4  A    between atoms: C_7  and  O_8
REMARK    5  A    between atoms: C_15  and  C_16
REMARK    6  A    between atoms: C_17  and  C_18
REMARK    7  A    between atoms: C_21  and  C_22
REMARK                            x       y       z     vdW  Elec       q    Type
REMARK                         _______ _______ _______ _____ _____    ______ ____
ROOT
ATOM      1  C   UNL     1       2.878   5.887  18.543  0.00  0.00    +0.000 C 
ATOM      2  C   UNL     1       3.547   5.376  19.881  0.00  0.00    +0.000 C 
ATOM      3  O   UNL     1       4.690   5.000  20.088  0.00  0.00    +0.000 OA
ATOM      4  N   UNL     1       2.607   5.584  20.889  0.00  0.00    +0.000 N 
ATOM      5  C   UNL     1       1.852   6.700  20.482  0.00  0.00    +0.000 A 
ATOM      6  C   UNL     1       1.039   7.370  21.363  0.00  0.00    +0.000 A 
ATOM      7  C   UNL     1       0.652   8.642  20.995  0.00  0.00    +0.000 A 
ATOM      8  C   UNL     1       1.109   9.223  19.787  0.00  0.00    +0.000 A 
ATOM      9  C   UNL     1       1.796   8.418  18.812  0.00  0.00    +0.000 A 
ATOM     10  C   UNL     1       2.176   7.111  19.157  0.00  0.00    +0.000 A 
ATOM     11  H   UNL     1       2.003   4.781  21.045  0.00  0.00    +0.000 HD
ENDROOT
BRANCH   8  12
ATOM     12  C   UNL     1       0.952  10.683  19.710  0.00  0.00    +0.000 A 
ATOM     13  C   UNL     1       0.231  11.665  20.464  0.00  0.00    +0.000 A 
ATOM     14  C   UNL     1      -0.708  11.511  21.581  0.00  0.00    +0.000 C 
ATOM     15  N   UNL     1       0.510  12.899  20.058  0.00  0.00    +0.000 NA
ATOM     16  O   UNL     1       1.405  12.781  19.029  0.00  0.00    +0.000 OA
ATOM     17  C   UNL     1       1.663  11.469  18.802  0.00  0.00    +0.000 A 
ATOM     18  C   UNL     1       2.599  11.223  17.682  0.00  0.00    +0.000 C 
ENDBRANCH   8  12
BRANCH   1  22
ATOM     19  C   UNL     1       5.823   5.460  15.312  0.00  0.00    +0.000 A 
ATOM     20  C   UNL     1       5.124   4.339  15.785  0.00  0.00    +0.000 A 
ATOM     21  C   UNL     1       4.119   4.424  16.781  0.00  0.00    +0.000 A 
ATOM     22  C   UNL     1       3.778   5.657  17.334  0.00  0.00    +0.000 A 
ATOM     23  C   UNL     1       4.527   6.781  16.840  0.00  0.00    +0.000 A 
ATOM     24  C   UNL     1       5.521   6.694  15.858  0.00  0.00    +0.000 A 
BRANCH  19  26
ATOM     25  C   UNL     1       6.613   4.106  13.511  0.00  0.00    +0.000 C 
ATOM     26  O   UNL     1       6.778   5.240  14.367  0.00  0.00    +0.000 OA
ENDBRANCH  19  26
ENDBRANCH   1  22
BRANCH   1  27
ATOM     27  O   UNL     1       1.775   4.947  18.313  0.00  0.00    +0.000 OA
ATOM     28  H   UNL     1       2.020   4.105  18.738  0.00  0.00    +0.000 HD
ENDBRANCH   1  27
TORSDOF 4
ENDMDL
