MODEL 1
REMARK VINA RESULT:      -8.6      0.000      0.000
REMARK  Name = 
REMARK  11 active torsions:
REMARK  status: ('A' for Active; 'I' for Inactive)
REMARK    1  A    between atoms: C_1  and  C_2
REMARK    2  A    between atoms: C_5  and  O_6
REMARK    3  A    between atoms: O_6  and  C_7
REMARK    4  A    between atoms: C_10  and  N_11
REMARK    5  A    between atoms: N_11  and  C_12
REMARK    6  A    between atoms: N_11  and  S_24
REMARK    7  A    between atoms: C_12  and  C_13
REMARK    8  A    between atoms: C_13  and  C_14
REMARK    9  A    between atoms: C_13  and  N_18
REMARK   10  A    between atoms: N_16  and  O_17
REMARK   11  A    between atoms: S_24  and  C_25
REMARK                            x       y       z     vdW  Elec       q    Type
REMARK                         _______ _______ _______ _____ _____    ______ ____
ROOT
ATOM      1  N   UNL     1       2.751   5.861  19.555  0.00  0.00    +0.000 N 
ENDROOT
BRANCH   1   5
ATOM      2  C   UNL     1       1.090   9.685  18.855  0.00  0.00    +0.000 A 
ATOM      3  C   UNL     1       1.079   9.133  20.138  0.00  0.00    +0.000 A 
ATOM      4  C   UNL     1       1.676   7.891  20.383  0.00  0.00    +0.000 A 
ATOM      5  C   UNL     1       2.289   7.194  19.340  0.00  0.00    +0.000 A 
ATOM      6  C   UNL     1       2.316   7.750  18.060  0.00  0.00    +0.000 A 
ATOM      7  C   UNL     1       1.692   8.973  17.810  0.00  0.00    +0.000 A 
BRANCH   2   8
ATOM      8  O   UNL     1       0.397  10.863  18.688  0.00  0.00    +0.000 OA
BRANCH   8  13
ATOM      9  C   UNL     1      -5.192  11.190  17.690  0.00  0.00    +0.000 C 
ATOM     10  C   UNL     1      -3.726  11.066  17.983  0.00  0.00    +0.000 A 
ATOM     11  C   UNL     1      -3.098  11.890  18.923  0.00  0.00    +0.000 A 
ATOM     12  C   UNL     1      -1.721  11.783  19.151  0.00  0.00    +0.000 A 
ATOM     13  C   UNL     1      -0.959  10.850  18.442  0.00  0.00    +0.000 A 
ATOM     14  C   UNL     1      -1.578  10.046  17.483  0.00  0.00    +0.000 A 
ATOM     15  C   UNL     1      -2.955  10.135  17.275  0.00  0.00    +0.000 A 
ENDBRANCH   8  13
ENDBRANCH   2   8
ENDBRANCH   1   5
BRANCH   1  16
ATOM     16  S   UNL     1       1.630   4.713  20.100  0.00  0.00    +0.000 S 
ATOM     17  C   UNL     1       2.473   3.978  21.484  0.00  0.00    +0.000 C 
ATOM     18  O   UNL     1       0.483   5.421  20.629  0.00  0.00    +0.000 OA
ATOM     19  O   UNL     1       1.457   3.686  19.097  0.00  0.00    +0.000 OA
ENDBRANCH   1  16
BRANCH   1  20
ATOM     20  C   UNL     1       4.146   5.458  19.241  0.00  0.00    +0.000 C 
BRANCH  20  21
ATOM     21  C   UNL     1       4.255   4.443  18.077  0.00  0.00    +0.000 C 
BRANCH  21  22
ATOM     22  N   UNL     1       5.079   4.855  16.909  0.00  0.00    +0.000 NA
ATOM     23  C   UNL     1       6.409   4.213  16.847  0.00  0.00    +0.000 C 
ATOM     24  C   UNL     1       7.525   4.964  17.596  0.00  0.00    +0.000 C 
ATOM     25  O   UNL     1       7.608   6.328  17.168  0.00  0.00    +0.000 OA
ATOM     26  C   UNL     1       6.360   7.002  17.344  0.00  0.00    +0.000 C 
ATOM     27  C   UNL     1       5.220   6.284  16.597  0.00  0.00    +0.000 C 
ENDBRANCH  21  22
BRANCH  21  28
ATOM     28  C   UNL     1       4.548   3.034  18.611  0.00  0.00    +0.000 C 
ATOM     29  O   UNL     1       5.211   2.852  19.637  0.00  0.00    +0.000 OA
ATOM     30  N   UNL     1       4.036   1.967  17.912  0.00  0.00    +0.000 N 
ATOM     31  H   UNL     1       3.250   2.027  17.272  0.00  0.00    +0.000 HD
BRANCH  30  32
ATOM     32  O   UNL     1       4.229   0.705  18.525  0.00  0.00    +0.000 OA
ATOM     33  H   UNL     1       4.992   0.333  18.027  0.00  0.00    +0.000 HD
ENDBRANCH  30  32
ENDBRANCH  21  28
ENDBRANCH  20  21
ENDBRANCH   1  20
TORSDOF 9
ENDMDL
MODEL 2
REMARK VINA RESULT:      -8.5      0.896      1.403
REMARK  Name = 
REMARK  11 active torsions:
REMARK  status: ('A' for Active; 'I' for Inactive)
REMARK    1  A    between atoms: C_1  and  C_2
REMARK    2  A    between atoms: C_5  and  O_6
REMARK    3  A    between atoms: O_6  and  C_7
REMARK    4  A    between atoms: C_10  and  N_11
REMARK    5  A    between atoms: N_11  and  C_12
REMARK    6  A    between atoms: N_11  and  S_24
REMARK    7  A    between atoms: C_12  and  C_13
REMARK    8  A    between atoms: C_13  and  C_14
REMARK    9  A    between atoms: C_13  and  N_18
REMARK   10  A    between atoms: N_16  and  O_17
REMARK   11  A    between atoms: S_24  and  C_25
REMARK                            x       y       z     vdW  Elec       q    Type
REMARK                         _______ _______ _______ _____ _____    ______ ____
ROOT
ATOM      1  N   UNL     1       2.826   5.974  19.595  0.00  0.00    +0.000 N 
ENDROOT
BRANCH   1   5
ATOM      2  C   UNL     1       1.242   9.802  18.753  0.00  0.00    +0.000 A 
ATOM      3  C   UNL     1       1.185   9.282  20.049  0.00  0.00    +0.000 A 
ATOM      4  C   UNL     1       1.756   8.038  20.341  0.00  0.00    +0.000 A 
ATOM      5  C   UNL     1       2.390   7.308  19.334  0.00  0.00    +0.000 A 
ATOM      6  C   UNL     1       2.464   7.831  18.043  0.00  0.00    +0.000 A 
ATOM      7  C   UNL     1       1.864   9.057  17.744  0.00  0.00    +0.000 A 
BRANCH   2   8
ATOM      8  O   UNL     1       0.571  10.985  18.537  0.00  0.00    +0.000 OA
BRANCH   8  13
ATOM      9  C   UNL     1      -5.072  10.650  17.923  0.00  0.00    +0.000 C 
ATOM     10  C   UNL     1      -3.583  10.774  18.053  0.00  0.00    +0.000 A 
ATOM     11  C   UNL     1      -2.718   9.910  17.374  0.00  0.00    +0.000 A 
ATOM     12  C   UNL     1      -1.333  10.020  17.540  0.00  0.00    +0.000 A 
ATOM     13  C   UNL     1      -0.799  10.996  18.387  0.00  0.00    +0.000 A 
ATOM     14  C   UNL     1      -1.662  11.842  19.087  0.00  0.00    +0.000 A 
ATOM     15  C   UNL     1      -3.041  11.748  18.901  0.00  0.00    +0.000 A 
ENDBRANCH   8  13
ENDBRANCH   2   8
ENDBRANCH   1   5
BRANCH   1  16
ATOM     16  S   UNL     1       1.737   4.918  20.350  0.00  0.00    +0.000 S 
ATOM     17  C   UNL     1       1.127   3.953  18.985  0.00  0.00    +0.000 C 
ATOM     18  O   UNL     1       2.495   4.023  21.199  0.00  0.00    +0.000 OA
ATOM     19  O   UNL     1       0.625   5.669  20.888  0.00  0.00    +0.000 OA
ENDBRANCH   1  16
BRANCH   1  20
ATOM     20  C   UNL     1       4.160   5.489  19.155  0.00  0.00    +0.000 C 
BRANCH  20  21
ATOM     21  C   UNL     1       4.105   4.535  17.937  0.00  0.00    +0.000 C 
BRANCH  21  22
ATOM     22  N   UNL     1       4.902   4.930  16.745  0.00  0.00    +0.000 NA
ATOM     23  C   UNL     1       6.137   4.142  16.548  0.00  0.00    +0.000 C 
ATOM     24  C   UNL     1       7.380   4.698  17.267  0.00  0.00    +0.000 C 
ATOM     25  O   UNL     1       7.604   6.070  16.923  0.00  0.00    +0.000 OA
ATOM     26  C   UNL     1       6.461   6.873  17.230  0.00  0.00    +0.000 C 
ATOM     27  C   UNL     1       5.198   6.352  16.517  0.00  0.00    +0.000 C 
ENDBRANCH  21  22
BRANCH  21  28
ATOM     28  C   UNL     1       4.287   3.077  18.381  0.00  0.00    +0.000 C 
ATOM     29  O   UNL     1       3.874   2.133  17.701  0.00  0.00    +0.000 OA
ATOM     30  N   UNL     1       4.942   2.849  19.568  0.00  0.00    +0.000 N 
ATOM     31  H   UNL     1       5.568   3.512  20.012  0.00  0.00    +0.000 HD
BRANCH  30  32
ATOM     32  O   UNL     1       5.194   1.484  19.857  0.00  0.00    +0.000 OA
ATOM     33  H   UNL     1       5.484   1.126  18.988  0.00  0.00    +0.000 HD
ENDBRANCH  30  32
ENDBRANCH  21  28
ENDBRANCH  20  21
ENDBRANCH   1  20
TORSDOF 9
ENDMDL
MODEL 3
REMARK VINA RESULT:      -8.4      1.612      2.582
REMARK  Name = 
REMARK  11 active torsions:
REMARK  status: ('A' for Active; 'I' for Inactive)
REMARK    1  A    between atoms: C_1  and  C_2
REMARK    2  A    between atoms: C_5  and  O_6
REMARK    3  A    between atoms: O_6  and  C_7
REMARK    4  A    between atoms: C_10  and  N_11
REMARK    5  A    between atoms: N_11  and  C_12
REMARK    6  A    between atoms: N_11  and  S_24
REMARK    7  A    between atoms: C_12  and  C_13
REMARK    8  A    between atoms: C_13  and  C_14
REMARK    9  A    between atoms: C_13  and  N_18
REMARK   10  A    between atoms: N_16  and  O_17
REMARK   11  A    between atoms: S_24  and  C_25
REMARK                            x       y       z     vdW  Elec       q    Type
REMARK                         _______ _______ _______ _____ _____    ______ ____
ROOT
ATOM      1  N   UNL     1       3.021   4.889  19.021  0.00  0.00    +0.000 N 
ENDROOT
BRANCH   1   5
ATOM      2  C   UNL     1       1.598   8.867  19.173  0.00  0.00    +0.000 A 
ATOM      3  C   UNL     1       2.100   8.341  17.980  0.00  0.00    +0.000 A 
ATOM      4  C   UNL     1       2.522   7.007  17.914  0.00  0.00    +0.000 A 
ATOM      5  C   UNL     1       2.441   6.194  19.046  0.00  0.00    +0.000 A 
ATOM      6  C   UNL     1       1.925   6.712  20.234  0.00  0.00    +0.000 A 
ATOM      7  C   UNL     1       1.535   8.051  20.308  0.00  0.00    +0.000 A 
BRANCH   2   8
ATOM      8  O   UNL     1       1.296  10.210  19.170  0.00  0.00    +0.000 OA
BRANCH   8  13
ATOM      9  C   UNL     1      -4.137  11.609  18.240  0.00  0.00    +0.000 C 
ATOM     10  C   UNL     1      -2.690  11.281  18.461  0.00  0.00    +0.000 A 
ATOM     11  C   UNL     1      -2.020  10.357  17.652  0.00  0.00    +0.000 A 
ATOM     12  C   UNL     1      -0.681  10.037  17.901  0.00  0.00    +0.000 A 
ATOM     13  C   UNL     1       0.002  10.638  18.963  0.00  0.00    +0.000 A 
ATOM     14  C   UNL     1      -0.673  11.538  19.790  0.00  0.00    +0.000 A 
ATOM     15  C   UNL     1      -2.000  11.876  19.525  0.00  0.00    +0.000 A 
ENDBRANCH   8  13
ENDBRANCH   2   8
ENDBRANCH   1   5
BRANCH   1  16
ATOM     16  S   UNL     1       2.071   3.611  18.444  0.00  0.00    +0.000 S 
ATOM     17  C   UNL     1       0.990   3.283  19.819  0.00  0.00    +0.000 C 
ATOM     18  O   UNL     1       1.247   4.116  17.366  0.00  0.00    +0.000 OA
ATOM     19  O   UNL     1       2.897   2.441  18.247  0.00  0.00    +0.000 OA
ENDBRANCH   1  16
BRANCH   1  20
ATOM     20  C   UNL     1       4.435   4.657  19.412  0.00  0.00    +0.000 C 
BRANCH  20  21
ATOM     21  C   UNL     1       5.392   4.472  18.209  0.00  0.00    +0.000 C 
BRANCH  21  22
ATOM     22  N   UNL     1       5.021   5.169  16.949  0.00  0.00    +0.000 NA
ATOM     23  C   UNL     1       4.895   4.280  15.775  0.00  0.00    +0.000 C 
ATOM     24  C   UNL     1       6.200   4.060  14.988  0.00  0.00    +0.000 C 
ATOM     25  O   UNL     1       6.790   5.308  14.607  0.00  0.00    +0.000 OA
ATOM     26  C   UNL     1       7.040   6.131  15.750  0.00  0.00    +0.000 C 
ATOM     27  C   UNL     1       5.752   6.383  16.557  0.00  0.00    +0.000 C 
ENDBRANCH  21  22
BRANCH  21  28
ATOM     28  C   UNL     1       6.852   4.657  18.644  0.00  0.00    +0.000 C 
ATOM     29  O   UNL     1       7.790   4.175  18.001  0.00  0.00    +0.000 OA
ATOM     30  N   UNL     1       7.091   5.395  19.779  0.00  0.00    +0.000 N 
ATOM     31  H   UNL     1       6.440   6.066  20.173  0.00  0.00    +0.000 HD
BRANCH  30  32
ATOM     32  O   UNL     1       8.460   5.640  20.054  0.00  0.00    +0.000 OA
ATOM     33  H   UNL     1       8.861   5.672  19.156  0.00  0.00    +0.000 HD
ENDBRANCH  30  32
ENDBRANCH  21  28
ENDBRANCH  20  21
ENDBRANCH   1  20
TORSDOF 9
ENDMDL
MODEL 4
REMARK VINA RESULT:      -8.4      0.938      1.870
REMARK  Name = 
REMARK  11 active torsions:
REMARK  status: ('A' for Active; 'I' for Inactive)
REMARK    1  A    between atoms: C_1  and  C_2
REMARK    2  A    between atoms: C_5  and  O_6
REMARK    3  A    between atoms: O_6  and  C_7
REMARK    4  A    between atoms: C_10  and  N_11
REMARK    5  A    between atoms: N_11  and  C_12
REMARK    6  A    between atoms: N_11  and  S_24
REMARK    7  A    between atoms: C_12  and  C_13
REMARK    8  A    between atoms: C_13  and  C_14
REMARK    9  A    between atoms: C_13  and  N_18
REMARK   10  A    between atoms: N_16  and  O_17
REMARK   11  A    between atoms: S_24  and  C_25
REMARK                            x       y       z     vdW  Elec       q    Type
REMARK                         _______ _______ _______ _____ _____    ______ ____
ROOT
ATOM      1  N   UNL     1       2.695   5.563  19.777  0.00  0.00    +0.000 N 
ENDROOT
BRANCH   1   5
ATOM      2  C   UNL     1       1.282   9.461  18.955  0.00  0.00    +0.000 A 
ATOM      3  C   UNL     1       1.770   8.654  17.924  0.00  0.00    +0.000 A 
ATOM      4  C   UNL     1       2.189   7.344  18.186  0.00  0.00    +0.000 A 
ATOM      5  C   UNL     1       2.118   6.835  19.484  0.00  0.00    +0.000 A 
ATOM      6  C   UNL     1       1.616   7.633  20.512  0.00  0.00    +0.000 A 
ATOM      7  C   UNL     1       1.229   8.951  20.257  0.00  0.00    +0.000 A 
BRANCH   2   8
ATOM      8  O   UNL     1       0.983  10.764  18.624  0.00  0.00    +0.000 OA
BRANCH   8  13
ATOM      9  C   UNL     1      -4.370  12.486  19.474  0.00  0.00    +0.000 C 
ATOM     10  C   UNL     1      -2.951  12.071  19.221  0.00  0.00    +0.000 A 
ATOM     11  C   UNL     1      -2.636  11.092  18.272  0.00  0.00    +0.000 A 
ATOM     12  C   UNL     1      -1.308  10.692  18.081  0.00  0.00    +0.000 A 
ATOM     13  C   UNL     1      -0.283  11.268  18.836  0.00  0.00    +0.000 A 
ATOM     14  C   UNL     1      -0.597  12.224  19.804  0.00  0.00    +0.000 A 
ATOM     15  C   UNL     1      -1.918  12.641  19.976  0.00  0.00    +0.000 A 
ENDBRANCH   8  13
ENDBRANCH   2   8
ENDBRANCH   1   5
BRANCH   1  16
ATOM     16  S   UNL     1       1.646   4.257  20.030  0.00  0.00    +0.000 S 
ATOM     17  C   UNL     1       2.405   3.413  21.400  0.00  0.00    +0.000 C 
ATOM     18  O   UNL     1       0.382   4.782  20.502  0.00  0.00    +0.000 OA
ATOM     19  O   UNL     1       1.689   3.369  18.890  0.00  0.00    +0.000 OA
ENDBRANCH   1  16
BRANCH   1  20
ATOM     20  C   UNL     1       4.166   5.357  19.785  0.00  0.00    +0.000 C 
BRANCH  20  21
ATOM     21  C   UNL     1       4.701   4.629  18.527  0.00  0.00    +0.000 C 
BRANCH  21  22
ATOM     22  N   UNL     1       5.905   5.215  17.880  0.00  0.00    +0.000 NA
ATOM     23  C   UNL     1       5.681   6.538  17.260  0.00  0.00    +0.000 C 
ATOM     24  C   UNL     1       5.209   6.494  15.795  0.00  0.00    +0.000 C 
ATOM     25  O   UNL     1       6.096   5.710  14.990  0.00  0.00    +0.000 OA
ATOM     26  C   UNL     1       6.222   4.382  15.504  0.00  0.00    +0.000 C 
ATOM     27  C   UNL     1       6.705   4.385  16.967  0.00  0.00    +0.000 C 
ENDBRANCH  21  22
BRANCH  21  28
ATOM     28  C   UNL     1       4.767   3.114  18.764  0.00  0.00    +0.000 C 
ATOM     29  O   UNL     1       5.268   2.636  19.787  0.00  0.00    +0.000 OA
ATOM     30  N   UNL     1       4.236   2.293  17.797  0.00  0.00    +0.000 N 
ATOM     31  H   UNL     1       3.551   2.589  17.110  0.00  0.00    +0.000 HD
BRANCH  30  32
ATOM     32  O   UNL     1       4.209   0.917  18.133  0.00  0.00    +0.000 OA
ATOM     33  H   UNL     1       4.370   0.924  19.104  0.00  0.00    +0.000 HD
ENDBRANCH  30  32
ENDBRANCH  21  28
ENDBRANCH  20  21
ENDBRANCH   1  20
TORSDOF 9
ENDMDL
MODEL 5
REMARK VINA RESULT:      -8.3      1.659      2.166
REMARK  Name = 
REMARK  11 active torsions:
REMARK  status: ('A' for Active; 'I' for Inactive)
REMARK    1  A    between atoms: C_1  and  C_2
REMARK    2  A    between atoms: C_5  and  O_6
REMARK    3  A    between atoms: O_6  and  C_7
REMARK    4  A    between atoms: C_10  and  N_11
REMARK    5  A    between atoms: N_11  and  C_12
REMARK    6  A    between atoms: N_11  and  S_24
REMARK    7  A    between atoms: C_12  and  C_13
REMARK    8  A    between atoms: C_13  and  C_14
REMARK    9  A    between atoms: C_13  and  N_18
REMARK   10  A    between atoms: N_16  and  O_17
REMARK   11  A    between atoms: S_24  and  C_25
REMARK                            x       y       z     vdW  Elec       q    Type
REMARK                         _______ _______ _______ _____ _____    ______ ____
ROOT
ATOM      1  N   UNL     1       2.958   5.003  19.138  0.00  0.00    +0.000 N 
ENDROOT
BRANCH   1   5
ATOM      2  C   UNL     1       1.564   8.994  19.085  0.00  0.00    +0.000 A 
ATOM      3  C   UNL     1       1.499   8.238  20.258  0.00  0.00    +0.000 A 
ATOM      4  C   UNL     1       2.009   6.934  20.292  0.00  0.00    +0.000 A 
ATOM      5  C   UNL     1       2.589   6.382  19.148  0.00  0.00    +0.000 A 
ATOM      6  C   UNL     1       2.670   7.140  17.979  0.00  0.00    +0.000 A 
ATOM      7  C   UNL     1       2.132   8.428  17.936  0.00  0.00    +0.000 A 
BRANCH   2   8
ATOM      8  O   UNL     1       0.954  10.227  19.116  0.00  0.00    +0.000 OA
BRANCH   8  13
ATOM      9  C   UNL     1      -4.395  11.206  17.451  0.00  0.00    +0.000 C 
ATOM     10  C   UNL     1      -3.000  10.910  17.916  0.00  0.00    +0.000 A 
ATOM     11  C   UNL     1      -2.422  11.611  18.980  0.00  0.00    +0.000 A 
ATOM     12  C   UNL     1      -1.105  11.344  19.371  0.00  0.00    +0.000 A 
ATOM     13  C   UNL     1      -0.353  10.373  18.702  0.00  0.00    +0.000 A 
ATOM     14  C   UNL     1      -0.918   9.693  17.622  0.00  0.00    +0.000 A 
ATOM     15  C   UNL     1      -2.240   9.941  17.249  0.00  0.00    +0.000 A 
ENDBRANCH   8  13
ENDBRANCH   2   8
ENDBRANCH   1   5
BRANCH   1  16
ATOM     16  S   UNL     1       1.797   3.876  18.635  0.00  0.00    +0.000 S 
ATOM     17  C   UNL     1       2.722   2.356  18.609  0.00  0.00    +0.000 C 
ATOM     18  O   UNL     1       0.807   3.754  19.684  0.00  0.00    +0.000 OA
ATOM     19  O   UNL     1       1.393   4.166  17.277  0.00  0.00    +0.000 OA
ENDBRANCH   1  16
BRANCH   1  20
ATOM     20  C   UNL     1       4.335   4.562  19.478  0.00  0.00    +0.000 C 
BRANCH  20  21
ATOM     21  C   UNL     1       5.264   4.414  18.248  0.00  0.00    +0.000 C 
BRANCH  21  22
ATOM     22  N   UNL     1       4.851   5.129  17.011  0.00  0.00    +0.000 NA
ATOM     23  C   UNL     1       4.676   4.255  15.832  0.00  0.00    +0.000 C 
ATOM     24  C   UNL     1       5.949   4.036  14.994  0.00  0.00    +0.000 C 
ATOM     25  O   UNL     1       6.533   5.285  14.607  0.00  0.00    +0.000 OA
ATOM     26  C   UNL     1       6.830   6.093  15.749  0.00  0.00    +0.000 C 
ATOM     27  C   UNL     1       5.575   6.343  16.606  0.00  0.00    +0.000 C 
ENDBRANCH  21  22
BRANCH  21  28
ATOM     28  C   UNL     1       6.732   4.615  18.650  0.00  0.00    +0.000 C 
ATOM     29  O   UNL     1       7.659   4.127  17.996  0.00  0.00    +0.000 OA
ATOM     30  N   UNL     1       6.989   5.373  19.768  0.00  0.00    +0.000 N 
ATOM     31  H   UNL     1       6.342   6.047  20.163  0.00  0.00    +0.000 HD
BRANCH  30  32
ATOM     32  O   UNL     1       8.362   5.630  20.011  0.00  0.00    +0.000 OA
ATOM     33  H   UNL     1       8.813   4.959  19.450  0.00  0.00    +0.000 HD
ENDBRANCH  30  32
ENDBRANCH  21  28
ENDBRANCH  20  21
ENDBRANCH   1  20
TORSDOF 9
ENDMDL
MODEL 6
REMARK VINA RESULT:      -8.3      1.383      1.967
REMARK  Name = 
REMARK  11 active torsions:
REMARK  status: ('A' for Active; 'I' for Inactive)
REMARK    1  A    between atoms: C_1  and  C_2
REMARK    2  A    between atoms: C_5  and  O_6
REMARK    3  A    between atoms: O_6  and  C_7
REMARK    4  A    between atoms: C_10  and  N_11
REMARK    5  A    between atoms: N_11  and  C_12
REMARK    6  A    between atoms: N_11  and  S_24
REMARK    7  A    between atoms: C_12  and  C_13
REMARK    8  A    between atoms: C_13  and  C_14
REMARK    9  A    between atoms: C_13  and  N_18
REMARK   10  A    between atoms: N_16  and  O_17
REMARK   11  A    between atoms: S_24  and  C_25
REMARK                            x       y       z     vdW  Elec       q    Type
REMARK                         _______ _______ _______ _____ _____    ______ ____
ROOT
ATOM      1  N   UNL     1       2.432   4.730  18.814  0.00  0.00    +0.000 N 
ENDROOT
BRANCH   1   5
ATOM      2  C   UNL     1       1.727   8.874  19.261  0.00  0.00    +0.000 A 
ATOM      3  C   UNL     1       1.655   8.021  20.365  0.00  0.00    +0.000 A 
ATOM      4  C   UNL     1       1.940   6.658  20.229  0.00  0.00    +0.000 A 
ATOM      5  C   UNL     1       2.302   6.142  18.984  0.00  0.00    +0.000 A 
ATOM      6  C   UNL     1       2.391   6.993  17.882  0.00  0.00    +0.000 A 
ATOM      7  C   UNL     1       2.075   8.348  18.011  0.00  0.00    +0.000 A 
BRANCH   2   8
ATOM      8  O   UNL     1       1.339  10.179  19.468  0.00  0.00    +0.000 OA
BRANCH   8  13
ATOM      9  C   UNL     1      -4.000  11.511  18.032  0.00  0.00    +0.000 C 
ATOM     10  C   UNL     1      -2.577  11.201  18.391  0.00  0.00    +0.000 A 
ATOM     11  C   UNL     1      -1.799  10.340  17.610  0.00  0.00    +0.000 A 
ATOM     12  C   UNL     1      -0.486  10.035  17.985  0.00  0.00    +0.000 A 
ATOM     13  C   UNL     1       0.062  10.589  19.145  0.00  0.00    +0.000 A 
ATOM     14  C   UNL     1      -0.721  11.426  19.942  0.00  0.00    +0.000 A 
ATOM     15  C   UNL     1      -2.022  11.750  19.554  0.00  0.00    +0.000 A 
ENDBRANCH   8  13
ENDBRANCH   2   8
ENDBRANCH   1   5
BRANCH   1  16
ATOM     16  S   UNL     1       1.690   3.723  19.956  0.00  0.00    +0.000 S 
ATOM     17  C   UNL     1       1.469   2.208  19.048  0.00  0.00    +0.000 C 
ATOM     18  O   UNL     1       2.648   3.453  21.007  0.00  0.00    +0.000 OA
ATOM     19  O   UNL     1       0.376   4.237  20.277  0.00  0.00    +0.000 OA
ENDBRANCH   1  16
BRANCH   1  20
ATOM     20  C   UNL     1       3.126   4.147  17.636  0.00  0.00    +0.000 C 
BRANCH  20  21
ATOM     21  C   UNL     1       4.668   4.129  17.767  0.00  0.00    +0.000 C 
BRANCH  21  22
ATOM     22  N   UNL     1       5.391   5.339  17.291  0.00  0.00    +0.000 NA
ATOM     23  C   UNL     1       5.078   5.729  15.900  0.00  0.00    +0.000 C 
ATOM     24  C   UNL     1       5.965   5.069  14.828  0.00  0.00    +0.000 C 
ATOM     25  O   UNL     1       7.353   5.282  15.105  0.00  0.00    +0.000 OA
ATOM     26  C   UNL     1       7.704   4.790  16.401  0.00  0.00    +0.000 C 
ATOM     27  C   UNL     1       6.843   5.438  17.503  0.00  0.00    +0.000 C 
ENDBRANCH  21  22
BRANCH  21  28
ATOM     28  C   UNL     1       5.089   3.630  19.156  0.00  0.00    +0.000 C 
ATOM     29  O   UNL     1       5.527   4.397  20.019  0.00  0.00    +0.000 OA
ATOM     30  N   UNL     1       4.952   2.288  19.420  0.00  0.00    +0.000 N 
ATOM     31  H   UNL     1       4.332   1.666  18.912  0.00  0.00    +0.000 HD
BRANCH  30  32
ATOM     32  O   UNL     1       5.232   1.911  20.757  0.00  0.00    +0.000 OA
ATOM     33  H   UNL     1       4.569   1.205  20.930  0.00  0.00    +0.000 HD
ENDBRANCH  30  32
ENDBRANCH  21  28
ENDBRANCH  20  21
ENDBRANCH   1  20
TORSDOF 9
ENDMDL
MODEL 7
REMARK VINA RESULT:      -8.1      2.007      4.039
REMARK  Name = 
REMARK  11 active torsions:
REMARK  status: ('A' for Active; 'I' for Inactive)
REMARK    1  A    between atoms: C_1  and  C_2
REMARK    2  A    between atoms: C_5  and  O_6
REMARK    3  A    between atoms: O_6  and  C_7
REMARK    4  A    between atoms: C_10  and  N_11
REMARK    5  A    between atoms: N_11  and  C_12
REMARK    6  A    between atoms: N_11  and  S_24
REMARK    7  A    between atoms: C_12  and  C_13
REMARK    8  A    between atoms: C_13  and  C_14
REMARK    9  A    between atoms: C_13  and  N_18
REMARK   10  A    between atoms: N_16  and  O_17
REMARK   11  A    between atoms: S_24  and  C_25
REMARK                            x       y       z     vdW  Elec       q    Type
REMARK                         _______ _______ _______ _____ _____    ______ ____
ROOT
ATOM      1  N   UNL     1       4.012   6.070  17.183  0.00  0.00    +0.000 N 
ENDROOT
BRANCH   1   5
ATOM      2  C   UNL     1       1.602   8.936  19.146  0.00  0.00    +0.000 A 
ATOM      3  C   UNL     1       1.876   7.708  19.753  0.00  0.00    +0.000 A 
ATOM      4  C   UNL     1       2.717   6.779  19.128  0.00  0.00    +0.000 A 
ATOM      5  C   UNL     1       3.290   7.079  17.891  0.00  0.00    +0.000 A 
ATOM      6  C   UNL     1       3.031   8.311  17.289  0.00  0.00    +0.000 A 
ATOM      7  C   UNL     1       2.166   9.223  17.897  0.00  0.00    +0.000 A 
BRANCH   2   8
ATOM      8  O   UNL     1       0.691   9.746  19.785  0.00  0.00    +0.000 OA
BRANCH   8  13
ATOM      9  C   UNL     1      -3.902  11.460  16.902  0.00  0.00    +0.000 C 
ATOM     10  C   UNL     1      -2.665  11.044  17.643  0.00  0.00    +0.000 A 
ATOM     11  C   UNL     1      -1.860   9.995  17.186  0.00  0.00    +0.000 A 
ATOM     12  C   UNL     1      -0.732   9.599  17.914  0.00  0.00    +0.000 A 
ATOM     13  C   UNL     1      -0.398  10.249  19.106  0.00  0.00    +0.000 A 
ATOM     14  C   UNL     1      -1.216  11.277  19.578  0.00  0.00    +0.000 A 
ATOM     15  C   UNL     1      -2.325  11.689  18.839  0.00  0.00    +0.000 A 
ENDBRANCH   8  13
ENDBRANCH   2   8
ENDBRANCH   1   5
BRANCH   1  16
ATOM     16  S   UNL     1       5.196   6.571  16.080  0.00  0.00    +0.000 S 
ATOM     17  C   UNL     1       5.597   5.059  15.232  0.00  0.00    +0.000 C 
ATOM     18  O   UNL     1       4.567   7.447  15.114  0.00  0.00    +0.000 OA
ATOM     19  O   UNL     1       6.378   6.999  16.795  0.00  0.00    +0.000 OA
ENDBRANCH   1  16
BRANCH   1  20
ATOM     20  C   UNL     1       3.799   4.625  17.452  0.00  0.00    +0.000 C 
BRANCH  20  21
ATOM     21  C   UNL     1       4.361   4.155  18.816  0.00  0.00    +0.000 C 
BRANCH  21  22
ATOM     22  N   UNL     1       3.993   2.780  19.250  0.00  0.00    +0.000 NA
ATOM     23  C   UNL     1       2.804   2.224  18.570  0.00  0.00    +0.000 C 
ATOM     24  C   UNL     1       1.461   2.542  19.253  0.00  0.00    +0.000 C 
ATOM     25  O   UNL     1       1.477   2.151  20.630  0.00  0.00    +0.000 OA
ATOM     26  C   UNL     1       2.547   2.785  21.336  0.00  0.00    +0.000 C 
ATOM     27  C   UNL     1       3.910   2.479  20.687  0.00  0.00    +0.000 C 
ENDBRANCH  21  22
BRANCH  21  28
ATOM     28  C   UNL     1       5.854   4.492  18.933  0.00  0.00    +0.000 C 
ATOM     29  O   UNL     1       6.291   5.206  19.840  0.00  0.00    +0.000 OA
ATOM     30  N   UNL     1       6.703   3.959  17.992  0.00  0.00    +0.000 N 
ATOM     31  H   UNL     1       6.492   3.142  17.429  0.00  0.00    +0.000 HD
BRANCH  30  32
ATOM     32  O   UNL     1       8.080   4.197  18.229  0.00  0.00    +0.000 OA
ATOM     33  H   UNL     1       8.512   3.414  17.820  0.00  0.00    +0.000 HD
ENDBRANCH  30  32
ENDBRANCH  21  28
ENDBRANCH  20  21
ENDBRANCH   1  20
TORSDOF 9
ENDMDL
MODEL 8
REMARK VINA RESULT:      -8.1      1.533      2.425
REMARK  Name = 
REMARK  11 active torsions:
REMARK  status: ('A' for Active; 'I' for Inactive)
REMARK    1  A    between atoms: C_1  and  C_2
REMARK    2  A    between atoms: C_5  and  O_6
REMARK    3  A    between atoms: O_6  and  C_7
REMARK    4  A    between atoms: C_10  and  N_11
REMARK    5  A    between atoms: N_11  and  C_12
REMARK    6  A    between atoms: N_11  and  S_24
REMARK    7  A    between atoms: C_12  and  C_13
REMARK    8  A    between atoms: C_13  and  C_14
REMARK    9  A    between atoms: C_13  and  N_18
REMARK   10  A    between atoms: N_16  and  O_17
REMARK   11  A    between atoms: S_24  and  C_25
REMARK                            x       y       z     vdW  Elec       q    Type
REMARK                         _______ _______ _______ _____ _____    ______ ____
ROOT
ATOM      1  N   UNL     1       3.121   5.218  19.470  0.00  0.00    +0.000 N 
ENDROOT
BRANCH   1   5
ATOM      2  C   UNL     1       1.365   9.039  19.038  0.00  0.00    +0.000 A 
ATOM      3  C   UNL     1       1.926   8.390  17.936  0.00  0.00    +0.000 A 
ATOM      4  C   UNL     1       2.460   7.102  18.065  0.00  0.00    +0.000 A 
ATOM      5  C   UNL     1       2.433   6.457  19.303  0.00  0.00    +0.000 A 
ATOM      6  C   UNL     1       1.859   7.096  20.403  0.00  0.00    +0.000 A 
ATOM      7  C   UNL     1       1.356   8.394  20.281  0.00  0.00    +0.000 A 
BRANCH   2   8
ATOM      8  O   UNL     1       0.951  10.337  18.840  0.00  0.00    +0.000 OA
BRANCH   8  13
ATOM      9  C   UNL     1      -4.475  11.908  18.185  0.00  0.00    +0.000 C 
ATOM     10  C   UNL     1      -3.059  11.457  18.386  0.00  0.00    +0.000 A 
ATOM     11  C   UNL     1      -2.224  12.071  19.326  0.00  0.00    +0.000 A 
ATOM     12  C   UNL     1      -0.895  11.659  19.468  0.00  0.00    +0.000 A 
ATOM     13  C   UNL     1      -0.386  10.628  18.673  0.00  0.00    +0.000 A 
ATOM     14  C   UNL     1      -1.208  10.033  17.715  0.00  0.00    +0.000 A 
ATOM     15  C   UNL     1      -2.541  10.426  17.591  0.00  0.00    +0.000 A 
ENDBRANCH   8  13
ENDBRANCH   2   8
ENDBRANCH   1   5
BRANCH   1  16
ATOM     16  S   UNL     1       2.228   3.788  19.306  0.00  0.00    +0.000 S 
ATOM     17  C   UNL     1       1.689   3.862  17.612  0.00  0.00    +0.000 C 
ATOM     18  O   UNL     1       3.143   2.672  19.414  0.00  0.00    +0.000 OA
ATOM     19  O   UNL     1       1.050   3.851  20.143  0.00  0.00    +0.000 OA
ENDBRANCH   1  16
BRANCH   1  20
ATOM     20  C   UNL     1       4.588   5.165  19.702  0.00  0.00    +0.000 C 
BRANCH  20  21
ATOM     21  C   UNL     1       5.402   4.753  18.451  0.00  0.00    +0.000 C 
BRANCH  21  22
ATOM     22  N   UNL     1       5.034   5.413  17.170  0.00  0.00    +0.000 NA
ATOM     23  C   UNL     1       4.871   4.485  16.031  0.00  0.00    +0.000 C 
ATOM     24  C   UNL     1       6.160   4.201  15.238  0.00  0.00    +0.000 C 
ATOM     25  O   UNL     1       6.779   5.418  14.805  0.00  0.00    +0.000 OA
ATOM     26  C   UNL     1       7.063   6.276  15.914  0.00  0.00    +0.000 C 
ATOM     27  C   UNL     1       5.792   6.592  16.724  0.00  0.00    +0.000 C 
ENDBRANCH  21  22
BRANCH  21  28
ATOM     28  C   UNL     1       6.905   4.740  18.762  0.00  0.00    +0.000 C 
ATOM     29  O   UNL     1       7.718   4.177  18.023  0.00  0.00    +0.000 OA
ATOM     30  N   UNL     1       7.327   5.390  19.898  0.00  0.00    +0.000 N 
ATOM     31  H   UNL     1       6.799   6.116  20.370  0.00  0.00    +0.000 HD
BRANCH  30  32
ATOM     32  O   UNL     1       8.733   5.454  20.060  0.00  0.00    +0.000 OA
ATOM     33  H   UNL     1       8.836   6.002  20.870  0.00  0.00    +0.000 HD
ENDBRANCH  30  32
ENDBRANCH  21  28
ENDBRANCH  20  21
ENDBRANCH   1  20
TORSDOF 9
ENDMDL
MODEL 9
REMARK VINA RESULT:      -8.1      1.741      2.452
REMARK  Name = 
REMARK  11 active torsions:
REMARK  status: ('A' for Active; 'I' for Inactive)
REMARK    1  A    between atoms: C_1  and  C_2
REMARK    2  A    between atoms: C_5  and  O_6
REMARK    3  A    between atoms: O_6  and  C_7
REMARK    4  A    between atoms: C_10  and  N_11
REMARK    5  A    between atoms: N_11  and  C_12
REMARK    6  A    between atoms: N_11  and  S_24
REMARK    7  A    between atoms: C_12  and  C_13
REMARK    8  A    between atoms: C_13  and  C_14
REMARK    9  A    between atoms: C_13  and  N_18
REMARK   10  A    between atoms: N_16  and  O_17
REMARK   11  A    between atoms: S_24  and  C_25
REMARK                            x       y       z     vdW  Elec       q    Type
REMARK                         _______ _______ _______ _____ _____    ______ ____
ROOT
ATOM      1  N   UNL     1       2.913   5.220  19.218  0.00  0.00    +0.000 N 
ENDROOT
BRANCH   1   5
ATOM      2  C   UNL     1       1.507   9.202  19.030  0.00  0.00    +0.000 A 
ATOM      3  C   UNL     1       1.988   8.567  17.882  0.00  0.00    +0.000 A 
ATOM      4  C   UNL     1       2.404   7.231  17.931  0.00  0.00    +0.000 A 
ATOM      5  C   UNL     1       2.339   6.524  19.133  0.00  0.00    +0.000 A 
ATOM      6  C   UNL     1       1.844   7.150  20.278  0.00  0.00    +0.000 A 
ATOM      7  C   UNL     1       1.460   8.492  20.236  0.00  0.00    +0.000 A 
BRANCH   2   8
ATOM      8  O   UNL     1       1.210  10.541  18.911  0.00  0.00    +0.000 OA
BRANCH   8  13
ATOM      9  C   UNL     1      -3.890  12.773  20.071  0.00  0.00    +0.000 C 
ATOM     10  C   UNL     1      -2.559  12.142  19.785  0.00  0.00    +0.000 A 
ATOM     11  C   UNL     1      -1.455  12.362  20.615  0.00  0.00    +0.000 A 
ATOM     12  C   UNL     1      -0.214  11.795  20.308  0.00  0.00    +0.000 A 
ATOM     13  C   UNL     1      -0.064  11.002  19.166  0.00  0.00    +0.000 A 
ATOM     14  C   UNL     1      -1.157  10.804  18.320  0.00  0.00    +0.000 A 
ATOM     15  C   UNL     1      -2.401  11.349  18.642  0.00  0.00    +0.000 A 
ENDBRANCH   8  13
ENDBRANCH   2   8
ENDBRANCH   1   5
BRANCH   1  16
ATOM     16  S   UNL     1       1.938   3.896  18.810  0.00  0.00    +0.000 S 
ATOM     17  C   UNL     1       3.009   2.513  19.136  0.00  0.00    +0.000 C 
ATOM     18  O   UNL     1       0.852   3.828  19.765  0.00  0.00    +0.000 OA
ATOM     19  O   UNL     1       1.663   3.913  17.390  0.00  0.00    +0.000 OA
ENDBRANCH   1  16
BRANCH   1  20
ATOM     20  C   UNL     1       4.341   5.018  19.575  0.00  0.00    +0.000 C 
BRANCH  20  21
ATOM     21  C   UNL     1       5.244   4.675  18.365  0.00  0.00    +0.000 C 
BRANCH  21  22
ATOM     22  N   UNL     1       4.930   5.362  17.084  0.00  0.00    +0.000 NA
ATOM     23  C   UNL     1       4.792   4.455  15.924  0.00  0.00    +0.000 C 
ATOM     24  C   UNL     1       6.103   4.164  15.171  0.00  0.00    +0.000 C 
ATOM     25  O   UNL     1       6.754   5.378  14.780  0.00  0.00    +0.000 OA
ATOM     26  C   UNL     1       7.014   6.213  15.912  0.00  0.00    +0.000 C 
ATOM     27  C   UNL     1       5.720   6.535  16.684  0.00  0.00    +0.000 C 
ENDBRANCH  21  22
BRANCH  21  28
ATOM     28  C   UNL     1       6.725   4.704  18.768  0.00  0.00    +0.000 C 
ATOM     29  O   UNL     1       7.581   4.064  18.149  0.00  0.00    +0.000 OA
ATOM     30  N   UNL     1       7.078   5.482  19.845  0.00  0.00    +0.000 N 
ATOM     31  H   UNL     1       6.524   6.255  20.197  0.00  0.00    +0.000 HD
BRANCH  30  32
ATOM     32  O   UNL     1       8.472   5.571  20.084  0.00  0.00    +0.000 OA
ATOM     33  H   UNL     1       8.761   6.261  19.445  0.00  0.00    +0.000 HD
ENDBRANCH  30  32
ENDBRANCH  21  28
ENDBRANCH  20  21
ENDBRANCH   1  20
TORSDOF 9
ENDMDL
