MODEL 1
REMARK VINA RESULT:      -7.6      0.000      0.000
REMARK  Name = 
REMARK  11 active torsions:
REMARK  status: ('A' for Active; 'I' for Inactive)
REMARK    1  A    between atoms: C_1  and  C_2
REMARK    2  A    between atoms: N_5  and  S_6
REMARK    3  A    between atoms: S_6  and  N_9
REMARK    4  A    between atoms: N_9  and  C_10
REMARK    5  A    between atoms: C_13  and  C_14
REMARK    6  A    between atoms: C_14  and  C_15
REMARK    7  A    between atoms: C_15  and  N_16
REMARK    8  A    between atoms: N_16  and  C_17
REMARK    9  A    between atoms: C_17  and  C_18
REMARK   10  A    between atoms: C_18  and  O_19
REMARK   11  A    between atoms: C_18  and  C_20
REMARK                            x       y       z     vdW  Elec       q    Type
REMARK                         _______ _______ _______ _____ _____    ______ ____
ROOT
ATOM      1  C   UNL     1       2.596   6.437  19.909  0.00  0.00    +0.000 A 
ATOM      2  C   UNL     1       2.797   6.798  18.574  0.00  0.00    +0.000 A 
ATOM      3  C   UNL     1       2.235   7.982  18.073  0.00  0.00    +0.000 A 
ATOM      4  C   UNL     1       1.485   8.823  18.917  0.00  0.00    +0.000 A 
ATOM      5  C   UNL     1       1.317   8.465  20.264  0.00  0.00    +0.000 A 
ATOM      6  C   UNL     1       1.854   7.274  20.750  0.00  0.00    +0.000 A 
ENDROOT
BRANCH   1   7
ATOM      7  N   UNL     1       3.135   5.236  20.430  0.00  0.00    +0.000 N 
ATOM      8  H   UNL     1       4.061   4.966  20.075  0.00  0.00    +0.000 HD
BRANCH   7   9
ATOM      9  S   UNL     1       2.091   3.841  20.599  0.00  0.00    +0.000 S 
ATOM     10  O   UNL     1       0.661   4.240  20.207  0.00  0.00    +0.000 OA
ATOM     11  O   UNL     1       2.042   3.444  22.082  0.00  0.00    +0.000 OA
BRANCH   9  16
ATOM     12  C   UNL     1       4.732   4.531  16.384  0.00  0.00    +0.000 C 
ATOM     13  C   UNL     1       4.194   3.397  17.262  0.00  0.00    +0.000 C 
ATOM     14  C   UNL     1       2.656   3.446  17.318  0.00  0.00    +0.000 C 
ATOM     15  C   UNL     1       2.113   2.370  18.274  0.00  0.00    +0.000 C 
ATOM     16  N   UNL     1       2.708   2.468  19.621  0.00  0.00    +0.000 NA
ATOM     17  C   UNL     1       4.182   2.398  19.571  0.00  0.00    +0.000 C 
ATOM     18  C   UNL     1       4.777   3.498  18.683  0.00  0.00    +0.000 C 
ENDBRANCH   9  16
ENDBRANCH   7   9
ENDBRANCH   1   7
BRANCH   4  19
ATOM     19  C   UNL     1       0.867  10.101  18.397  0.00  0.00    +0.000 C 
BRANCH  19  20
ATOM     20  C   UNL     1       1.397  11.340  19.131  0.00  0.00    +0.000 C 
BRANCH  20  21
ATOM     21  N   UNL     1       0.299  12.234  19.540  0.00  0.00    +0.000 NA
ATOM     22  H   UNL     1       0.086  12.875  18.736  0.00  0.00    +0.000 HD
BRANCH  21  23
ATOM     23  C   UNL     1      -0.942  11.500  19.858  0.00  0.00    +0.000 C 
BRANCH  23  24
ATOM     24  C   UNL     1      -2.215  12.310  19.509  0.00  0.00    +0.000 C 
BRANCH  24  25
ATOM     25  C   UNL     1      -2.895  11.779  18.263  0.00  0.00    +0.000 A 
ATOM     26  C   UNL     1      -2.133  11.375  17.156  0.00  0.00    +0.000 A 
ATOM     27  C   UNL     1      -2.761  10.879  16.012  0.00  0.00    +0.000 A 
ATOM     28  C   UNL     1      -4.155  10.800  15.978  0.00  0.00    +0.000 A 
ATOM     29  N   UNL     1      -4.884  11.195  17.054  0.00  0.00    +0.000 NA
ATOM     30  C   UNL     1      -4.296  11.672  18.182  0.00  0.00    +0.000 A 
ENDBRANCH  24  25
BRANCH  24  31
ATOM     31  O   UNL     1      -3.114  12.346  20.589  0.00  0.00    +0.000 OA
ATOM     32  H   UNL     1      -3.783  13.056  20.415  0.00  0.00    +0.000 HD
ENDBRANCH  24  31
ENDBRANCH  23  24
ENDBRANCH  21  23
ENDBRANCH  20  21
ENDBRANCH  19  20
ENDBRANCH   4  19
TORSDOF 10
ENDMDL
MODEL 2
REMARK VINA RESULT:      -7.6      6.817      9.047
REMARK  Name = 
REMARK  11 active torsions:
REMARK  status: ('A' for Active; 'I' for Inactive)
REMARK    1  A    between atoms: C_1  and  C_2
REMARK    2  A    between atoms: N_5  and  S_6
REMARK    3  A    between atoms: S_6  and  N_9
REMARK    4  A    between atoms: N_9  and  C_10
REMARK    5  A    between atoms: C_13  and  C_14
REMARK    6  A    between atoms: C_14  and  C_15
REMARK    7  A    between atoms: C_15  and  N_16
REMARK    8  A    between atoms: N_16  and  C_17
REMARK    9  A    between atoms: C_17  and  C_18
REMARK   10  A    between atoms: C_18  and  O_19
REMARK   11  A    between atoms: C_18  and  C_20
REMARK                            x       y       z     vdW  Elec       q    Type
REMARK                         _______ _______ _______ _____ _____    ______ ____
ROOT
ATOM      1  C   UNL     1       7.002   5.559  18.083  0.00  0.00    +0.000 A 
ATOM      2  C   UNL     1       6.401   6.391  17.135  0.00  0.00    +0.000 A 
ATOM      3  C   UNL     1       6.774   7.741  17.047  0.00  0.00    +0.000 A 
ATOM      4  C   UNL     1       7.769   8.259  17.898  0.00  0.00    +0.000 A 
ATOM      5  C   UNL     1       8.387   7.405  18.825  0.00  0.00    +0.000 A 
ATOM      6  C   UNL     1       7.995   6.071  18.926  0.00  0.00    +0.000 A 
ENDROOT
BRANCH   1   7
ATOM      7  N   UNL     1       6.626   4.200  18.204  0.00  0.00    +0.000 N 
ATOM      8  H   UNL     1       6.833   3.601  17.395  0.00  0.00    +0.000 HD
BRANCH   7   9
ATOM      9  S   UNL     1       5.068   3.809  18.899  0.00  0.00    +0.000 S 
ATOM     10  O   UNL     1       4.535   5.039  19.648  0.00  0.00    +0.000 OA
ATOM     11  O   UNL     1       5.265   2.708  19.952  0.00  0.00    +0.000 OA
BRANCH   9  16
ATOM     12  C   UNL     1       0.162   3.185  19.773  0.00  0.00    +0.000 C 
ATOM     13  C   UNL     1       1.181   3.048  18.637  0.00  0.00    +0.000 C 
ATOM     14  C   UNL     1       2.248   1.998  18.997  0.00  0.00    +0.000 C 
ATOM     15  C   UNL     1       3.327   1.924  17.904  0.00  0.00    +0.000 C 
ATOM     16  N   UNL     1       3.934   3.241  17.628  0.00  0.00    +0.000 NA
ATOM     17  C   UNL     1       2.915   4.243  17.260  0.00  0.00    +0.000 C 
ATOM     18  C   UNL     1       1.850   4.405  18.353  0.00  0.00    +0.000 C 
ENDBRANCH   9  16
ENDBRANCH   7   9
ENDBRANCH   1   7
BRANCH   4  19
ATOM     19  C   UNL     1       8.182   9.711  17.824  0.00  0.00    +0.000 C 
BRANCH  19  20
ATOM     20  C   UNL     1       9.495   9.977  18.572  0.00  0.00    +0.000 C 
BRANCH  20  21
ATOM     21  N   UNL     1       9.357  11.098  19.520  0.00  0.00    +0.000 NA
ATOM     22  H   UNL     1       9.356  10.701  20.492  0.00  0.00    +0.000 HD
BRANCH  21  23
ATOM     23  C   UNL     1      10.477  12.055  19.435  0.00  0.00    +0.000 C 
BRANCH  23  24
ATOM     24  C   UNL     1      10.843  12.410  17.973  0.00  0.00    +0.000 C 
BRANCH  24  25
ATOM     25  C   UNL     1      10.659  13.888  17.690  0.00  0.00    +0.000 A 
ATOM     26  C   UNL     1      11.687  14.628  17.086  0.00  0.00    +0.000 A 
ATOM     27  C   UNL     1      11.512  15.987  16.819  0.00  0.00    +0.000 A 
ATOM     28  C   UNL     1      10.309  16.603  17.170  0.00  0.00    +0.000 A 
ATOM     29  N   UNL     1       9.321  15.879  17.757  0.00  0.00    +0.000 NA
ATOM     30  C   UNL     1       9.463  14.552  18.017  0.00  0.00    +0.000 A 
ENDBRANCH  24  25
BRANCH  24  31
ATOM     31  O   UNL     1      12.152  12.003  17.657  0.00  0.00    +0.000 OA
ATOM     32  H   UNL     1      12.209  11.869  16.676  0.00  0.00    +0.000 HD
ENDBRANCH  24  31
ENDBRANCH  23  24
ENDBRANCH  21  23
ENDBRANCH  20  21
ENDBRANCH  19  20
ENDBRANCH   4  19
TORSDOF 10
ENDMDL
MODEL 3
REMARK VINA RESULT:      -7.5      1.653      2.262
REMARK  Name = 
REMARK  11 active torsions:
REMARK  status: ('A' for Active; 'I' for Inactive)
REMARK    1  A    between atoms: C_1  and  C_2
REMARK    2  A    between atoms: N_5  and  S_6
REMARK    3  A    between atoms: S_6  and  N_9
REMARK    4  A    between atoms: N_9  and  C_10
REMARK    5  A    between atoms: C_13  and  C_14
REMARK    6  A    between atoms: C_14  and  C_15
REMARK    7  A    between atoms: C_15  and  N_16
REMARK    8  A    between atoms: N_16  and  C_17
REMARK    9  A    between atoms: C_17  and  C_18
REMARK   10  A    between atoms: C_18  and  O_19
REMARK   11  A    between atoms: C_18  and  C_20
REMARK                            x       y       z     vdW  Elec       q    Type
REMARK                         _______ _______ _______ _____ _____    ______ ____
ROOT
ATOM      1  C   UNL     1       2.488   6.690  19.854  0.00  0.00    +0.000 A 
ATOM      2  C   UNL     1       2.545   7.149  18.535  0.00  0.00    +0.000 A 
ATOM      3  C   UNL     1       1.886   8.334  18.174  0.00  0.00    +0.000 A 
ATOM      4  C   UNL     1       1.182   9.077  19.141  0.00  0.00    +0.000 A 
ATOM      5  C   UNL     1       1.158   8.621  20.469  0.00  0.00    +0.000 A 
ATOM      6  C   UNL     1       1.792   7.430  20.817  0.00  0.00    +0.000 A 
ENDROOT
BRANCH   1   7
ATOM      7  N   UNL     1       3.128   5.486  20.236  0.00  0.00    +0.000 N 
ATOM      8  H   UNL     1       3.990   5.252  19.728  0.00  0.00    +0.000 HD
BRANCH   7   9
ATOM      9  S   UNL     1       2.153   4.060  20.518  0.00  0.00    +0.000 S 
ATOM     10  O   UNL     1       0.691   4.382  20.175  0.00  0.00    +0.000 OA
ATOM     11  O   UNL     1       2.187   3.734  22.020  0.00  0.00    +0.000 OA
BRANCH   9  16
ATOM     12  C   UNL     1       4.809   4.662  16.300  0.00  0.00    +0.000 C 
ATOM     13  C   UNL     1       4.274   3.547  17.204  0.00  0.00    +0.000 C 
ATOM     14  C   UNL     1       2.736   3.586  17.251  0.00  0.00    +0.000 C 
ATOM     15  C   UNL     1       2.196   2.532  18.231  0.00  0.00    +0.000 C 
ATOM     16  N   UNL     1       2.783   2.667  19.578  0.00  0.00    +0.000 NA
ATOM     17  C   UNL     1       4.258   2.606  19.537  0.00  0.00    +0.000 C 
ATOM     18  C   UNL     1       4.850   3.688  18.624  0.00  0.00    +0.000 C 
ENDBRANCH   9  16
ENDBRANCH   7   9
ENDBRANCH   1   7
BRANCH   4  19
ATOM     19  C   UNL     1       0.459  10.352  18.773  0.00  0.00    +0.000 C 
BRANCH  19  20
ATOM     20  C   UNL     1      -1.038  10.119  18.530  0.00  0.00    +0.000 C 
BRANCH  20  21
ATOM     21  N   UNL     1      -1.357  10.127  17.091  0.00  0.00    +0.000 NA
ATOM     22  H   UNL     1      -1.798   9.205  16.852  0.00  0.00    +0.000 HD
BRANCH  21  23
ATOM     23  C   UNL     1      -2.323  11.184  16.729  0.00  0.00    +0.000 C 
BRANCH  23  24
ATOM     24  C   UNL     1      -3.792  10.713  16.863  0.00  0.00    +0.000 C 
BRANCH  24  25
ATOM     25  C   UNL     1      -4.620  11.682  17.685  0.00  0.00    +0.000 A 
ATOM     26  C   UNL     1      -5.710  12.350  17.108  0.00  0.00    +0.000 A 
ATOM     27  C   UNL     1      -6.475  13.236  17.869  0.00  0.00    +0.000 A 
ATOM     28  C   UNL     1      -6.137  13.456  19.205  0.00  0.00    +0.000 A 
ATOM     29  N   UNL     1      -5.079  12.806  19.755  0.00  0.00    +0.000 NA
ATOM     30  C   UNL     1      -4.324  11.932  19.038  0.00  0.00    +0.000 A 
ENDBRANCH  24  25
BRANCH  24  31
ATOM     31  O   UNL     1      -4.380  10.501  15.604  0.00  0.00    +0.000 OA
ATOM     32  H   UNL     1      -5.219  11.027  15.558  0.00  0.00    +0.000 HD
ENDBRANCH  24  31
ENDBRANCH  23  24
ENDBRANCH  21  23
ENDBRANCH  20  21
ENDBRANCH  19  20
ENDBRANCH   4  19
TORSDOF 10
ENDMDL
MODEL 4
REMARK VINA RESULT:      -7.5      2.861      8.574
REMARK  Name = 
REMARK  11 active torsions:
REMARK  status: ('A' for Active; 'I' for Inactive)
REMARK    1  A    between atoms: C_1  and  C_2
REMARK    2  A    between atoms: N_5  and  S_6
REMARK    3  A    between atoms: S_6  and  N_9
REMARK    4  A    between atoms: N_9  and  C_10
REMARK    5  A    between atoms: C_13  and  C_14
REMARK    6  A    between atoms: C_14  and  C_15
REMARK    7  A    between atoms: C_15  and  N_16
REMARK    8  A    between atoms: N_16  and  C_17
REMARK    9  A    between atoms: C_17  and  C_18
REMARK   10  A    between atoms: C_18  and  O_19
REMARK   11  A    between atoms: C_18  and  C_20
REMARK                            x       y       z     vdW  Elec       q    Type
REMARK                         _______ _______ _______ _____ _____    ______ ____
ROOT
ATOM      1  C   UNL     1       2.063   7.162  20.338  0.00  0.00    +0.000 A 
ATOM      2  C   UNL     1       2.474   7.280  19.007  0.00  0.00    +0.000 A 
ATOM      3  C   UNL     1       2.439   6.164  18.159  0.00  0.00    +0.000 A 
ATOM      4  C   UNL     1       1.972   4.924  18.637  0.00  0.00    +0.000 A 
ATOM      5  C   UNL     1       1.534   4.826  19.967  0.00  0.00    +0.000 A 
ATOM      6  C   UNL     1       1.595   5.932  20.813  0.00  0.00    +0.000 A 
ENDROOT
BRANCH   1   7
ATOM      7  N   UNL     1       2.110   8.270  21.218  0.00  0.00    +0.000 N 
ATOM      8  H   UNL     1       2.578   8.111  22.119  0.00  0.00    +0.000 HD
BRANCH   7   9
ATOM      9  S   UNL     1       0.680   9.261  21.413  0.00  0.00    +0.000 S 
ATOM     10  O   UNL     1       0.493   9.574  22.905  0.00  0.00    +0.000 OA
ATOM     11  O   UNL     1      -0.545   8.439  20.982  0.00  0.00    +0.000 OA
BRANCH   9  16
ATOM     12  C   UNL     1      -2.102   9.943  17.288  0.00  0.00    +0.000 C 
ATOM     13  C   UNL     1      -1.037  10.663  18.120  0.00  0.00    +0.000 C 
ATOM     14  C   UNL     1       0.271   9.850  18.138  0.00  0.00    +0.000 C 
ATOM     15  C   UNL     1       1.313  10.518  19.050  0.00  0.00    +0.000 C 
ATOM     16  N   UNL     1       0.799  10.747  20.413  0.00  0.00    +0.000 NA
ATOM     17  C   UNL     1      -0.442  11.546  20.400  0.00  0.00    +0.000 C 
ATOM     18  C   UNL     1      -1.541  10.884  19.558  0.00  0.00    +0.000 C 
ENDBRANCH   9  16
ENDBRANCH   7   9
ENDBRANCH   1   7
BRANCH   4  19
ATOM     19  C   UNL     1       1.932   3.707  17.742  0.00  0.00    +0.000 C 
BRANCH  19  20
ATOM     20  C   UNL     1       2.833   2.578  18.261  0.00  0.00    +0.000 C 
BRANCH  20  21
ATOM     21  N   UNL     1       4.065   2.463  17.459  0.00  0.00    +0.000 NA
ATOM     22  H   UNL     1       3.807   2.057  16.526  0.00  0.00    +0.000 HD
BRANCH  21  23
ATOM     23  C   UNL     1       4.705   3.770  17.210  0.00  0.00    +0.000 C 
BRANCH  23  24
ATOM     24  C   UNL     1       5.851   4.067  18.207  0.00  0.00    +0.000 C 
BRANCH  24  25
ATOM     25  C   UNL     1       6.474   5.427  17.959  0.00  0.00    +0.000 A 
ATOM     26  C   UNL     1       7.549   5.870  18.745  0.00  0.00    +0.000 A 
ATOM     27  C   UNL     1       8.125   7.119  18.509  0.00  0.00    +0.000 A 
ATOM     28  C   UNL     1       7.614   7.926  17.491  0.00  0.00    +0.000 A 
ATOM     29  N   UNL     1       6.572   7.490  16.737  0.00  0.00    +0.000 NA
ATOM     30  C   UNL     1       6.000   6.274  16.940  0.00  0.00    +0.000 A 
ENDBRANCH  24  25
BRANCH  24  31
ATOM     31  O   UNL     1       5.414   3.956  19.539  0.00  0.00    +0.000 OA
ATOM     32  H   UNL     1       5.983   3.286  19.999  0.00  0.00    +0.000 HD
ENDBRANCH  24  31
ENDBRANCH  23  24
ENDBRANCH  21  23
ENDBRANCH  20  21
ENDBRANCH  19  20
ENDBRANCH   4  19
TORSDOF 10
ENDMDL
MODEL 5
REMARK VINA RESULT:      -7.4      6.025      8.727
REMARK  Name = 
REMARK  11 active torsions:
REMARK  status: ('A' for Active; 'I' for Inactive)
REMARK    1  A    between atoms: C_1  and  C_2
REMARK    2  A    between atoms: N_5  and  S_6
REMARK    3  A    between atoms: S_6  and  N_9
REMARK    4  A    between atoms: N_9  and  C_10
REMARK    5  A    between atoms: C_13  and  C_14
REMARK    6  A    between atoms: C_14  and  C_15
REMARK    7  A    between atoms: C_15  and  N_16
REMARK    8  A    between atoms: N_16  and  C_17
REMARK    9  A    between atoms: C_17  and  C_18
REMARK   10  A    between atoms: C_18  and  O_19
REMARK   11  A    between atoms: C_18  and  C_20
REMARK                            x       y       z     vdW  Elec       q    Type
REMARK                         _______ _______ _______ _____ _____    ______ ____
ROOT
ATOM      1  C   UNL     1       5.267   4.135  17.760  0.00  0.00    +0.000 A 
ATOM      2  C   UNL     1       6.164   4.484  16.746  0.00  0.00    +0.000 A 
ATOM      3  C   UNL     1       7.125   5.482  16.970  0.00  0.00    +0.000 A 
ATOM      4  C   UNL     1       7.205   6.121  18.222  0.00  0.00    +0.000 A 
ATOM      5  C   UNL     1       6.319   5.740  19.242  0.00  0.00    +0.000 A 
ATOM      6  C   UNL     1       5.349   4.767  19.006  0.00  0.00    +0.000 A 
ENDROOT
BRANCH   1   7
ATOM      7  N   UNL     1       4.275   3.147  17.550  0.00  0.00    +0.000 N 
ATOM      8  H   UNL     1       3.460   3.438  16.996  0.00  0.00    +0.000 HD
BRANCH   7   9
ATOM      9  S   UNL     1       3.800   2.123  18.888  0.00  0.00    +0.000 S 
ATOM     10  O   UNL     1       4.739   2.388  20.074  0.00  0.00    +0.000 OA
ATOM     11  O   UNL     1       4.013   0.657  18.480  0.00  0.00    +0.000 OA
BRANCH   9  16
ATOM     12  C   UNL     1       2.086   6.592  20.407  0.00  0.00    +0.000 C 
ATOM     13  C   UNL     1       1.583   5.172  20.129  0.00  0.00    +0.000 C 
ATOM     14  C   UNL     1       2.275   4.165  21.066  0.00  0.00    +0.000 C 
ATOM     15  C   UNL     1       1.846   2.727  20.728  0.00  0.00    +0.000 C 
ATOM     16  N   UNL     1       2.076   2.394  19.309  0.00  0.00    +0.000 NA
ATOM     17  C   UNL     1       1.395   3.346  18.409  0.00  0.00    +0.000 C 
ATOM     18  C   UNL     1       1.842   4.792  18.660  0.00  0.00    +0.000 C 
ENDBRANCH   9  16
ENDBRANCH   7   9
ENDBRANCH   1   7
BRANCH   4  19
ATOM     19  C   UNL     1       8.229   7.202  18.482  0.00  0.00    +0.000 C 
BRANCH  19  20
ATOM     20  C   UNL     1       7.811   8.550  17.880  0.00  0.00    +0.000 C 
BRANCH  20  21
ATOM     21  N   UNL     1       8.868   9.564  18.045  0.00  0.00    +0.000 NA
ATOM     22  H   UNL     1       8.730  10.300  17.310  0.00  0.00    +0.000 HD
BRANCH  21  23
ATOM     23  C   UNL     1       8.810  10.237  19.358  0.00  0.00    +0.000 C 
BRANCH  23  24
ATOM     24  C   UNL     1      10.146  10.924  19.731  0.00  0.00    +0.000 C 
BRANCH  24  25
ATOM     25  C   UNL     1      10.489  12.046  18.771  0.00  0.00    +0.000 A 
ATOM     26  C   UNL     1      11.650  11.977  17.986  0.00  0.00    +0.000 A 
ATOM     27  C   UNL     1      11.960  13.008  17.097  0.00  0.00    +0.000 A 
ATOM     28  C   UNL     1      11.108  14.110  17.005  0.00  0.00    +0.000 A 
ATOM     29  N   UNL     1       9.987  14.168  17.770  0.00  0.00    +0.000 NA
ATOM     30  C   UNL     1       9.659  13.174  18.636  0.00  0.00    +0.000 A 
ENDBRANCH  24  25
BRANCH  24  31
ATOM     31  O   UNL     1      10.130  11.392  21.057  0.00  0.00    +0.000 OA
ATOM     32  H   UNL     1       9.970  12.371  21.041  0.00  0.00    +0.000 HD
ENDBRANCH  24  31
ENDBRANCH  23  24
ENDBRANCH  21  23
ENDBRANCH  20  21
ENDBRANCH  19  20
ENDBRANCH   4  19
TORSDOF 10
ENDMDL
MODEL 6
REMARK VINA RESULT:      -7.4      5.960      8.845
REMARK  Name = 
REMARK  11 active torsions:
REMARK  status: ('A' for Active; 'I' for Inactive)
REMARK    1  A    between atoms: C_1  and  C_2
REMARK    2  A    between atoms: N_5  and  S_6
REMARK    3  A    between atoms: S_6  and  N_9
REMARK    4  A    between atoms: N_9  and  C_10
REMARK    5  A    between atoms: C_13  and  C_14
REMARK    6  A    between atoms: C_14  and  C_15
REMARK    7  A    between atoms: C_15  and  N_16
REMARK    8  A    between atoms: N_16  and  C_17
REMARK    9  A    between atoms: C_17  and  C_18
REMARK   10  A    between atoms: C_18  and  O_19
REMARK   11  A    between atoms: C_18  and  C_20
REMARK                            x       y       z     vdW  Elec       q    Type
REMARK                         _______ _______ _______ _____ _____    ______ ____
ROOT
ATOM      1  C   UNL     1       4.634   4.196  17.410  0.00  0.00    +0.000 A 
ATOM      2  C   UNL     1       4.639   5.332  18.224  0.00  0.00    +0.000 A 
ATOM      3  C   UNL     1       5.640   6.303  18.071  0.00  0.00    +0.000 A 
ATOM      4  C   UNL     1       6.632   6.149  17.083  0.00  0.00    +0.000 A 
ATOM      5  C   UNL     1       6.598   5.018  16.251  0.00  0.00    +0.000 A 
ATOM      6  C   UNL     1       5.617   4.044  16.425  0.00  0.00    +0.000 A 
ENDROOT
BRANCH   1   7
ATOM      7  N   UNL     1       3.647   3.193  17.562  0.00  0.00    +0.000 N 
ATOM      8  H   UNL     1       2.683   3.471  17.337  0.00  0.00    +0.000 HD
BRANCH   7   9
ATOM      9  S   UNL     1       3.695   2.162  18.975  0.00  0.00    +0.000 S 
ATOM     10  O   UNL     1       4.871   2.592  19.864  0.00  0.00    +0.000 OA
ATOM     11  O   UNL     1       3.993   0.724  18.522  0.00  0.00    +0.000 OA
BRANCH   9  16
ATOM     12  C   UNL     1       1.656   6.466  20.568  0.00  0.00    +0.000 C 
ATOM     13  C   UNL     1       1.367   4.961  20.556  0.00  0.00    +0.000 C 
ATOM     14  C   UNL     1       2.457   4.199  21.333  0.00  0.00    +0.000 C 
ATOM     15  C   UNL     1       2.227   2.681  21.243  0.00  0.00    +0.000 C 
ATOM     16  N   UNL     1       2.127   2.212  19.848  0.00  0.00    +0.000 NA
ATOM     17  C   UNL     1       1.067   2.925  19.108  0.00  0.00    +0.000 C 
ATOM     18  C   UNL     1       1.291   4.443  19.108  0.00  0.00    +0.000 C 
ENDBRANCH   9  16
ENDBRANCH   7   9
ENDBRANCH   1   7
BRANCH   4  19
ATOM     19  C   UNL     1       7.723   7.180  16.904  0.00  0.00    +0.000 C 
BRANCH  19  20
ATOM     20  C   UNL     1       7.408   8.488  17.643  0.00  0.00    +0.000 C 
BRANCH  20  21
ATOM     21  N   UNL     1       8.532   8.905  18.500  0.00  0.00    +0.000 NA
ATOM     22  H   UNL     1       9.363   8.311  18.257  0.00  0.00    +0.000 HD
BRANCH  21  23
ATOM     23  C   UNL     1       8.918  10.313  18.285  0.00  0.00    +0.000 C 
BRANCH  23  24
ATOM     24  C   UNL     1       9.921  10.821  19.350  0.00  0.00    +0.000 C 
BRANCH  24  25
ATOM     25  C   UNL     1      10.490  12.178  18.985  0.00  0.00    +0.000 A 
ATOM     26  C   UNL     1      11.174  12.942  19.943  0.00  0.00    +0.000 A 
ATOM     27  C   UNL     1      11.703  14.188  19.602  0.00  0.00    +0.000 A 
ATOM     28  C   UNL     1      11.534  14.670  18.303  0.00  0.00    +0.000 A 
ATOM     29  N   UNL     1      10.869  13.925  17.383  0.00  0.00    +0.000 NA
ATOM     30  C   UNL     1      10.353  12.704  17.687  0.00  0.00    +0.000 A 
ENDBRANCH  24  25
BRANCH  24  31
ATOM     31  O   UNL     1       9.339  10.853  20.630  0.00  0.00    +0.000 OA
ATOM     32  H   UNL     1       9.050   9.934  20.864  0.00  0.00    +0.000 HD
ENDBRANCH  24  31
ENDBRANCH  23  24
ENDBRANCH  21  23
ENDBRANCH  20  21
ENDBRANCH  19  20
ENDBRANCH   4  19
TORSDOF 10
ENDMDL
MODEL 7
REMARK VINA RESULT:      -7.4      6.330      8.896
REMARK  Name = 
REMARK  11 active torsions:
REMARK  status: ('A' for Active; 'I' for Inactive)
REMARK    1  A    between atoms: C_1  and  C_2
REMARK    2  A    between atoms: N_5  and  S_6
REMARK    3  A    between atoms: S_6  and  N_9
REMARK    4  A    between atoms: N_9  and  C_10
REMARK    5  A    between atoms: C_13  and  C_14
REMARK    6  A    between atoms: C_14  and  C_15
REMARK    7  A    between atoms: C_15  and  N_16
REMARK    8  A    between atoms: N_16  and  C_17
REMARK    9  A    between atoms: C_17  and  C_18
REMARK   10  A    between atoms: C_18  and  O_19
REMARK   11  A    between atoms: C_18  and  C_20
REMARK                            x       y       z     vdW  Elec       q    Type
REMARK                         _______ _______ _______ _____ _____    ______ ____
ROOT
ATOM      1  C   UNL     1       5.790   4.847  16.991  0.00  0.00    +0.000 A 
ATOM      2  C   UNL     1       5.653   6.117  16.425  0.00  0.00    +0.000 A 
ATOM      3  C   UNL     1       6.460   7.176  16.868  0.00  0.00    +0.000 A 
ATOM      4  C   UNL     1       7.426   6.960  17.870  0.00  0.00    +0.000 A 
ATOM      5  C   UNL     1       7.574   5.672  18.409  0.00  0.00    +0.000 A 
ATOM      6  C   UNL     1       6.752   4.630  17.984  0.00  0.00    +0.000 A 
ENDROOT
BRANCH   1   7
ATOM      7  N   UNL     1       4.972   3.770  16.575  0.00  0.00    +0.000 N 
ATOM      8  H   UNL     1       4.687   3.775  15.587  0.00  0.00    +0.000 HD
BRANCH   7   9
ATOM      9  S   UNL     1       3.657   3.253  17.609  0.00  0.00    +0.000 S 
ATOM     10  O   UNL     1       4.153   2.114  18.511  0.00  0.00    +0.000 OA
ATOM     11  O   UNL     1       2.547   2.660  16.728  0.00  0.00    +0.000 OA
BRANCH   9  16
ATOM     12  C   UNL     1       1.221   2.631  21.956  0.00  0.00    +0.000 C 
ATOM     13  C   UNL     1       1.682   3.749  21.015  0.00  0.00    +0.000 C 
ATOM     14  C   UNL     1       1.011   3.601  19.637  0.00  0.00    +0.000 C 
ATOM     15  C   UNL     1       1.541   4.663  18.659  0.00  0.00    +0.000 C 
ATOM     16  N   UNL     1       3.012   4.638  18.551  0.00  0.00    +0.000 NA
ATOM     17  C   UNL     1       3.658   4.803  19.868  0.00  0.00    +0.000 C 
ATOM     18  C   UNL     1       3.213   3.722  20.863  0.00  0.00    +0.000 C 
ENDBRANCH   9  16
ENDBRANCH   7   9
ENDBRANCH   1   7
BRANCH   4  19
ATOM     19  C   UNL     1       8.302   8.087  18.367  0.00  0.00    +0.000 C 
BRANCH  19  20
ATOM     20  C   UNL     1       8.016   9.406  17.635  0.00  0.00    +0.000 C 
BRANCH  20  21
ATOM     21  N   UNL     1       8.816  10.512  18.189  0.00  0.00    +0.000 NA
ATOM     22  H   UNL     1       8.207  11.366  18.226  0.00  0.00    +0.000 HD
BRANCH  21  23
ATOM     23  C   UNL     1       9.281  10.244  19.565  0.00  0.00    +0.000 C 
BRANCH  23  24
ATOM     24  C   UNL     1      10.477  11.140  19.971  0.00  0.00    +0.000 C 
BRANCH  24  25
ATOM     25  C   UNL     1      10.715  12.250  18.966  0.00  0.00    +0.000 A 
ATOM     26  C   UNL     1      11.681  12.100  17.960  0.00  0.00    +0.000 A 
ATOM     27  C   UNL     1      11.893  13.121  17.031  0.00  0.00    +0.000 A 
ATOM     28  C   UNL     1      11.142  14.293  17.121  0.00  0.00    +0.000 A 
ATOM     29  N   UNL     1      10.210  14.430  18.100  0.00  0.00    +0.000 NA
ATOM     30  C   UNL     1       9.978  13.448  19.010  0.00  0.00    +0.000 A 
ENDBRANCH  24  25
BRANCH  24  31
ATOM     31  O   UNL     1      10.307  11.668  21.264  0.00  0.00    +0.000 OA
ATOM     32  H   UNL     1      11.186  11.996  21.584  0.00  0.00    +0.000 HD
ENDBRANCH  24  31
ENDBRANCH  23  24
ENDBRANCH  21  23
ENDBRANCH  20  21
ENDBRANCH  19  20
ENDBRANCH   4  19
TORSDOF 10
ENDMDL
MODEL 8
REMARK VINA RESULT:      -7.4      6.872      9.267
REMARK  Name = 
REMARK  11 active torsions:
REMARK  status: ('A' for Active; 'I' for Inactive)
REMARK    1  A    between atoms: C_1  and  C_2
REMARK    2  A    between atoms: N_5  and  S_6
REMARK    3  A    between atoms: S_6  and  N_9
REMARK    4  A    between atoms: N_9  and  C_10
REMARK    5  A    between atoms: C_13  and  C_14
REMARK    6  A    between atoms: C_14  and  C_15
REMARK    7  A    between atoms: C_15  and  N_16
REMARK    8  A    between atoms: N_16  and  C_17
REMARK    9  A    between atoms: C_17  and  C_18
REMARK   10  A    between atoms: C_18  and  O_19
REMARK   11  A    between atoms: C_18  and  C_20
REMARK                            x       y       z     vdW  Elec       q    Type
REMARK                         _______ _______ _______ _____ _____    ______ ____
ROOT
ATOM      1  C   UNL     1       6.637   5.382  18.200  0.00  0.00    +0.000 A 
ATOM      2  C   UNL     1       7.709   5.728  19.028  0.00  0.00    +0.000 A 
ATOM      3  C   UNL     1       8.314   6.988  18.904  0.00  0.00    +0.000 A 
ATOM      4  C   UNL     1       7.832   7.917  17.962  0.00  0.00    +0.000 A 
ATOM      5  C   UNL     1       6.736   7.568  17.158  0.00  0.00    +0.000 A 
ATOM      6  C   UNL     1       6.155   6.305  17.266  0.00  0.00    +0.000 A 
ENDROOT
BRANCH   1   7
ATOM      7  N   UNL     1       6.025   4.108  18.292  0.00  0.00    +0.000 N 
ATOM      8  H   UNL     1       6.653   3.299  18.206  0.00  0.00    +0.000 HD
BRANCH   7   9
ATOM      9  S   UNL     1       4.514   3.830  17.453  0.00  0.00    +0.000 S 
ATOM     10  O   UNL     1       4.764   3.914  15.940  0.00  0.00    +0.000 OA
ATOM     11  O   UNL     1       3.545   4.970  17.800  0.00  0.00    +0.000 OA
BRANCH   9  16
ATOM     12  C   UNL     1       1.211   3.435  21.215  0.00  0.00    +0.000 C 
ATOM     13  C   UNL     1       1.926   2.560  20.180  0.00  0.00    +0.000 C 
ATOM     14  C   UNL     1       3.450   2.615  20.391  0.00  0.00    +0.000 C 
ATOM     15  C   UNL     1       4.178   1.816  19.297  0.00  0.00    +0.000 C 
ATOM     16  N   UNL     1       3.802   2.255  17.940  0.00  0.00    +0.000 NA
ATOM     17  C   UNL     1       2.343   2.181  17.728  0.00  0.00    +0.000 C 
ATOM     18  C   UNL     1       1.572   3.021  18.755  0.00  0.00    +0.000 C 
ENDBRANCH   9  16
ENDBRANCH   7   9
ENDBRANCH   1   7
BRANCH   4  19
ATOM     19  C   UNL     1       8.473   9.277  17.808  0.00  0.00    +0.000 C 
BRANCH  19  20
ATOM     20  C   UNL     1       9.000   9.822  19.142  0.00  0.00    +0.000 C 
BRANCH  20  21
ATOM     21  N   UNL     1       9.488  11.205  19.004  0.00  0.00    +0.000 NA
ATOM     22  H   UNL     1       9.538  11.629  19.963  0.00  0.00    +0.000 HD
BRANCH  21  23
ATOM     23  C   UNL     1      10.844  11.273  18.422  0.00  0.00    +0.000 C 
BRANCH  23  24
ATOM     24  C   UNL     1      11.055  12.543  17.560  0.00  0.00    +0.000 C 
BRANCH  24  25
ATOM     25  C   UNL     1      10.843  13.810  18.364  0.00  0.00    +0.000 A 
ATOM     26  C   UNL     1      11.571  14.031  19.544  0.00  0.00    +0.000 A 
ATOM     27  C   UNL     1      11.380  15.203  20.279  0.00  0.00    +0.000 A 
ATOM     28  C   UNL     1      10.451  16.145  19.834  0.00  0.00    +0.000 A 
ATOM     29  N   UNL     1       9.749  15.921  18.692  0.00  0.00    +0.000 NA
ATOM     30  C   UNL     1       9.924  14.793  17.953  0.00  0.00    +0.000 A 
ENDBRANCH  24  25
BRANCH  24  31
ATOM     31  O   UNL     1      12.322  12.545  16.952  0.00  0.00    +0.000 OA
ATOM     32  H   UNL     1      13.010  12.478  17.663  0.00  0.00    +0.000 HD
ENDBRANCH  24  31
ENDBRANCH  23  24
ENDBRANCH  21  23
ENDBRANCH  20  21
ENDBRANCH  19  20
ENDBRANCH   4  19
TORSDOF 10
ENDMDL
MODEL 9
REMARK VINA RESULT:      -7.3      2.991      8.800
REMARK  Name = 
REMARK  11 active torsions:
REMARK  status: ('A' for Active; 'I' for Inactive)
REMARK    1  A    between atoms: C_1  and  C_2
REMARK    2  A    between atoms: N_5  and  S_6
REMARK    3  A    between atoms: S_6  and  N_9
REMARK    4  A    between atoms: N_9  and  C_10
REMARK    5  A    between atoms: C_13  and  C_14
REMARK    6  A    between atoms: C_14  and  C_15
REMARK    7  A    between atoms: C_15  and  N_16
REMARK    8  A    between atoms: N_16  and  C_17
REMARK    9  A    between atoms: C_17  and  C_18
REMARK   10  A    between atoms: C_18  and  O_19
REMARK   11  A    between atoms: C_18  and  C_20
REMARK                            x       y       z     vdW  Elec       q    Type
REMARK                         _______ _______ _______ _____ _____    ______ ____
ROOT
ATOM      1  C   UNL     1       2.063   7.096  20.240  0.00  0.00    +0.000 A 
ATOM      2  C   UNL     1       1.587   5.972  20.921  0.00  0.00    +0.000 A 
ATOM      3  C   UNL     1       1.398   4.762  20.237  0.00  0.00    +0.000 A 
ATOM      4  C   UNL     1       1.707   4.667  18.867  0.00  0.00    +0.000 A 
ATOM      5  C   UNL     1       2.213   5.794  18.200  0.00  0.00    +0.000 A 
ATOM      6  C   UNL     1       2.374   7.001  18.879  0.00  0.00    +0.000 A 
ENDROOT
BRANCH   1   7
ATOM      7  N   UNL     1       2.240   8.333  20.905  0.00  0.00    +0.000 N 
ATOM      8  H   UNL     1       2.898   8.330  21.695  0.00  0.00    +0.000 HD
BRANCH   7   9
ATOM      9  S   UNL     1       0.835   9.317  21.255  0.00  0.00    +0.000 S 
ATOM     10  O   UNL     1       0.807   9.624  22.760  0.00  0.00    +0.000 OA
ATOM     11  O   UNL     1      -0.426   8.493  20.954  0.00  0.00    +0.000 OA
BRANCH   9  16
ATOM     12  C   UNL     1      -2.109   9.848  17.222  0.00  0.00    +0.000 C 
ATOM     13  C   UNL     1      -1.058  10.625  18.022  0.00  0.00    +0.000 C 
ATOM     14  C   UNL     1       0.291   9.883  17.996  0.00  0.00    +0.000 C 
ATOM     15  C   UNL     1       1.325  10.607  18.875  0.00  0.00    +0.000 C 
ATOM     16  N   UNL     1       0.843  10.807  20.255  0.00  0.00    +0.000 NA
ATOM     17  C   UNL     1      -0.440  11.539  20.283  0.00  0.00    +0.000 C 
ATOM     18  C   UNL     1      -1.527  10.818  19.475  0.00  0.00    +0.000 C 
ENDBRANCH   9  16
ENDBRANCH   7   9
ENDBRANCH   1   7
BRANCH   4  19
ATOM     19  C   UNL     1       1.506   3.375  18.109  0.00  0.00    +0.000 C 
BRANCH  19  20
ATOM     20  C   UNL     1       2.684   3.062  17.176  0.00  0.00    +0.000 C 
BRANCH  20  21
ATOM     21  N   UNL     1       3.784   2.401  17.902  0.00  0.00    +0.000 NA
ATOM     22  H   UNL     1       4.186   1.660  17.276  0.00  0.00    +0.000 HD
BRANCH  21  23
ATOM     23  C   UNL     1       4.878   3.330  18.245  0.00  0.00    +0.000 C 
BRANCH  23  24
ATOM     24  C   UNL     1       5.360   4.153  17.024  0.00  0.00    +0.000 C 
BRANCH  24  25
ATOM     25  C   UNL     1       6.330   5.245  17.430  0.00  0.00    +0.000 A 
ATOM     26  C   UNL     1       6.881   5.261  18.720  0.00  0.00    +0.000 A 
ATOM     27  C   UNL     1       7.780   6.264  19.089  0.00  0.00    +0.000 A 
ATOM     28  C   UNL     1       8.115   7.254  18.164  0.00  0.00    +0.000 A 
ATOM     29  N   UNL     1       7.574   7.232  16.918  0.00  0.00    +0.000 NA
ATOM     30  C   UNL     1       6.705   6.262  16.532  0.00  0.00    +0.000 A 
ENDBRANCH  24  25
BRANCH  24  31
ATOM     31  O   UNL     1       5.927   3.325  16.039  0.00  0.00    +0.000 OA
ATOM     32  H   UNL     1       6.823   3.036  16.352  0.00  0.00    +0.000 HD
ENDBRANCH  24  31
ENDBRANCH  23  24
ENDBRANCH  21  23
ENDBRANCH  20  21
ENDBRANCH  19  20
ENDBRANCH   4  19
TORSDOF 10
ENDMDL
