MODEL 1
REMARK VINA RESULT:      -7.1      0.000      0.000
REMARK  Name = 
REMARK  6 active torsions:
REMARK  status: ('A' for Active; 'I' for Inactive)
REMARK    1  A    between atoms: C_1  and  O_2
REMARK    2  A    between atoms: O_2  and  C_3
REMARK    3  A    between atoms: C_8  and  C_9
REMARK    4  A    between atoms: N_11  and  C_12
REMARK    5  A    between atoms: C_16  and  C_17
REMARK    6  A    between atoms: C_17  and  O_19
REMARK                            x       y       z     vdW  Elec       q    Type
REMARK                         _______ _______ _______ _____ _____    ______ ____
ROOT
ATOM      1  C   UNL     1       3.755   4.454  17.981  0.00  0.00    +0.000 C 
ATOM      2  O   UNL     1       3.446   5.582  17.602  0.00  0.00    +0.000 OA
ATOM      3  N   UNL     1       4.787   3.701  17.438  0.00  0.00    +0.000 N 
ATOM      4  H   UNL     1       5.007   2.838  17.917  0.00  0.00    +0.000 HD
ENDROOT
BRANCH   1  10
ATOM      5  C   UNL     1       3.476   3.002  20.114  0.00  0.00    +0.000 A 
ATOM      6  C   UNL     1       2.608   2.551  21.126  0.00  0.00    +0.000 A 
ATOM      7  C   UNL     1       1.284   2.993  21.196  0.00  0.00    +0.000 A 
ATOM      8  C   UNL     1       0.799   3.884  20.254  0.00  0.00    +0.000 A 
ATOM      9  C   UNL     1       1.637   4.319  19.231  0.00  0.00    +0.000 A 
ATOM     10  C   UNL     1       2.979   3.886  19.138  0.00  0.00    +0.000 A 
BRANCH   5  12
ATOM     11  C   UNL     1       5.141   1.434  20.768  0.00  0.00    +0.000 C 
ATOM     12  O   UNL     1       4.789   2.603  20.029  0.00  0.00    +0.000 OA
ENDBRANCH   5  12
ENDBRANCH   1  10
BRANCH   3  13
ATOM     13  C   UNL     1       5.601   4.087  16.343  0.00  0.00    +0.000 A 
ATOM     14  C   UNL     1       6.730   4.902  16.487  0.00  0.00    +0.000 A 
ATOM     15  C   UNL     1       7.531   5.239  15.396  0.00  0.00    +0.000 A 
ATOM     16  C   UNL     1       7.211   4.763  14.131  0.00  0.00    +0.000 A 
ATOM     17  C   UNL     1       6.078   3.961  13.955  0.00  0.00    +0.000 A 
ATOM     18  C   UNL     1       5.259   3.642  15.057  0.00  0.00    +0.000 A 
BRANCH  17  19
ATOM     19  C   UNL     1       5.776   3.518  12.568  0.00  0.00    +0.000 C 
ATOM     20  O   UNL     1       4.640   3.417  12.136  0.00  0.00    +0.000 OA
BRANCH  19  21
ATOM     21  O   UNL     1       6.871   3.286  11.815  0.00  0.00    +0.000 OA
ATOM     22  H   UNL     1       6.793   3.554  10.882  0.00  0.00    +0.000 HD
ENDBRANCH  19  21
ENDBRANCH  17  19
ENDBRANCH   3  13
TORSDOF 5
ENDMDL
MODEL 2
REMARK VINA RESULT:      -7.0      0.985      2.197
REMARK  Name = 
REMARK  6 active torsions:
REMARK  status: ('A' for Active; 'I' for Inactive)
REMARK    1  A    between atoms: C_1  and  O_2
REMARK    2  A    between atoms: O_2  and  C_3
REMARK    3  A    between atoms: C_8  and  C_9
REMARK    4  A    between atoms: N_11  and  C_12
REMARK    5  A    between atoms: C_16  and  C_17
REMARK    6  A    between atoms: C_17  and  O_19
REMARK                            x       y       z     vdW  Elec       q    Type
REMARK                         _______ _______ _______ _____ _____    ______ ____
ROOT
ATOM      1  C   UNL     1       4.546   3.997  18.452  0.00  0.00    +0.000 C 
ATOM      2  O   UNL     1       5.679   3.798  18.886  0.00  0.00    +0.000 OA
ATOM      3  N   UNL     1       4.257   4.296  17.128  0.00  0.00    +0.000 N 
ATOM      4  H   UNL     1       3.276   4.325  16.882  0.00  0.00    +0.000 HD
ENDROOT
BRANCH   1  10
ATOM      5  C   UNL     1       2.280   4.700  19.504  0.00  0.00    +0.000 A 
ATOM      6  C   UNL     1       1.310   4.442  20.491  0.00  0.00    +0.000 A 
ATOM      7  C   UNL     1       1.430   3.353  21.359  0.00  0.00    +0.000 A 
ATOM      8  C   UNL     1       2.524   2.510  21.267  0.00  0.00    +0.000 A 
ATOM      9  C   UNL     1       3.506   2.767  20.314  0.00  0.00    +0.000 A 
ATOM     10  C   UNL     1       3.408   3.861  19.425  0.00  0.00    +0.000 A 
BRANCH   5  12
ATOM     11  C   UNL     1       2.498   7.041  19.140  0.00  0.00    +0.000 C 
ATOM     12  O   UNL     1       2.181   5.749  18.621  0.00  0.00    +0.000 OA
ENDBRANCH   5  12
ENDBRANCH   1  10
BRANCH   3  13
ATOM     13  C   UNL     1       5.212   4.470  16.094  0.00  0.00    +0.000 A 
ATOM     14  C   UNL     1       6.375   5.234  16.256  0.00  0.00    +0.000 A 
ATOM     15  C   UNL     1       7.313   5.360  15.231  0.00  0.00    +0.000 A 
ATOM     16  C   UNL     1       7.101   4.720  14.017  0.00  0.00    +0.000 A 
ATOM     17  C   UNL     1       5.939   3.964  13.822  0.00  0.00    +0.000 A 
ATOM     18  C   UNL     1       4.983   3.858  14.852  0.00  0.00    +0.000 A 
BRANCH  17  19
ATOM     19  C   UNL     1       5.760   3.337  12.486  0.00  0.00    +0.000 C 
ATOM     20  O   UNL     1       4.718   3.403  11.856  0.00  0.00    +0.000 OA
BRANCH  19  21
ATOM     21  O   UNL     1       6.869   2.733  12.009  0.00  0.00    +0.000 OA
ATOM     22  H   UNL     1       7.486   2.411  12.689  0.00  0.00    +0.000 HD
ENDBRANCH  19  21
ENDBRANCH  17  19
ENDBRANCH   3  13
TORSDOF 5
ENDMDL
MODEL 3
REMARK VINA RESULT:      -6.8      1.420      2.222
REMARK  Name = 
REMARK  6 active torsions:
REMARK  status: ('A' for Active; 'I' for Inactive)
REMARK    1  A    between atoms: C_1  and  O_2
REMARK    2  A    between atoms: O_2  and  C_3
REMARK    3  A    between atoms: C_8  and  C_9
REMARK    4  A    between atoms: N_11  and  C_12
REMARK    5  A    between atoms: C_16  and  C_17
REMARK    6  A    between atoms: C_17  and  O_19
REMARK                            x       y       z     vdW  Elec       q    Type
REMARK                         _______ _______ _______ _____ _____    ______ ____
ROOT
ATOM      1  C   UNL     1       3.932   3.681  17.603  0.00  0.00    +0.000 C 
ATOM      2  O   UNL     1       4.388   2.543  17.501  0.00  0.00    +0.000 OA
ATOM      3  N   UNL     1       4.290   4.743  16.786  0.00  0.00    +0.000 N 
ATOM      4  H   UNL     1       3.758   5.595  16.904  0.00  0.00    +0.000 HD
ENDROOT
BRANCH   1  10
ATOM      5  C   UNL     1       2.631   5.118  19.328  0.00  0.00    +0.000 A 
ATOM      6  C   UNL     1       1.623   5.153  20.310  0.00  0.00    +0.000 A 
ATOM      7  C   UNL     1       0.854   4.023  20.602  0.00  0.00    +0.000 A 
ATOM      8  C   UNL     1       1.085   2.835  19.928  0.00  0.00    +0.000 A 
ATOM      9  C   UNL     1       2.096   2.777  18.974  0.00  0.00    +0.000 A 
ATOM     10  C   UNL     1       2.887   3.905  18.661  0.00  0.00    +0.000 A 
BRANCH   5  12
ATOM     11  C   UNL     1       2.670   7.384  18.603  0.00  0.00    +0.000 C 
ATOM     12  O   UNL     1       3.390   6.217  19.003  0.00  0.00    +0.000 OA
ENDBRANCH   5  12
ENDBRANCH   1  10
BRANCH   3  13
ATOM     13  C   UNL     1       5.263   4.699  15.755  0.00  0.00    +0.000 A 
ATOM     14  C   UNL     1       6.520   5.307  15.871  0.00  0.00    +0.000 A 
ATOM     15  C   UNL     1       7.469   5.219  14.852  0.00  0.00    +0.000 A 
ATOM     16  C   UNL     1       7.174   4.517  13.691  0.00  0.00    +0.000 A 
ATOM     17  C   UNL     1       5.919   3.915  13.541  0.00  0.00    +0.000 A 
ATOM     18  C   UNL     1       4.955   4.026  14.563  0.00  0.00    +0.000 A 
BRANCH  17  19
ATOM     19  C   UNL     1       5.659   3.211  12.257  0.00  0.00    +0.000 C 
ATOM     20  O   UNL     1       4.628   3.350  11.622  0.00  0.00    +0.000 OA
BRANCH  19  21
ATOM     21  O   UNL     1       6.686   2.446  11.832  0.00  0.00    +0.000 OA
ATOM     22  H   UNL     1       7.481   2.937  11.562  0.00  0.00    +0.000 HD
ENDBRANCH  19  21
ENDBRANCH  17  19
ENDBRANCH   3  13
TORSDOF 5
ENDMDL
MODEL 4
REMARK VINA RESULT:      -6.8      1.147      1.387
REMARK  Name = 
REMARK  6 active torsions:
REMARK  status: ('A' for Active; 'I' for Inactive)
REMARK    1  A    between atoms: C_1  and  O_2
REMARK    2  A    between atoms: O_2  and  C_3
REMARK    3  A    between atoms: C_8  and  C_9
REMARK    4  A    between atoms: N_11  and  C_12
REMARK    5  A    between atoms: C_16  and  C_17
REMARK    6  A    between atoms: C_17  and  O_19
REMARK                            x       y       z     vdW  Elec       q    Type
REMARK                         _______ _______ _______ _____ _____    ______ ____
ROOT
ATOM      1  C   UNL     1       3.705   4.890  17.613  0.00  0.00    +0.000 C 
ATOM      2  O   UNL     1       3.607   6.070  17.279  0.00  0.00    +0.000 OA
ATOM      3  N   UNL     1       4.604   3.992  17.056  0.00  0.00    +0.000 N 
ATOM      4  H   UNL     1       4.658   3.084  17.499  0.00  0.00    +0.000 HD
ENDROOT
BRANCH   1  10
ATOM      5  C   UNL     1       2.362   3.101  18.928  0.00  0.00    +0.000 A 
ATOM      6  C   UNL     1       1.513   2.832  20.017  0.00  0.00    +0.000 A 
ATOM      7  C   UNL     1       1.146   3.837  20.917  0.00  0.00    +0.000 A 
ATOM      8  C   UNL     1       1.609   5.130  20.740  0.00  0.00    +0.000 A 
ATOM      9  C   UNL     1       2.428   5.417  19.651  0.00  0.00    +0.000 A 
ATOM     10  C   UNL     1       2.812   4.420  18.728  0.00  0.00    +0.000 A 
BRANCH   5  12
ATOM     11  C   UNL     1       3.677   1.158  18.534  0.00  0.00    +0.000 C 
ATOM     12  O   UNL     1       2.758   2.131  18.037  0.00  0.00    +0.000 OA
ENDBRANCH   5  12
ENDBRANCH   1  10
BRANCH   3  13
ATOM     13  C   UNL     1       5.502   4.275  15.994  0.00  0.00    +0.000 A 
ATOM     14  C   UNL     1       6.621   5.102  16.148  0.00  0.00    +0.000 A 
ATOM     15  C   UNL     1       7.505   5.336  15.094  0.00  0.00    +0.000 A 
ATOM     16  C   UNL     1       7.280   4.743  13.859  0.00  0.00    +0.000 A 
ATOM     17  C   UNL     1       6.158   3.926  13.672  0.00  0.00    +0.000 A 
ATOM     18  C   UNL     1       5.256   3.711  14.733  0.00  0.00    +0.000 A 
BRANCH  17  19
ATOM     19  C   UNL     1       5.960   3.354  12.314  0.00  0.00    +0.000 C 
ATOM     20  O   UNL     1       6.849   2.795  11.694  0.00  0.00    +0.000 OA
BRANCH  19  21
ATOM     21  O   UNL     1       4.698   3.464  11.850  0.00  0.00    +0.000 OA
ATOM     22  H   UNL     1       4.554   4.188  11.216  0.00  0.00    +0.000 HD
ENDBRANCH  19  21
ENDBRANCH  17  19
ENDBRANCH   3  13
TORSDOF 5
ENDMDL
MODEL 5
REMARK VINA RESULT:      -6.6      1.928      2.700
REMARK  Name = 
REMARK  6 active torsions:
REMARK  status: ('A' for Active; 'I' for Inactive)
REMARK    1  A    between atoms: C_1  and  O_2
REMARK    2  A    between atoms: O_2  and  C_3
REMARK    3  A    between atoms: C_8  and  C_9
REMARK    4  A    between atoms: N_11  and  C_12
REMARK    5  A    between atoms: C_16  and  C_17
REMARK    6  A    between atoms: C_17  and  O_19
REMARK                            x       y       z     vdW  Elec       q    Type
REMARK                         _______ _______ _______ _____ _____    ______ ____
ROOT
ATOM      1  C   UNL     1       4.764   6.102  16.289  0.00  0.00    +0.000 C 
ATOM      2  O   UNL     1       5.118   7.154  15.760  0.00  0.00    +0.000 OA
ATOM      3  N   UNL     1       5.070   4.840  15.799  0.00  0.00    +0.000 N 
ATOM      4  H   UNL     1       4.815   4.059  16.390  0.00  0.00    +0.000 HD
ENDROOT
BRANCH   1  10
ATOM      5  C   UNL     1       3.992   5.275  18.624  0.00  0.00    +0.000 A 
ATOM      6  C   UNL     1       3.189   5.521  19.753  0.00  0.00    +0.000 A 
ATOM      7  C   UNL     1       2.422   6.685  19.860  0.00  0.00    +0.000 A 
ATOM      8  C   UNL     1       2.434   7.619  18.837  0.00  0.00    +0.000 A 
ATOM      9  C   UNL     1       3.203   7.378  17.702  0.00  0.00    +0.000 A 
ATOM     10  C   UNL     1       3.986   6.209  17.570  0.00  0.00    +0.000 A 
BRANCH   5  12
ATOM     11  C   UNL     1       4.570   3.130  19.475  0.00  0.00    +0.000 C 
ATOM     12  O   UNL     1       4.774   4.151  18.498  0.00  0.00    +0.000 OA
ENDBRANCH   5  12
ENDBRANCH   1  10
BRANCH   3  13
ATOM     13  C   UNL     1       5.783   4.569  14.603  0.00  0.00    +0.000 A 
ATOM     14  C   UNL     1       7.026   5.147  14.314  0.00  0.00    +0.000 A 
ATOM     15  C   UNL     1       7.719   4.837  13.143  0.00  0.00    +0.000 A 
ATOM     16  C   UNL     1       7.175   3.939  12.235  0.00  0.00    +0.000 A 
ATOM     17  C   UNL     1       5.926   3.361  12.490  0.00  0.00    +0.000 A 
ATOM     18  C   UNL     1       5.219   3.694  13.663  0.00  0.00    +0.000 A 
BRANCH  17  19
ATOM     19  C   UNL     1       5.388   2.437  11.457  0.00  0.00    +0.000 C 
ATOM     20  O   UNL     1       5.987   1.444  11.078  0.00  0.00    +0.000 OA
BRANCH  19  21
ATOM     21  O   UNL     1       4.157   2.765  11.013  0.00  0.00    +0.000 OA
ATOM     22  H   UNL     1       4.142   3.346  10.232  0.00  0.00    +0.000 HD
ENDBRANCH  19  21
ENDBRANCH  17  19
ENDBRANCH   3  13
TORSDOF 5
ENDMDL
MODEL 6
REMARK VINA RESULT:      -6.6      4.099      5.719
REMARK  Name = 
REMARK  6 active torsions:
REMARK  status: ('A' for Active; 'I' for Inactive)
REMARK    1  A    between atoms: C_1  and  O_2
REMARK    2  A    between atoms: O_2  and  C_3
REMARK    3  A    between atoms: C_8  and  C_9
REMARK    4  A    between atoms: N_11  and  C_12
REMARK    5  A    between atoms: C_16  and  C_17
REMARK    6  A    between atoms: C_17  and  O_19
REMARK                            x       y       z     vdW  Elec       q    Type
REMARK                         _______ _______ _______ _____ _____    ______ ____
ROOT
ATOM      1  C   UNL     1       1.996   7.070  20.000  0.00  0.00    +0.000 C 
ATOM      2  O   UNL     1       1.845   6.051  20.672  0.00  0.00    +0.000 OA
ATOM      3  N   UNL     1       2.685   7.118  18.797  0.00  0.00    +0.000 N 
ATOM      4  H   UNL     1       2.637   7.993  18.292  0.00  0.00    +0.000 HD
ENDROOT
BRANCH   1  10
ATOM      5  C   UNL     1       1.001   9.452  19.740  0.00  0.00    +0.000 A 
ATOM      6  C   UNL     1       0.412  10.558  20.380  0.00  0.00    +0.000 A 
ATOM      7  C   UNL     1       0.132  10.540  21.750  0.00  0.00    +0.000 A 
ATOM      8  C   UNL     1       0.445   9.424  22.507  0.00  0.00    +0.000 A 
ATOM      9  C   UNL     1       1.053   8.332  21.893  0.00  0.00    +0.000 A 
ATOM     10  C   UNL     1       1.346   8.326  20.511  0.00  0.00    +0.000 A 
BRANCH   5  12
ATOM     11  C   UNL     1       2.020  10.531  17.880  0.00  0.00    +0.000 C 
ATOM     12  O   UNL     1       1.269   9.430  18.392  0.00  0.00    +0.000 OA
ENDBRANCH   5  12
ENDBRANCH   1  10
BRANCH   3  13
ATOM     13  C   UNL     1       3.360   6.029  18.189  0.00  0.00    +0.000 A 
ATOM     14  C   UNL     1       2.704   4.856  17.793  0.00  0.00    +0.000 A 
ATOM     15  C   UNL     1       3.389   3.814  17.167  0.00  0.00    +0.000 A 
ATOM     16  C   UNL     1       4.752   3.928  16.927  0.00  0.00    +0.000 A 
ATOM     17  C   UNL     1       5.436   5.081  17.329  0.00  0.00    +0.000 A 
ATOM     18  C   UNL     1       4.745   6.122  17.981  0.00  0.00    +0.000 A 
BRANCH  17  19
ATOM     19  C   UNL     1       6.900   5.119  17.073  0.00  0.00    +0.000 C 
ATOM     20  O   UNL     1       7.417   5.901  16.293  0.00  0.00    +0.000 OA
BRANCH  19  21
ATOM     21  O   UNL     1       7.611   4.247  17.818  0.00  0.00    +0.000 OA
ATOM     22  H   UNL     1       8.391   3.869  17.375  0.00  0.00    +0.000 HD
ENDBRANCH  19  21
ENDBRANCH  17  19
ENDBRANCH   3  13
TORSDOF 5
ENDMDL
MODEL 7
REMARK VINA RESULT:      -6.6      1.602      2.054
REMARK  Name = 
REMARK  6 active torsions:
REMARK  status: ('A' for Active; 'I' for Inactive)
REMARK    1  A    between atoms: C_1  and  O_2
REMARK    2  A    between atoms: O_2  and  C_3
REMARK    3  A    between atoms: C_8  and  C_9
REMARK    4  A    between atoms: N_11  and  C_12
REMARK    5  A    between atoms: C_16  and  C_17
REMARK    6  A    between atoms: C_17  and  O_19
REMARK                            x       y       z     vdW  Elec       q    Type
REMARK                         _______ _______ _______ _____ _____    ______ ____
ROOT
ATOM      1  C   UNL     1       3.549   4.837  17.540  0.00  0.00    +0.000 C 
ATOM      2  O   UNL     1       3.539   6.036  17.266  0.00  0.00    +0.000 OA
ATOM      3  N   UNL     1       4.388   3.906  16.944  0.00  0.00    +0.000 N 
ATOM      4  H   UNL     1       4.374   2.976  17.341  0.00  0.00    +0.000 HD
ENDROOT
BRANCH   1  10
ATOM      5  C   UNL     1       2.306   5.077  19.805  0.00  0.00    +0.000 A 
ATOM      6  C   UNL     1       1.420   4.493  20.730  0.00  0.00    +0.000 A 
ATOM      7  C   UNL     1       0.819   3.257  20.477  0.00  0.00    +0.000 A 
ATOM      8  C   UNL     1       1.099   2.576  19.304  0.00  0.00    +0.000 A 
ATOM      9  C   UNL     1       1.994   3.128  18.392  0.00  0.00    +0.000 A 
ATOM     10  C   UNL     1       2.615   4.376  18.625  0.00  0.00    +0.000 A 
BRANCH   5  12
ATOM     11  C   UNL     1       2.016   7.422  20.086  0.00  0.00    +0.000 C 
ATOM     12  O   UNL     1       2.897   6.301  20.014  0.00  0.00    +0.000 OA
ENDBRANCH   5  12
ENDBRANCH   1  10
BRANCH   3  13
ATOM     13  C   UNL     1       5.313   4.177  15.903  0.00  0.00    +0.000 A 
ATOM     14  C   UNL     1       6.435   4.996  16.080  0.00  0.00    +0.000 A 
ATOM     15  C   UNL     1       7.346   5.219  15.048  0.00  0.00    +0.000 A 
ATOM     16  C   UNL     1       7.147   4.621  13.810  0.00  0.00    +0.000 A 
ATOM     17  C   UNL     1       6.024   3.812  13.599  0.00  0.00    +0.000 A 
ATOM     18  C   UNL     1       5.094   3.609  14.639  0.00  0.00    +0.000 A 
BRANCH  17  19
ATOM     19  C   UNL     1       5.855   3.235  12.240  0.00  0.00    +0.000 C 
ATOM     20  O   UNL     1       4.865   3.430  11.554  0.00  0.00    +0.000 OA
BRANCH  19  21
ATOM     21  O   UNL     1       6.915   2.518  11.811  0.00  0.00    +0.000 OA
ATOM     22  H   UNL     1       7.717   2.603  12.356  0.00  0.00    +0.000 HD
ENDBRANCH  19  21
ENDBRANCH  17  19
ENDBRANCH   3  13
TORSDOF 5
ENDMDL
MODEL 8
REMARK VINA RESULT:      -6.5      2.296      6.936
REMARK  Name = 
REMARK  6 active torsions:
REMARK  status: ('A' for Active; 'I' for Inactive)
REMARK    1  A    between atoms: C_1  and  O_2
REMARK    2  A    between atoms: O_2  and  C_3
REMARK    3  A    between atoms: C_8  and  C_9
REMARK    4  A    between atoms: N_11  and  C_12
REMARK    5  A    between atoms: C_16  and  C_17
REMARK    6  A    between atoms: C_17  and  O_19
REMARK                            x       y       z     vdW  Elec       q    Type
REMARK                         _______ _______ _______ _____ _____    ______ ____
ROOT
ATOM      1  C   UNL     1       4.623   4.439  16.721  0.00  0.00    +0.000 C 
ATOM      2  O   UNL     1       4.307   3.334  17.159  0.00  0.00    +0.000 OA
ATOM      3  N   UNL     1       4.236   5.645  17.290  0.00  0.00    +0.000 N 
ATOM      4  H   UNL     1       4.658   6.476  16.897  0.00  0.00    +0.000 HD
ENDROOT
BRANCH   1  10
ATOM      5  C   UNL     1       6.826   4.989  15.467  0.00  0.00    +0.000 A 
ATOM      6  C   UNL     1       7.529   4.949  14.248  0.00  0.00    +0.000 A 
ATOM      7  C   UNL     1       6.970   4.366  13.107  0.00  0.00    +0.000 A 
ATOM      8  C   UNL     1       5.697   3.824  13.158  0.00  0.00    +0.000 A 
ATOM      9  C   UNL     1       4.979   3.880  14.350  0.00  0.00    +0.000 A 
ATOM     10  C   UNL     1       5.521   4.464  15.516  0.00  0.00    +0.000 A 
BRANCH   5  12
ATOM     11  C   UNL     1       7.719   4.615  17.640  0.00  0.00    +0.000 C 
ATOM     12  O   UNL     1       7.356   5.536  16.612  0.00  0.00    +0.000 OA
ENDBRANCH   5  12
ENDBRANCH   1  10
BRANCH   3  13
ATOM     13  C   UNL     1       3.386   5.791  18.416  0.00  0.00    +0.000 A 
ATOM     14  C   UNL     1       2.894   7.032  18.838  0.00  0.00    +0.000 A 
ATOM     15  C   UNL     1       2.033   7.142  19.930  0.00  0.00    +0.000 A 
ATOM     16  C   UNL     1       1.649   6.003  20.624  0.00  0.00    +0.000 A 
ATOM     17  C   UNL     1       2.140   4.751  20.235  0.00  0.00    +0.000 A 
ATOM     18  C   UNL     1       3.028   4.648  19.145  0.00  0.00    +0.000 A 
BRANCH  17  19
ATOM     19  C   UNL     1       1.716   3.580  21.046  0.00  0.00    +0.000 C 
ATOM     20  O   UNL     1       2.307   3.218  22.050  0.00  0.00    +0.000 OA
BRANCH  19  21
ATOM     21  O   UNL     1       0.589   2.983  20.603  0.00  0.00    +0.000 OA
ATOM     22  H   UNL     1      -0.115   3.592  20.319  0.00  0.00    +0.000 HD
ENDBRANCH  19  21
ENDBRANCH  17  19
ENDBRANCH   3  13
TORSDOF 5
ENDMDL
MODEL 9
REMARK VINA RESULT:      -6.4      4.896      8.503
REMARK  Name = 
REMARK  6 active torsions:
REMARK  status: ('A' for Active; 'I' for Inactive)
REMARK    1  A    between atoms: C_1  and  O_2
REMARK    2  A    between atoms: O_2  and  C_3
REMARK    3  A    between atoms: C_8  and  C_9
REMARK    4  A    between atoms: N_11  and  C_12
REMARK    5  A    between atoms: C_16  and  C_17
REMARK    6  A    between atoms: C_17  and  O_19
REMARK                            x       y       z     vdW  Elec       q    Type
REMARK                         _______ _______ _______ _____ _____    ______ ____
ROOT
ATOM      1  C   UNL     1       2.695   7.750  18.081  0.00  0.00    +0.000 C 
ATOM      2  O   UNL     1       2.582   8.612  17.210  0.00  0.00    +0.000 OA
ATOM      3  N   UNL     1       2.066   7.799  19.316  0.00  0.00    +0.000 N 
ATOM      4  H   UNL     1       2.154   6.974  19.893  0.00  0.00    +0.000 HD
ENDROOT
BRANCH   1  10
ATOM      5  C   UNL     1       3.164   5.205  17.896  0.00  0.00    +0.000 A 
ATOM      6  C   UNL     1       4.088   4.200  17.554  0.00  0.00    +0.000 A 
ATOM      7  C   UNL     1       5.349   4.517  17.039  0.00  0.00    +0.000 A 
ATOM      8  C   UNL     1       5.714   5.842  16.868  0.00  0.00    +0.000 A 
ATOM      9  C   UNL     1       4.821   6.848  17.227  0.00  0.00    +0.000 A 
ATOM     10  C   UNL     1       3.542   6.553  17.750  0.00  0.00    +0.000 A 
BRANCH   5  12
ATOM     11  C   UNL     1       1.477   3.570  18.271  0.00  0.00    +0.000 C 
ATOM     12  O   UNL     1       1.910   4.926  18.384  0.00  0.00    +0.000 OA
ENDBRANCH   5  12
ENDBRANCH   1  10
BRANCH   3  13
ATOM     13  C   UNL     1       1.247   8.860  19.783  0.00  0.00    +0.000 A 
ATOM     14  C   UNL     1       0.746   9.859  18.940  0.00  0.00    +0.000 A 
ATOM     15  C   UNL     1      -0.084  10.872  19.421  0.00  0.00    +0.000 A 
ATOM     16  C   UNL     1      -0.427  10.902  20.767  0.00  0.00    +0.000 A 
ATOM     17  C   UNL     1       0.075   9.926  21.636  0.00  0.00    +0.000 A 
ATOM     18  C   UNL     1       0.931   8.918  21.149  0.00  0.00    +0.000 A 
BRANCH  17  19
ATOM     19  C   UNL     1      -0.304  10.042  23.069  0.00  0.00    +0.000 C 
ATOM     20  O   UNL     1       0.378   9.592  23.974  0.00  0.00    +0.000 OA
BRANCH  19  21
ATOM     21  O   UNL     1      -1.443  10.734  23.282  0.00  0.00    +0.000 OA
ATOM     22  H   UNL     1      -1.573  11.042  24.196  0.00  0.00    +0.000 HD
ENDBRANCH  19  21
ENDBRANCH  17  19
ENDBRANCH   3  13
TORSDOF 5
ENDMDL
