MODEL 1
REMARK VINA RESULT:      -4.6      0.000      0.000
REMARK  Name = 
REMARK  3 active torsions:
REMARK  status: ('A' for Active; 'I' for Inactive)
REMARK    1  A    between atoms: C_1  and  N_2
REMARK    2  A    between atoms: N_2  and  C_3
REMARK    3  A    between atoms: C_3  and  C_4
REMARK                            x       y       z     vdW  Elec       q    Type
REMARK                         _______ _______ _______ _____ _____    ______ ____
ROOT
ATOM      1  C   UNL     1       5.975   5.366  17.670  0.00  0.00    +0.000 C 
ATOM      2  C   UNL     1       4.922   5.224  16.558  0.00  0.00    +0.000 C 
ATOM      3  C   UNL     1       5.530   5.492  15.185  0.00  0.00    +0.000 C 
ATOM      4  C   UNL     1       6.784   4.657  14.981  0.00  0.00    +0.000 C 
ATOM      5  O   UNL     1       7.726   4.922  16.014  0.00  0.00    +0.000 OA
ATOM      6  C   UNL     1       7.231   4.565  17.305  0.00  0.00    +0.000 C 
ENDROOT
BRANCH   1   7
ATOM      7  C   UNL     1       5.377   4.943  19.027  0.00  0.00    +0.000 C 
BRANCH   7   9
ATOM      8  C   UNL     1       4.275   2.876  19.619  0.00  0.00    +0.000 C 
ATOM      9  N   UNL     1       5.543   3.511  19.284  0.00  0.00    +0.000 NA
ATOM     10  H   UNL     1       5.923   3.045  18.459  0.00  0.00    +0.000 HD
ENDBRANCH   7   9
ENDBRANCH   1   7
TORSDOF 2
ENDMDL
MODEL 2
REMARK VINA RESULT:      -4.4      2.900      4.157
REMARK  Name = 
REMARK  3 active torsions:
REMARK  status: ('A' for Active; 'I' for Inactive)
REMARK    1  A    between atoms: C_1  and  N_2
REMARK    2  A    between atoms: N_2  and  C_3
REMARK    3  A    between atoms: C_3  and  C_4
REMARK                            x       y       z     vdW  Elec       q    Type
REMARK                         _______ _______ _______ _____ _____    ______ ____
ROOT
ATOM      1  C   UNL     1       3.980   4.123  17.874  0.00  0.00    +0.000 C 
ATOM      2  C   UNL     1       2.701   4.941  18.124  0.00  0.00    +0.000 C 
ATOM      3  C   UNL     1       1.456   4.147  17.744  0.00  0.00    +0.000 C 
ATOM      4  C   UNL     1       1.471   2.777  18.404  0.00  0.00    +0.000 C 
ATOM      5  O   UNL     1       2.652   2.070  18.044  0.00  0.00    +0.000 OA
ATOM      6  C   UNL     1       3.837   2.728  18.496  0.00  0.00    +0.000 C 
ENDROOT
BRANCH   1   7
ATOM      7  C   UNL     1       5.211   4.885  18.405  0.00  0.00    +0.000 C 
BRANCH   7   9
ATOM      8  C   UNL     1       7.511   4.691  17.691  0.00  0.00    +0.000 C 
ATOM      9  N   UNL     1       6.416   4.053  18.412  0.00  0.00    +0.000 NA
ATOM     10  H   UNL     1       6.725   3.883  19.369  0.00  0.00    +0.000 HD
ENDBRANCH   7   9
ENDBRANCH   1   7
TORSDOF 2
ENDMDL
MODEL 3
REMARK VINA RESULT:      -4.4      3.357      5.580
REMARK  Name = 
REMARK  3 active torsions:
REMARK  status: ('A' for Active; 'I' for Inactive)
REMARK    1  A    between atoms: C_1  and  N_2
REMARK    2  A    between atoms: N_2  and  C_3
REMARK    3  A    between atoms: C_3  and  C_4
REMARK                            x       y       z     vdW  Elec       q    Type
REMARK                         _______ _______ _______ _____ _____    ______ ____
ROOT
ATOM      1  C   UNL     1       2.694   2.127  19.199  0.00  0.00    +0.000 C 
ATOM      2  C   UNL     1       1.532   3.132  19.265  0.00  0.00    +0.000 C 
ATOM      3  C   UNL     1       1.003   3.273  20.688  0.00  0.00    +0.000 C 
ATOM      4  C   UNL     1       2.141   3.556  21.657  0.00  0.00    +0.000 C 
ATOM      5  O   UNL     1       3.121   2.527  21.580  0.00  0.00    +0.000 OA
ATOM      6  C   UNL     1       3.725   2.451  20.288  0.00  0.00    +0.000 C 
ENDROOT
BRANCH   1   7
ATOM      7  C   UNL     1       3.309   2.115  17.785  0.00  0.00    +0.000 C 
BRANCH   7   9
ATOM      8  C   UNL     1       4.362   4.072  16.838  0.00  0.00    +0.000 C 
ATOM      9  N   UNL     1       4.533   2.914  17.707  0.00  0.00    +0.000 NA
ATOM     10  H   UNL     1       4.797   3.250  18.633  0.00  0.00    +0.000 HD
ENDBRANCH   7   9
ENDBRANCH   1   7
TORSDOF 2
ENDMDL
MODEL 4
REMARK VINA RESULT:      -4.3      3.340      5.097
REMARK  Name = 
REMARK  3 active torsions:
REMARK  status: ('A' for Active; 'I' for Inactive)
REMARK    1  A    between atoms: C_1  and  N_2
REMARK    2  A    between atoms: N_2  and  C_3
REMARK    3  A    between atoms: C_3  and  C_4
REMARK                            x       y       z     vdW  Elec       q    Type
REMARK                         _______ _______ _______ _____ _____    ______ ____
ROOT
ATOM      1  C   UNL     1       3.280   3.353  19.301  0.00  0.00    +0.000 C 
ATOM      2  C   UNL     1       2.376   2.979  20.488  0.00  0.00    +0.000 C 
ATOM      3  C   UNL     1       0.910   3.257  20.175  0.00  0.00    +0.000 C 
ATOM      4  C   UNL     1       0.515   2.619  18.852  0.00  0.00    +0.000 C 
ATOM      5  O   UNL     1       1.355   3.092  17.806  0.00  0.00    +0.000 OA
ATOM      6  C   UNL     1       2.724   2.740  18.009  0.00  0.00    +0.000 C 
ENDROOT
BRANCH   1   7
ATOM      7  C   UNL     1       4.734   2.923  19.583  0.00  0.00    +0.000 C 
BRANCH   7   9
ATOM      8  C   UNL     1       5.369   5.216  19.164  0.00  0.00    +0.000 C 
ATOM      9  N   UNL     1       5.708   3.815  18.950  0.00  0.00    +0.000 NA
ATOM     10  H   UNL     1       6.639   3.652  19.333  0.00  0.00    +0.000 HD
ENDBRANCH   7   9
ENDBRANCH   1   7
TORSDOF 2
ENDMDL
MODEL 5
REMARK VINA RESULT:      -4.3      3.396      4.342
REMARK  Name = 
REMARK  3 active torsions:
REMARK  status: ('A' for Active; 'I' for Inactive)
REMARK    1  A    between atoms: C_1  and  N_2
REMARK    2  A    between atoms: N_2  and  C_3
REMARK    3  A    between atoms: C_3  and  C_4
REMARK                            x       y       z     vdW  Elec       q    Type
REMARK                         _______ _______ _______ _____ _____    ______ ____
ROOT
ATOM      1  C   UNL     1       1.784   3.577  18.063  0.00  0.00    +0.000 C 
ATOM      2  C   UNL     1       3.109   2.881  17.707  0.00  0.00    +0.000 C 
ATOM      3  C   UNL     1       4.014   3.799  16.893  0.00  0.00    +0.000 C 
ATOM      4  C   UNL     1       4.172   5.145  17.584  0.00  0.00    +0.000 C 
ATOM      5  O   UNL     1       2.898   5.744  17.794  0.00  0.00    +0.000 OA
ATOM      6  C   UNL     1       2.067   4.964  18.655  0.00  0.00    +0.000 C 
ENDROOT
BRANCH   1   7
ATOM      7  C   UNL     1       0.953   2.687  19.010  0.00  0.00    +0.000 C 
BRANCH   7   9
ATOM      8  C   UNL     1       1.385   2.718  21.387  0.00  0.00    +0.000 C 
ATOM      9  N   UNL     1       0.670   3.349  20.285  0.00  0.00    +0.000 NA
ATOM     10  H   UNL     1       0.950   4.329  20.246  0.00  0.00    +0.000 HD
ENDBRANCH   7   9
ENDBRANCH   1   7
TORSDOF 2
ENDMDL
MODEL 6
REMARK VINA RESULT:      -4.2      2.687      3.851
REMARK  Name = 
REMARK  3 active torsions:
REMARK  status: ('A' for Active; 'I' for Inactive)
REMARK    1  A    between atoms: C_1  and  N_2
REMARK    2  A    between atoms: N_2  and  C_3
REMARK    3  A    between atoms: C_3  and  C_4
REMARK                            x       y       z     vdW  Elec       q    Type
REMARK                         _______ _______ _______ _____ _____    ______ ____
ROOT
ATOM      1  C   UNL     1       4.702   3.969  18.485  0.00  0.00    +0.000 C 
ATOM      2  C   UNL     1       3.435   4.474  17.775  0.00  0.00    +0.000 C 
ATOM      3  C   UNL     1       2.610   3.314  17.227  0.00  0.00    +0.000 C 
ATOM      4  C   UNL     1       2.358   2.277  18.311  0.00  0.00    +0.000 C 
ATOM      5  O   UNL     1       3.593   1.813  18.845  0.00  0.00    +0.000 OA
ATOM      6  C   UNL     1       4.336   2.856  19.476  0.00  0.00    +0.000 C 
ENDROOT
BRANCH   1   7
ATOM      7  C   UNL     1       5.439   5.144  19.160  0.00  0.00    +0.000 C 
BRANCH   7   9
ATOM      8  C   UNL     1       7.387   4.716  17.796  0.00  0.00    +0.000 C 
ATOM      9  N   UNL     1       6.892   4.969  19.143  0.00  0.00    +0.000 NA
ATOM     10  H   UNL     1       7.354   5.807  19.498  0.00  0.00    +0.000 HD
ENDBRANCH   7   9
ENDBRANCH   1   7
TORSDOF 2
ENDMDL
MODEL 7
REMARK VINA RESULT:      -4.2      2.214      3.572
REMARK  Name = 
REMARK  3 active torsions:
REMARK  status: ('A' for Active; 'I' for Inactive)
REMARK    1  A    between atoms: C_1  and  N_2
REMARK    2  A    between atoms: N_2  and  C_3
REMARK    3  A    between atoms: C_3  and  C_4
REMARK                            x       y       z     vdW  Elec       q    Type
REMARK                         _______ _______ _______ _____ _____    ______ ____
ROOT
ATOM      1  C   UNL     1       5.715   5.488  17.499  0.00  0.00    +0.000 C 
ATOM      2  C   UNL     1       7.036   6.137  17.055  0.00  0.00    +0.000 C 
ATOM      3  C   UNL     1       7.759   6.780  18.234  0.00  0.00    +0.000 C 
ATOM      4  C   UNL     1       7.893   5.792  19.383  0.00  0.00    +0.000 C 
ATOM      5  O   UNL     1       6.611   5.314  19.774  0.00  0.00    +0.000 OA
ATOM      6  C   UNL     1       5.958   4.598  18.725  0.00  0.00    +0.000 C 
ENDROOT
BRANCH   1   7
ATOM      7  C   UNL     1       5.079   4.716  16.324  0.00  0.00    +0.000 C 
BRANCH   7   9
ATOM      8  C   UNL     1       6.211   3.865  14.368  0.00  0.00    +0.000 C 
ATOM      9  N   UNL     1       5.971   3.684  15.793  0.00  0.00    +0.000 NA
ATOM     10  H   UNL     1       6.871   3.711  16.272  0.00  0.00    +0.000 HD
ENDBRANCH   7   9
ENDBRANCH   1   7
TORSDOF 2
ENDMDL
MODEL 8
REMARK VINA RESULT:      -4.2      2.343      3.897
REMARK  Name = 
REMARK  3 active torsions:
REMARK  status: ('A' for Active; 'I' for Inactive)
REMARK    1  A    between atoms: C_1  and  N_2
REMARK    2  A    between atoms: N_2  and  C_3
REMARK    3  A    between atoms: C_3  and  C_4
REMARK                            x       y       z     vdW  Elec       q    Type
REMARK                         _______ _______ _______ _____ _____    ______ ____
ROOT
ATOM      1  C   UNL     1       5.692   4.529  17.195  0.00  0.00    +0.000 C 
ATOM      2  C   UNL     1       4.263   4.082  16.844  0.00  0.00    +0.000 C 
ATOM      3  C   UNL     1       3.810   2.931  17.736  0.00  0.00    +0.000 C 
ATOM      4  C   UNL     1       4.026   3.272  19.203  0.00  0.00    +0.000 C 
ATOM      5  O   UNL     1       5.393   3.590  19.439  0.00  0.00    +0.000 OA
ATOM      6  C   UNL     1       5.815   4.743  18.709  0.00  0.00    +0.000 C 
ENDROOT
BRANCH   1   7
ATOM      7  C   UNL     1       6.070   5.788  16.387  0.00  0.00    +0.000 C 
BRANCH   7   9
ATOM      8  C   UNL     1       6.962   4.778  14.383  0.00  0.00    +0.000 C 
ATOM      9  N   UNL     1       7.261   5.580  15.562  0.00  0.00    +0.000 NA
ATOM     10  H   UNL     1       7.637   6.475  15.249  0.00  0.00    +0.000 HD
ENDBRANCH   7   9
ENDBRANCH   1   7
TORSDOF 2
ENDMDL
MODEL 9
REMARK VINA RESULT:      -4.2      3.053      3.903
REMARK  Name = 
REMARK  3 active torsions:
REMARK  status: ('A' for Active; 'I' for Inactive)
REMARK    1  A    between atoms: C_1  and  N_2
REMARK    2  A    between atoms: N_2  and  C_3
REMARK    3  A    between atoms: C_3  and  C_4
REMARK                            x       y       z     vdW  Elec       q    Type
REMARK                         _______ _______ _______ _____ _____    ______ ____
ROOT
ATOM      1  C   UNL     1       2.434   3.719  18.764  0.00  0.00    +0.000 C 
ATOM      2  C   UNL     1       2.183   5.044  18.025  0.00  0.00    +0.000 C 
ATOM      3  C   UNL     1       3.494   5.750  17.695  0.00  0.00    +0.000 C 
ATOM      4  C   UNL     1       4.450   4.801  16.988  0.00  0.00    +0.000 C 
ATOM      5  O   UNL     1       4.682   3.648  17.788  0.00  0.00    +0.000 OA
ATOM      6  C   UNL     1       3.489   2.895  18.013  0.00  0.00    +0.000 C 
ENDROOT
BRANCH   1   7
ATOM      7  C   UNL     1       1.108   2.954  18.950  0.00  0.00    +0.000 C 
BRANCH   7   9
ATOM      8  C   UNL     1       1.423   2.784  21.339  0.00  0.00    +0.000 C 
ATOM      9  N   UNL     1       0.517   3.184  20.270  0.00  0.00    +0.000 NA
ATOM     10  H   UNL     1       0.298   4.172  20.393  0.00  0.00    +0.000 HD
ENDBRANCH   7   9
ENDBRANCH   1   7
TORSDOF 2
ENDMDL
