MODEL 1
REMARK VINA RESULT:      -8.5      0.000      0.000
REMARK  Name = 
REMARK  9 active torsions:
REMARK  status: ('A' for Active; 'I' for Inactive)
REMARK    1  A    between atoms: C_2  and  O_3
REMARK    2  A    between atoms: C_2  and  C_4
REMARK    3  A    between atoms: C_4  and  C_5
REMARK    4  A    between atoms: C_5  and  C_6
REMARK    5  A    between atoms: C_6  and  N_7
REMARK    6  A    between atoms: C_10  and  O_11
REMARK    7  A    between atoms: O_11  and  C_12
REMARK    8  A    between atoms: C_12  and  C_13
REMARK    9  A    between atoms: C_12  and  C_20
REMARK                            x       y       z     vdW  Elec       q    Type
REMARK                         _______ _______ _______ _____ _____    ______ ____
ROOT
ATOM      1  O   UNL     1       4.213   5.902  18.592  0.00  0.00    +0.000 OA
ENDROOT
BRANCH   1   5
ATOM      2  N   UNL     1       6.585   4.680  16.256  0.00  0.00    +0.000 NA
ATOM      3  C   UNL     1       6.723   5.897  17.081  0.00  0.00    +0.000 C 
ATOM      4  C   UNL     1       6.590   5.616  18.579  0.00  0.00    +0.000 C 
ATOM      5  C   UNL     1       5.249   4.953  18.895  0.00  0.00    +0.000 C 
ATOM      6  C   UNL     1       5.174   3.668  18.073  0.00  0.00    +0.000 C 
ATOM      7  C   UNL     1       5.333   3.960  16.580  0.00  0.00    +0.000 C 
BRANCH   2   8
ATOM      8  C   UNL     1       6.572   5.020  14.816  0.00  0.00    +0.000 C 
BRANCH   8   9
ATOM      9  C   UNL     1       5.642   4.173  13.938  0.00  0.00    +0.000 C 
BRANCH   9  10
ATOM     10  C   UNL     1       6.321   3.620  12.688  0.00  0.00    +0.000 C 
BRANCH  10  12
ATOM     11  O   UNL     1       4.263   3.149  11.476  0.00  0.00    +0.000 OA
ATOM     12  C   UNL     1       5.363   2.785  11.870  0.00  0.00    +0.000 C 
BRANCH  12  13
ATOM     13  O   UNL     1       5.850   1.551  11.609  0.00  0.00    +0.000 OA
ATOM     14  H   UNL     1       6.299   1.485  10.748  0.00  0.00    +0.000 HD
ENDBRANCH  12  13
ENDBRANCH  10  12
ENDBRANCH   9  10
ENDBRANCH   8   9
ENDBRANCH   2   8
ENDBRANCH   1   5
BRANCH   1  15
ATOM     15  C   UNL     1       3.183   6.086  19.587  0.00  0.00    +0.000 C 
BRANCH  15  16
ATOM     16  C   UNL     1       2.391   7.360  19.320  0.00  0.00    +0.000 A 
ATOM     17  C   UNL     1       2.480   8.016  18.080  0.00  0.00    +0.000 A 
ATOM     18  C   UNL     1       1.856   9.245  17.880  0.00  0.00    +0.000 A 
ATOM     19  C   UNL     1       1.123   9.824  18.912  0.00  0.00    +0.000 A 
ATOM     20 CL   UNL     1       0.427  11.381  18.693  0.00  0.00    +0.000 Cl
ATOM     21  C   UNL     1       0.970   9.159  20.127  0.00  0.00    +0.000 A 
ATOM     22  C   UNL     1       1.598   7.929  20.331  0.00  0.00    +0.000 A 
ENDBRANCH  15  16
BRANCH  15  23
ATOM     23  C   UNL     1       2.267   4.857  19.641  0.00  0.00    +0.000 A 
ATOM     24  C   UNL     1       2.018   4.198  20.848  0.00  0.00    +0.000 A 
ATOM     25  C   UNL     1       1.259   3.030  20.844  0.00  0.00    +0.000 A 
ATOM     26  C   UNL     1       0.760   2.547  19.642  0.00  0.00    +0.000 A 
ATOM     27  C   UNL     1       1.032   3.264  18.488  0.00  0.00    +0.000 A 
ATOM     28  N   UNL     1       1.768   4.399  18.459  0.00  0.00    +0.000 NA
ENDBRANCH  15  23
ENDBRANCH   1  15
TORSDOF 9
ENDMDL
MODEL 2
REMARK VINA RESULT:      -8.3      0.338      1.162
REMARK  Name = 
REMARK  9 active torsions:
REMARK  status: ('A' for Active; 'I' for Inactive)
REMARK    1  A    between atoms: C_2  and  O_3
REMARK    2  A    between atoms: C_2  and  C_4
REMARK    3  A    between atoms: C_4  and  C_5
REMARK    4  A    between atoms: C_5  and  C_6
REMARK    5  A    between atoms: C_6  and  N_7
REMARK    6  A    between atoms: C_10  and  O_11
REMARK    7  A    between atoms: O_11  and  C_12
REMARK    8  A    between atoms: C_12  and  C_13
REMARK    9  A    between atoms: C_12  and  C_20
REMARK                            x       y       z     vdW  Elec       q    Type
REMARK                         _______ _______ _______ _____ _____    ______ ____
ROOT
ATOM      1  O   UNL     1       4.230   6.020  18.408  0.00  0.00    +0.000 OA
ENDROOT
BRANCH   1   5
ATOM      2  N   UNL     1       6.676   4.932  16.082  0.00  0.00    +0.000 NA
ATOM      3  C   UNL     1       6.621   6.257  16.731  0.00  0.00    +0.000 C 
ATOM      4  C   UNL     1       6.615   6.170  18.259  0.00  0.00    +0.000 C 
ATOM      5  C   UNL     1       5.440   5.325  18.755  0.00  0.00    +0.000 C 
ATOM      6  C   UNL     1       5.570   3.946  18.112  0.00  0.00    +0.000 C 
ATOM      7  C   UNL     1       5.599   4.050  16.587  0.00  0.00    +0.000 C 
BRANCH   2   8
ATOM      8  C   UNL     1       6.530   5.059  14.615  0.00  0.00    +0.000 C 
BRANCH   8   9
ATOM      9  C   UNL     1       5.813   3.899  13.913  0.00  0.00    +0.000 C 
BRANCH   9  10
ATOM     10  C   UNL     1       6.360   3.599  12.519  0.00  0.00    +0.000 C 
BRANCH  10  12
ATOM     11  O   UNL     1       5.656   1.581  11.355  0.00  0.00    +0.000 OA
ATOM     12  C   UNL     1       5.413   2.718  11.738  0.00  0.00    +0.000 C 
BRANCH  12  13
ATOM     13  O   UNL     1       4.232   3.326  11.488  0.00  0.00    +0.000 OA
ATOM     14  H   UNL     1       3.833   3.738  12.274  0.00  0.00    +0.000 HD
ENDBRANCH  12  13
ENDBRANCH  10  12
ENDBRANCH   9  10
ENDBRANCH   8   9
ENDBRANCH   2   8
ENDBRANCH   1   5
BRANCH   1  15
ATOM     15  C   UNL     1       3.234   6.156  19.445  0.00  0.00    +0.000 C 
BRANCH  15  16
ATOM     16  C   UNL     1       2.450   7.451  19.279  0.00  0.00    +0.000 A 
ATOM     17  C   UNL     1       1.722   7.994  20.352  0.00  0.00    +0.000 A 
ATOM     18  C   UNL     1       0.906   9.108  20.165  0.00  0.00    +0.000 A 
ATOM     19  C   UNL     1       0.823   9.701  18.909  0.00  0.00    +0.000 A 
ATOM     20 CL   UNL     1      -0.251  11.021  18.659  0.00  0.00    +0.000 Cl
ATOM     21  C   UNL     1       1.587   9.217  17.848  0.00  0.00    +0.000 A 
ATOM     22  C   UNL     1       2.402   8.097  18.033  0.00  0.00    +0.000 A 
ENDBRANCH  15  16
BRANCH  15  23
ATOM     23  C   UNL     1       2.306   4.935  19.458  0.00  0.00    +0.000 A 
ATOM     24  C   UNL     1       1.823   4.412  20.661  0.00  0.00    +0.000 A 
ATOM     25  C   UNL     1       1.060   3.246  20.641  0.00  0.00    +0.000 A 
ATOM     26  C   UNL     1       0.790   2.631  19.426  0.00  0.00    +0.000 A 
ATOM     27  C   UNL     1       1.287   3.218  18.273  0.00  0.00    +0.000 A 
ATOM     28  N   UNL     1       2.033   4.346  18.260  0.00  0.00    +0.000 NA
ENDBRANCH  15  23
ENDBRANCH   1  15
TORSDOF 9
ENDMDL
MODEL 3
REMARK VINA RESULT:      -8.2      0.607      1.346
REMARK  Name = 
REMARK  9 active torsions:
REMARK  status: ('A' for Active; 'I' for Inactive)
REMARK    1  A    between atoms: C_2  and  O_3
REMARK    2  A    between atoms: C_2  and  C_4
REMARK    3  A    between atoms: C_4  and  C_5
REMARK    4  A    between atoms: C_5  and  C_6
REMARK    5  A    between atoms: C_6  and  N_7
REMARK    6  A    between atoms: C_10  and  O_11
REMARK    7  A    between atoms: O_11  and  C_12
REMARK    8  A    between atoms: C_12  and  C_13
REMARK    9  A    between atoms: C_12  and  C_20
REMARK                            x       y       z     vdW  Elec       q    Type
REMARK                         _______ _______ _______ _____ _____    ______ ____
ROOT
ATOM      1  O   UNL     1       4.429   5.844  18.695  0.00  0.00    +0.000 OA
ENDROOT
BRANCH   1   5
ATOM      2  N   UNL     1       6.871   4.595  16.446  0.00  0.00    +0.000 NA
ATOM      3  C   UNL     1       7.017   5.774  17.324  0.00  0.00    +0.000 C 
ATOM      4  C   UNL     1       6.788   5.447  18.801  0.00  0.00    +0.000 C 
ATOM      5  C   UNL     1       5.403   4.836  19.018  0.00  0.00    +0.000 C 
ATOM      6  C   UNL     1       5.316   3.587  18.144  0.00  0.00    +0.000 C 
ATOM      7  C   UNL     1       5.571   3.924  16.674  0.00  0.00    +0.000 C 
BRANCH   2   8
ATOM      8  C   UNL     1       6.954   4.986  15.022  0.00  0.00    +0.000 C 
BRANCH   8   9
ATOM      9  C   UNL     1       5.890   4.379  14.100  0.00  0.00    +0.000 C 
BRANCH   9  10
ATOM     10  C   UNL     1       6.427   3.986  12.726  0.00  0.00    +0.000 C 
BRANCH  10  12
ATOM     11  O   UNL     1       4.337   3.212  11.745  0.00  0.00    +0.000 OA
ATOM     12  C   UNL     1       5.507   3.002  12.040  0.00  0.00    +0.000 C 
BRANCH  12  13
ATOM     13  O   UNL     1       6.115   1.824  11.779  0.00  0.00    +0.000 OA
ATOM     14  H   UNL     1       5.572   1.048  12.001  0.00  0.00    +0.000 HD
ENDBRANCH  12  13
ENDBRANCH  10  12
ENDBRANCH   9  10
ENDBRANCH   8   9
ENDBRANCH   2   8
ENDBRANCH   1   5
BRANCH   1  15
ATOM     15  C   UNL     1       3.334   6.014  19.620  0.00  0.00    +0.000 C 
BRANCH  15  16
ATOM     16  C   UNL     1       2.574   7.303  19.331  0.00  0.00    +0.000 A 
ATOM     17  C   UNL     1       1.782   7.909  20.322  0.00  0.00    +0.000 A 
ATOM     18  C   UNL     1       0.991   9.015  20.021  0.00  0.00    +0.000 A 
ATOM     19  C   UNL     1       0.995   9.537  18.730  0.00  0.00    +0.000 A 
ATOM     20 CL   UNL     1      -0.048  10.847  18.338  0.00  0.00    +0.000 Cl
ATOM     21  C   UNL     1       1.822   8.990  17.751  0.00  0.00    +0.000 A 
ATOM     22  C   UNL     1       2.613   7.878  18.050  0.00  0.00    +0.000 A 
ENDBRANCH  15  16
BRANCH  15  23
ATOM     23  C   UNL     1       2.405   4.793  19.579  0.00  0.00    +0.000 A 
ATOM     24  C   UNL     1       1.837   4.363  18.377  0.00  0.00    +0.000 A 
ATOM     25  C   UNL     1       0.924   3.310  18.393  0.00  0.00    +0.000 A 
ATOM     26  C   UNL     1       0.602   2.708  19.600  0.00  0.00    +0.000 A 
ATOM     27  C   UNL     1       1.219   3.176  20.749  0.00  0.00    +0.000 A 
ATOM     28  N   UNL     1       2.106   4.198  20.767  0.00  0.00    +0.000 NA
ENDBRANCH  15  23
ENDBRANCH   1  15
TORSDOF 9
ENDMDL
MODEL 4
REMARK VINA RESULT:      -8.1      0.970      1.366
REMARK  Name = 
REMARK  9 active torsions:
REMARK  status: ('A' for Active; 'I' for Inactive)
REMARK    1  A    between atoms: C_2  and  O_3
REMARK    2  A    between atoms: C_2  and  C_4
REMARK    3  A    between atoms: C_4  and  C_5
REMARK    4  A    between atoms: C_5  and  C_6
REMARK    5  A    between atoms: C_6  and  N_7
REMARK    6  A    between atoms: C_10  and  O_11
REMARK    7  A    between atoms: O_11  and  C_12
REMARK    8  A    between atoms: C_12  and  C_13
REMARK    9  A    between atoms: C_12  and  C_20
REMARK                            x       y       z     vdW  Elec       q    Type
REMARK                         _______ _______ _______ _____ _____    ______ ____
ROOT
ATOM      1  O   UNL     1       3.958   5.998  18.105  0.00  0.00    +0.000 OA
ENDROOT
BRANCH   1   5
ATOM      2  N   UNL     1       6.390   4.937  15.753  0.00  0.00    +0.000 NA
ATOM      3  C   UNL     1       5.384   5.999  15.546  0.00  0.00    +0.000 C 
ATOM      4  C   UNL     1       5.461   7.102  16.604  0.00  0.00    +0.000 C 
ATOM      5  C   UNL     1       5.292   6.526  18.010  0.00  0.00    +0.000 C 
ATOM      6  C   UNL     1       6.388   5.481  18.207  0.00  0.00    +0.000 C 
ATOM      7  C   UNL     1       6.315   4.397  17.129  0.00  0.00    +0.000 C 
BRANCH   2   8
ATOM      8  C   UNL     1       6.183   3.824  14.800  0.00  0.00    +0.000 C 
BRANCH   8   9
ATOM      9  C   UNL     1       5.879   4.231  13.353  0.00  0.00    +0.000 C 
BRANCH   9  10
ATOM     10  C   UNL     1       6.553   3.337  12.315  0.00  0.00    +0.000 C 
BRANCH  10  12
ATOM     11  O   UNL     1       4.394   2.772  11.342  0.00  0.00    +0.000 OA
ATOM     12  C   UNL     1       5.544   2.454  11.617  0.00  0.00    +0.000 C 
BRANCH  12  13
ATOM     13  O   UNL     1       6.046   1.235  11.318  0.00  0.00    +0.000 OA
ATOM     14  H   UNL     1       5.364   0.577  11.099  0.00  0.00    +0.000 HD
ENDBRANCH  12  13
ENDBRANCH  10  12
ENDBRANCH   9  10
ENDBRANCH   8   9
ENDBRANCH   2   8
ENDBRANCH   1   5
BRANCH   1  15
ATOM     15  C   UNL     1       3.265   6.196  19.357  0.00  0.00    +0.000 C 
BRANCH  15  16
ATOM     16  C   UNL     1       2.338   7.403  19.279  0.00  0.00    +0.000 A 
ATOM     17  C   UNL     1       2.116   8.062  18.057  0.00  0.00    +0.000 A 
ATOM     18  C   UNL     1       1.370   9.237  18.009  0.00  0.00    +0.000 A 
ATOM     19  C   UNL     1       0.825   9.758  19.179  0.00  0.00    +0.000 A 
ATOM     20 CL   UNL     1      -0.020  11.255  19.133  0.00  0.00    +0.000 Cl
ATOM     21  C   UNL     1       0.981   9.086  20.390  0.00  0.00    +0.000 A 
ATOM     22  C   UNL     1       1.732   7.909  20.441  0.00  0.00    +0.000 A 
ENDBRANCH  15  16
BRANCH  15  23
ATOM     23  C   UNL     1       2.500   4.926  19.751  0.00  0.00    +0.000 A 
ATOM     24  C   UNL     1       1.707   4.247  18.822  0.00  0.00    +0.000 A 
ATOM     25  C   UNL     1       0.952   3.153  19.239  0.00  0.00    +0.000 A 
ATOM     26  C   UNL     1       1.007   2.756  20.568  0.00  0.00    +0.000 A 
ATOM     27  C   UNL     1       1.830   3.466  21.427  0.00  0.00    +0.000 A 
ATOM     28  N   UNL     1       2.572   4.534  21.053  0.00  0.00    +0.000 NA
ENDBRANCH  15  23
ENDBRANCH   1  15
TORSDOF 9
ENDMDL
MODEL 5
REMARK VINA RESULT:      -8.0      0.704      1.019
REMARK  Name = 
REMARK  9 active torsions:
REMARK  status: ('A' for Active; 'I' for Inactive)
REMARK    1  A    between atoms: C_2  and  O_3
REMARK    2  A    between atoms: C_2  and  C_4
REMARK    3  A    between atoms: C_4  and  C_5
REMARK    4  A    between atoms: C_5  and  C_6
REMARK    5  A    between atoms: C_6  and  N_7
REMARK    6  A    between atoms: C_10  and  O_11
REMARK    7  A    between atoms: O_11  and  C_12
REMARK    8  A    between atoms: C_12  and  C_13
REMARK    9  A    between atoms: C_12  and  C_20
REMARK                            x       y       z     vdW  Elec       q    Type
REMARK                         _______ _______ _______ _____ _____    ______ ____
ROOT
ATOM      1  O   UNL     1       4.321   6.000  18.832  0.00  0.00    +0.000 OA
ENDROOT
BRANCH   1   5
ATOM      2  N   UNL     1       6.677   4.777  16.481  0.00  0.00    +0.000 NA
ATOM      3  C   UNL     1       6.844   5.964  17.344  0.00  0.00    +0.000 C 
ATOM      4  C   UNL     1       6.688   5.641  18.832  0.00  0.00    +0.000 C 
ATOM      5  C   UNL     1       5.324   5.010  19.116  0.00  0.00    +0.000 C 
ATOM      6  C   UNL     1       5.218   3.754  18.253  0.00  0.00    +0.000 C 
ATOM      7  C   UNL     1       5.400   4.087  16.771  0.00  0.00    +0.000 C 
BRANCH   2   8
ATOM      8  C   UNL     1       6.688   5.161  15.052  0.00  0.00    +0.000 C 
BRANCH   8   9
ATOM      9  C   UNL     1       6.548   4.009  14.049  0.00  0.00    +0.000 C 
BRANCH   9  10
ATOM     10  C   UNL     1       5.298   4.107  13.179  0.00  0.00    +0.000 C 
BRANCH  10  12
ATOM     11  O   UNL     1       4.395   2.848  11.301  0.00  0.00    +0.000 OA
ATOM     12  C   UNL     1       5.311   3.065  12.084  0.00  0.00    +0.000 C 
BRANCH  12  13
ATOM     13  O   UNL     1       6.467   2.366  12.053  0.00  0.00    +0.000 OA
ATOM     14  H   UNL     1       6.773   2.160  11.152  0.00  0.00    +0.000 HD
ENDBRANCH  12  13
ENDBRANCH  10  12
ENDBRANCH   9  10
ENDBRANCH   8   9
ENDBRANCH   2   8
ENDBRANCH   1   5
BRANCH   1  15
ATOM     15  C   UNL     1       3.236   6.121  19.779  0.00  0.00    +0.000 C 
BRANCH  15  16
ATOM     16  C   UNL     1       2.368   7.331  19.458  0.00  0.00    +0.000 A 
ATOM     17  C   UNL     1       2.327   7.863  18.158  0.00  0.00    +0.000 A 
ATOM     18  C   UNL     1       1.633   9.041  17.893  0.00  0.00    +0.000 A 
ATOM     19  C   UNL     1       0.959   9.692  18.923  0.00  0.00    +0.000 A 
ATOM     20 CL   UNL     1       0.177  11.192  18.615  0.00  0.00    +0.000 Cl
ATOM     21  C   UNL     1       0.934   9.146  20.205  0.00  0.00    +0.000 A 
ATOM     22  C   UNL     1       1.633   7.967  20.473  0.00  0.00    +0.000 A 
ENDBRANCH  15  16
BRANCH  15  23
ATOM     23  C   UNL     1       2.409   4.829  19.812  0.00  0.00    +0.000 A 
ATOM     24  C   UNL     1       1.738   4.376  18.673  0.00  0.00    +0.000 A 
ATOM     25  C   UNL     1       0.920   3.253  18.764  0.00  0.00    +0.000 A 
ATOM     26  C   UNL     1       0.792   2.602  19.983  0.00  0.00    +0.000 A 
ATOM     27  C   UNL     1       1.502   3.098  21.065  0.00  0.00    +0.000 A 
ATOM     28  N   UNL     1       2.302   4.188  21.009  0.00  0.00    +0.000 NA
ENDBRANCH  15  23
ENDBRANCH   1  15
TORSDOF 9
ENDMDL
MODEL 6
REMARK VINA RESULT:      -8.0      0.914      1.043
REMARK  Name = 
REMARK  9 active torsions:
REMARK  status: ('A' for Active; 'I' for Inactive)
REMARK    1  A    between atoms: C_2  and  O_3
REMARK    2  A    between atoms: C_2  and  C_4
REMARK    3  A    between atoms: C_4  and  C_5
REMARK    4  A    between atoms: C_5  and  C_6
REMARK    5  A    between atoms: C_6  and  N_7
REMARK    6  A    between atoms: C_10  and  O_11
REMARK    7  A    between atoms: O_11  and  C_12
REMARK    8  A    between atoms: C_12  and  C_13
REMARK    9  A    between atoms: C_12  and  C_20
REMARK                            x       y       z     vdW  Elec       q    Type
REMARK                         _______ _______ _______ _____ _____    ______ ____
ROOT
ATOM      1  O   UNL     1       4.035   6.358  18.351  0.00  0.00    +0.000 OA
ENDROOT
BRANCH   1   5
ATOM      2  N   UNL     1       6.419   4.421  16.577  0.00  0.00    +0.000 NA
ATOM      3  C   UNL     1       6.125   5.852  16.360  0.00  0.00    +0.000 C 
ATOM      4  C   UNL     1       6.294   6.691  17.629  0.00  0.00    +0.000 C 
ATOM      5  C   UNL     1       5.402   6.167  18.756  0.00  0.00    +0.000 C 
ATOM      6  C   UNL     1       5.780   4.706  18.991  0.00  0.00    +0.000 C 
ATOM      7  C   UNL     1       5.631   3.885  17.710  0.00  0.00    +0.000 C 
BRANCH   2   8
ATOM      8  C   UNL     1       6.100   3.630  15.367  0.00  0.00    +0.000 C 
BRANCH   8   9
ATOM      9  C   UNL     1       5.566   4.427  14.170  0.00  0.00    +0.000 C 
BRANCH   9  10
ATOM     10  C   UNL     1       5.324   3.571  12.929  0.00  0.00    +0.000 C 
BRANCH  10  12
ATOM     11  O   UNL     1       7.361   4.336  11.838  0.00  0.00    +0.000 OA
ATOM     12  C   UNL     1       6.586   3.429  12.109  0.00  0.00    +0.000 C 
BRANCH  12  13
ATOM     13  O   UNL     1       6.782   2.161  11.684  0.00  0.00    +0.000 OA
ATOM     14  H   UNL     1       6.647   1.492  12.378  0.00  0.00    +0.000 HD
ENDBRANCH  12  13
ENDBRANCH  10  12
ENDBRANCH   9  10
ENDBRANCH   8   9
ENDBRANCH   2   8
ENDBRANCH   1   5
BRANCH   1  15
ATOM     15  C   UNL     1       3.045   6.417  19.400  0.00  0.00    +0.000 C 
BRANCH  15  16
ATOM     16  C   UNL     1       2.172   7.656  19.254  0.00  0.00    +0.000 A 
ATOM     17  C   UNL     1       2.026   8.291  18.008  0.00  0.00    +0.000 A 
ATOM     18  C   UNL     1       1.331   9.493  17.900  0.00  0.00    +0.000 A 
ATOM     19  C   UNL     1       0.759  10.065  19.033  0.00  0.00    +0.000 A 
ATOM     20 CL   UNL     1      -0.024  11.592  18.914  0.00  0.00    +0.000 Cl
ATOM     21  C   UNL     1       0.837   9.419  20.265  0.00  0.00    +0.000 A 
ATOM     22  C   UNL     1       1.538   8.215  20.376  0.00  0.00    +0.000 A 
ENDBRANCH  15  16
BRANCH  15  23
ATOM     23  C   UNL     1       2.203   5.134  19.413  0.00  0.00    +0.000 A 
ATOM     24  C   UNL     1       1.730   4.597  20.613  0.00  0.00    +0.000 A 
ATOM     25  C   UNL     1       1.050   3.382  20.596  0.00  0.00    +0.000 A 
ATOM     26  C   UNL     1       0.851   2.732  19.386  0.00  0.00    +0.000 A 
ATOM     27  C   UNL     1       1.332   3.334  18.235  0.00  0.00    +0.000 A 
ATOM     28  N   UNL     1       1.999   4.511  18.219  0.00  0.00    +0.000 NA
ENDBRANCH  15  23
ENDBRANCH   1  15
TORSDOF 9
ENDMDL
MODEL 7
REMARK VINA RESULT:      -7.6      0.816      1.202
REMARK  Name = 
REMARK  9 active torsions:
REMARK  status: ('A' for Active; 'I' for Inactive)
REMARK    1  A    between atoms: C_2  and  O_3
REMARK    2  A    between atoms: C_2  and  C_4
REMARK    3  A    between atoms: C_4  and  C_5
REMARK    4  A    between atoms: C_5  and  C_6
REMARK    5  A    between atoms: C_6  and  N_7
REMARK    6  A    between atoms: C_10  and  O_11
REMARK    7  A    between atoms: O_11  and  C_12
REMARK    8  A    between atoms: C_12  and  C_13
REMARK    9  A    between atoms: C_12  and  C_20
REMARK                            x       y       z     vdW  Elec       q    Type
REMARK                         _______ _______ _______ _____ _____    ______ ____
ROOT
ATOM      1  O   UNL     1       3.980   5.707  18.100  0.00  0.00    +0.000 OA
ENDROOT
BRANCH   1   5
ATOM      2  N   UNL     1       6.439   4.703  15.751  0.00  0.00    +0.000 NA
ATOM      3  C   UNL     1       5.373   5.699  15.523  0.00  0.00    +0.000 C 
ATOM      4  C   UNL     1       5.400   6.841  16.542  0.00  0.00    +0.000 C 
ATOM      5  C   UNL     1       5.281   6.305  17.969  0.00  0.00    +0.000 C 
ATOM      6  C   UNL     1       6.436   5.329  18.185  0.00  0.00    +0.000 C 
ATOM      7  C   UNL     1       6.411   4.207  17.145  0.00  0.00    +0.000 C 
BRANCH   2   8
ATOM      8  C   UNL     1       6.282   3.548  14.839  0.00  0.00    +0.000 C 
BRANCH   8   9
ATOM      9  C   UNL     1       6.349   3.867  13.340  0.00  0.00    +0.000 C 
BRANCH   9  10
ATOM     10  C   UNL     1       4.979   3.928  12.669  0.00  0.00    +0.000 C 
BRANCH  10  12
ATOM     11  O   UNL     1       5.558   1.887  11.476  0.00  0.00    +0.000 OA
ATOM     12  C   UNL     1       4.854   2.882  11.586  0.00  0.00    +0.000 C 
BRANCH  12  13
ATOM     13  O   UNL     1       3.858   3.160  10.715  0.00  0.00    +0.000 OA
ATOM     14  H   UNL     1       3.223   3.819  11.047  0.00  0.00    +0.000 HD
ENDBRANCH  12  13
ENDBRANCH  10  12
ENDBRANCH   9  10
ENDBRANCH   8   9
ENDBRANCH   2   8
ENDBRANCH   1   5
BRANCH   1  15
ATOM     15  C   UNL     1       3.272   5.948  19.336  0.00  0.00    +0.000 C 
BRANCH  15  16
ATOM     16  C   UNL     1       2.421   7.208  19.238  0.00  0.00    +0.000 A 
ATOM     17  C   UNL     1       2.305   7.905  18.022  0.00  0.00    +0.000 A 
ATOM     18  C   UNL     1       1.631   9.122  17.962  0.00  0.00    +0.000 A 
ATOM     19  C   UNL     1       1.051   9.648  19.114  0.00  0.00    +0.000 A 
ATOM     20 CL   UNL     1       0.295  11.192  19.058  0.00  0.00    +0.000 Cl
ATOM     21  C   UNL     1       1.100   8.942  20.314  0.00  0.00    +0.000 A 
ATOM     22  C   UNL     1       1.779   7.723  20.376  0.00  0.00    +0.000 A 
ENDBRANCH  15  16
BRANCH  15  23
ATOM     23  C   UNL     1       2.425   4.726  19.714  0.00  0.00    +0.000 A 
ATOM     24  C   UNL     1       2.364   4.274  21.035  0.00  0.00    +0.000 A 
ATOM     25  C   UNL     1       1.662   3.107  21.325  0.00  0.00    +0.000 A 
ATOM     26  C   UNL     1       1.032   2.419  20.297  0.00  0.00    +0.000 A 
ATOM     27  C   UNL     1       1.120   2.938  19.016  0.00  0.00    +0.000 A 
ATOM     28  N   UNL     1       1.796   4.067  18.701  0.00  0.00    +0.000 NA
ENDBRANCH  15  23
ENDBRANCH   1  15
TORSDOF 9
ENDMDL
MODEL 8
REMARK VINA RESULT:      -7.5      1.688      2.077
REMARK  Name = 
REMARK  9 active torsions:
REMARK  status: ('A' for Active; 'I' for Inactive)
REMARK    1  A    between atoms: C_2  and  O_3
REMARK    2  A    between atoms: C_2  and  C_4
REMARK    3  A    between atoms: C_4  and  C_5
REMARK    4  A    between atoms: C_5  and  C_6
REMARK    5  A    between atoms: C_6  and  N_7
REMARK    6  A    between atoms: C_10  and  O_11
REMARK    7  A    between atoms: O_11  and  C_12
REMARK    8  A    between atoms: C_12  and  C_13
REMARK    9  A    between atoms: C_12  and  C_20
REMARK                            x       y       z     vdW  Elec       q    Type
REMARK                         _______ _______ _______ _____ _____    ______ ____
ROOT
ATOM      1  O   UNL     1       3.901   5.956  17.954  0.00  0.00    +0.000 OA
ENDROOT
BRANCH   1   5
ATOM      2  N   UNL     1       6.049   4.812  15.374  0.00  0.00    +0.000 NA
ATOM      3  C   UNL     1       5.500   6.176  15.509  0.00  0.00    +0.000 C 
ATOM      4  C   UNL     1       5.842   6.823  16.853  0.00  0.00    +0.000 C 
ATOM      5  C   UNL     1       5.338   5.969  18.017  0.00  0.00    +0.000 C 
ATOM      6  C   UNL     1       5.978   4.589  17.877  0.00  0.00    +0.000 C 
ATOM      7  C   UNL     1       5.648   3.964  16.520  0.00  0.00    +0.000 C 
BRANCH   2   8
ATOM      8  C   UNL     1       5.571   4.173  14.128  0.00  0.00    +0.000 C 
BRANCH   8   9
ATOM      9  C   UNL     1       6.662   3.676  13.172  0.00  0.00    +0.000 C 
BRANCH   9  10
ATOM     10  C   UNL     1       6.964   4.649  12.035  0.00  0.00    +0.000 C 
BRANCH  10  12
ATOM     11  O   UNL     1       8.429   6.572  11.742  0.00  0.00    +0.000 OA
ATOM     12  C   UNL     1       7.998   5.670  12.450  0.00  0.00    +0.000 C 
BRANCH  12  13
ATOM     13  O   UNL     1       8.423   5.485  13.720  0.00  0.00    +0.000 OA
ATOM     14  H   UNL     1       8.043   4.697  14.146  0.00  0.00    +0.000 HD
ENDBRANCH  12  13
ENDBRANCH  10  12
ENDBRANCH   9  10
ENDBRANCH   8   9
ENDBRANCH   2   8
ENDBRANCH   1   5
BRANCH   1  15
ATOM     15  C   UNL     1       3.191   6.151  19.196  0.00  0.00    +0.000 C 
BRANCH  15  16
ATOM     16  C   UNL     1       2.389   7.446  19.166  0.00  0.00    +0.000 A 
ATOM     17  C   UNL     1       1.773   7.938  20.329  0.00  0.00    +0.000 A 
ATOM     18  C   UNL     1       0.938   9.052  20.275  0.00  0.00    +0.000 A 
ATOM     19  C   UNL     1       0.724   9.696  19.059  0.00  0.00    +0.000 A 
ATOM     20 CL   UNL     1      -0.374  11.016  18.977  0.00  0.00    +0.000 Cl
ATOM     21  C   UNL     1       1.377   9.262  17.907  0.00  0.00    +0.000 A 
ATOM     22  C   UNL     1       2.211   8.143  17.959  0.00  0.00    +0.000 A 
ENDBRANCH  15  16
BRANCH  15  23
ATOM     23  C   UNL     1       2.295   4.942  19.496  0.00  0.00    +0.000 A 
ATOM     24  C   UNL     1       2.025   4.556  20.811  0.00  0.00    +0.000 A 
ATOM     25  C   UNL     1       1.287   3.398  21.045  0.00  0.00    +0.000 A 
ATOM     26  C   UNL     1       0.828   2.655  19.966  0.00  0.00    +0.000 A 
ATOM     27  C   UNL     1       1.119   3.110  18.690  0.00  0.00    +0.000 A 
ATOM     28  N   UNL     1       1.836   4.228  18.431  0.00  0.00    +0.000 NA
ENDBRANCH  15  23
ENDBRANCH   1  15
TORSDOF 9
ENDMDL
MODEL 9
REMARK VINA RESULT:      -7.4      1.790      2.330
REMARK  Name = 
REMARK  9 active torsions:
REMARK  status: ('A' for Active; 'I' for Inactive)
REMARK    1  A    between atoms: C_2  and  O_3
REMARK    2  A    between atoms: C_2  and  C_4
REMARK    3  A    between atoms: C_4  and  C_5
REMARK    4  A    between atoms: C_5  and  C_6
REMARK    5  A    between atoms: C_6  and  N_7
REMARK    6  A    between atoms: C_10  and  O_11
REMARK    7  A    between atoms: O_11  and  C_12
REMARK    8  A    between atoms: C_12  and  C_13
REMARK    9  A    between atoms: C_12  and  C_20
REMARK                            x       y       z     vdW  Elec       q    Type
REMARK                         _______ _______ _______ _____ _____    ______ ____
ROOT
ATOM      1  O   UNL     1       4.049   5.771  17.977  0.00  0.00    +0.000 OA
ENDROOT
BRANCH   1   5
ATOM      2  N   UNL     1       6.392   4.825  15.488  0.00  0.00    +0.000 NA
ATOM      3  C   UNL     1       5.284   5.788  15.321  0.00  0.00    +0.000 C 
ATOM      4  C   UNL     1       5.338   6.936  16.331  0.00  0.00    +0.000 C 
ATOM      5  C   UNL     1       5.322   6.406  17.765  0.00  0.00    +0.000 C 
ATOM      6  C   UNL     1       6.516   5.466  17.915  0.00  0.00    +0.000 C 
ATOM      7  C   UNL     1       6.462   4.338  16.884  0.00  0.00    +0.000 C 
BRANCH   2   8
ATOM      8  C   UNL     1       6.215   3.661  14.592  0.00  0.00    +0.000 C 
BRANCH   8   9
ATOM      9  C   UNL     1       6.132   3.977  13.094  0.00  0.00    +0.000 C 
BRANCH   9  10
ATOM     10  C   UNL     1       7.497   4.134  12.428  0.00  0.00    +0.000 C 
BRANCH  10  12
ATOM     11  O   UNL     1       7.729   6.441  11.686  0.00  0.00    +0.000 OA
ATOM     12  C   UNL     1       7.980   5.565  12.503  0.00  0.00    +0.000 C 
BRANCH  12  13
ATOM     13  O   UNL     1       8.748   5.793  13.592  0.00  0.00    +0.000 OA
ATOM     14  H   UNL     1       9.638   6.122  13.377  0.00  0.00    +0.000 HD
ENDBRANCH  12  13
ENDBRANCH  10  12
ENDBRANCH   9  10
ENDBRANCH   8   9
ENDBRANCH   2   8
ENDBRANCH   1   5
BRANCH   1  15
ATOM     15  C   UNL     1       3.400   6.016  19.244  0.00  0.00    +0.000 C 
BRANCH  15  16
ATOM     16  C   UNL     1       2.554   7.282  19.183  0.00  0.00    +0.000 A 
ATOM     17  C   UNL     1       1.924   7.783  20.336  0.00  0.00    +0.000 A 
ATOM     18  C   UNL     1       1.052   8.866  20.256  0.00  0.00    +0.000 A 
ATOM     19  C   UNL     1       0.813   9.471  19.026  0.00  0.00    +0.000 A 
ATOM     20 CL   UNL     1      -0.329  10.752  18.914  0.00  0.00    +0.000 Cl
ATOM     21  C   UNL     1       1.477   9.031  17.882  0.00  0.00    +0.000 A 
ATOM     22  C   UNL     1       2.349   7.942  17.960  0.00  0.00    +0.000 A 
ENDBRANCH  15  16
BRANCH  15  23
ATOM     23  C   UNL     1       2.561   4.801  19.660  0.00  0.00    +0.000 A 
ATOM     24  C   UNL     1       1.771   4.121  18.729  0.00  0.00    +0.000 A 
ATOM     25  C   UNL     1       0.950   3.081  19.161  0.00  0.00    +0.000 A 
ATOM     26  C   UNL     1       0.938   2.739  20.506  0.00  0.00    +0.000 A 
ATOM     27  C   UNL     1       1.763   3.446  21.367  0.00  0.00    +0.000 A 
ATOM     28  N   UNL     1       2.568   4.462  20.979  0.00  0.00    +0.000 NA
ENDBRANCH  15  23
ENDBRANCH   1  15
TORSDOF 9
ENDMDL
