MODEL 1
REMARK VINA RESULT:      -7.7      0.000      0.000
REMARK  Name = 
REMARK  9 active torsions:
REMARK  status: ('A' for Active; 'I' for Inactive)
REMARK    1  A    between atoms: C_1  and  C_2
REMARK    2  A    between atoms: C_2  and  C_3
REMARK    3  A    between atoms: C_2  and  C_4
REMARK    4  A    between atoms: C_2  and  O_5
REMARK    5  A    between atoms: O_5  and  C_6
REMARK    6  A    between atoms: C_13  and  C_14
REMARK    7  A    between atoms: C_14  and  O_16
REMARK    8  A    between atoms: O_16  and  C_17
REMARK    9  A    between atoms: C_17  and  C_18
REMARK                            x       y       z     vdW  Elec       q    Type
REMARK                         _______ _______ _______ _____ _____    ______ ____
ROOT
ATOM      1  C   UNL     1       1.838   9.469  18.593  0.00  0.00    +0.000 C 
ATOM      2  O   UNL     1       2.055   9.806  17.429  0.00  0.00    +0.000 OA
ATOM      3  N   UNL     1       2.145   8.199  19.047  0.00  0.00    +0.000 N 
ATOM      4  C   UNL     1       1.680   7.525  20.205  0.00  0.00    +0.000 C 
ATOM      5  O   UNL     1       0.948   7.941  21.092  0.00  0.00    +0.000 OA
ATOM      6  C   UNL     1       2.241   6.089  20.147  0.00  0.00    +0.000 C 
ATOM      7  C   UNL     1       3.396   6.316  19.192  0.00  0.00    +0.000 C 
ATOM      8  C   UNL     1       4.066   5.257  18.333  0.00  0.00    +0.000 C 
ATOM      9  C   UNL     1       4.517   6.090  17.095  0.00  0.00    +0.000 C 
ATOM     10  C   UNL     1       3.840   7.476  17.200  0.00  0.00    +0.000 C 
ATOM     11  C   UNL     1       2.725   7.218  18.184  0.00  0.00    +0.000 C 
ENDROOT
BRANCH   8  12
ATOM     12  C   UNL     1       5.222   4.617  19.079  0.00  0.00    +0.000 C 
ATOM     13  O   UNL     1       6.009   5.251  19.768  0.00  0.00    +0.000 OA
BRANCH  12  14
ATOM     14  O   UNL     1       5.250   3.272  18.899  0.00  0.00    +0.000 OA
BRANCH  14  15
ATOM     15  C   UNL     1       4.771   2.467  19.988  0.00  0.00    +0.000 C 
BRANCH  15  16
ATOM     16  C   UNL     1       3.267   2.544  20.034  0.00  0.00    +0.000 A 
ATOM     17  C   UNL     1       2.601   2.775  21.245  0.00  0.00    +0.000 A 
ATOM     18  C   UNL     1       1.206   2.832  21.286  0.00  0.00    +0.000 A 
ATOM     19  C   UNL     1       0.467   2.660  20.117  0.00  0.00    +0.000 A 
ATOM     20  C   UNL     1       1.119   2.437  18.906  0.00  0.00    +0.000 A 
ATOM     21  C   UNL     1       2.513   2.378  18.864  0.00  0.00    +0.000 A 
ENDBRANCH  15  16
ENDBRANCH  14  15
ENDBRANCH  12  14
ENDBRANCH   8  12
BRANCH   1  22
ATOM     22  O   UNL     1       1.290  10.286  19.537  0.00  0.00    +0.000 OA
BRANCH  22  24
ATOM     23  C   UNL     1      -0.834  10.154  18.299  0.00  0.00    +0.000 C 
ATOM     24  C   UNL     1       0.046  10.981  19.247  0.00  0.00    +0.000 C 
ATOM     25  C   UNL     1       0.315  12.391  18.705  0.00  0.00    +0.000 C 
ATOM     26  C   UNL     1      -0.714  11.120  20.579  0.00  0.00    +0.000 C 
ENDBRANCH  22  24
ENDBRANCH   1  22
TORSDOF 6
ENDMDL
MODEL 2
REMARK VINA RESULT:      -7.7      1.849      4.239
REMARK  Name = 
REMARK  9 active torsions:
REMARK  status: ('A' for Active; 'I' for Inactive)
REMARK    1  A    between atoms: C_1  and  C_2
REMARK    2  A    between atoms: C_2  and  C_3
REMARK    3  A    between atoms: C_2  and  C_4
REMARK    4  A    between atoms: C_2  and  O_5
REMARK    5  A    between atoms: O_5  and  C_6
REMARK    6  A    between atoms: C_13  and  C_14
REMARK    7  A    between atoms: C_14  and  O_16
REMARK    8  A    between atoms: O_16  and  C_17
REMARK    9  A    between atoms: C_17  and  C_18
REMARK                            x       y       z     vdW  Elec       q    Type
REMARK                         _______ _______ _______ _____ _____    ______ ____
ROOT
ATOM      1  C   UNL     1       0.486   9.333  20.009  0.00  0.00    +0.000 C 
ATOM      2  O   UNL     1       0.225   9.042  21.176  0.00  0.00    +0.000 OA
ATOM      3  N   UNL     1       1.406   8.609  19.271  0.00  0.00    +0.000 N 
ATOM      4  C   UNL     1       2.078   8.969  18.076  0.00  0.00    +0.000 C 
ATOM      5  O   UNL     1       1.949   9.979  17.398  0.00  0.00    +0.000 OA
ATOM      6  C   UNL     1       3.086   7.842  17.769  0.00  0.00    +0.000 C 
ATOM      7  C   UNL     1       2.462   6.727  18.583  0.00  0.00    +0.000 C 
ATOM      8  C   UNL     1       3.181   5.498  19.113  0.00  0.00    +0.000 C 
ATOM      9  C   UNL     1       2.385   5.203  20.420  0.00  0.00    +0.000 C 
ATOM     10  C   UNL     1       1.470   6.419  20.689  0.00  0.00    +0.000 C 
ATOM     11  C   UNL     1       2.099   7.493  19.833  0.00  0.00    +0.000 C 
ENDROOT
BRANCH   8  12
ATOM     12  C   UNL     1       3.120   4.367  18.104  0.00  0.00    +0.000 C 
ATOM     13  O   UNL     1       2.080   3.991  17.580  0.00  0.00    +0.000 OA
BRANCH  12  14
ATOM     14  O   UNL     1       4.352   3.854  17.852  0.00  0.00    +0.000 OA
BRANCH  14  15
ATOM     15  C   UNL     1       5.109   4.487  16.808  0.00  0.00    +0.000 C 
BRANCH  15  16
ATOM     16  C   UNL     1       6.147   5.386  17.426  0.00  0.00    +0.000 A 
ATOM     17  C   UNL     1       6.444   6.631  16.855  0.00  0.00    +0.000 A 
ATOM     18  C   UNL     1       7.417   7.457  17.424  0.00  0.00    +0.000 A 
ATOM     19  C   UNL     1       8.097   7.046  18.568  0.00  0.00    +0.000 A 
ATOM     20  C   UNL     1       7.804   5.814  19.148  0.00  0.00    +0.000 A 
ATOM     21  C   UNL     1       6.834   4.986  18.580  0.00  0.00    +0.000 A 
ENDBRANCH  15  16
ENDBRANCH  14  15
ENDBRANCH  12  14
ENDBRANCH   8  12
BRANCH   1  22
ATOM     22  O   UNL     1      -0.087  10.368  19.331  0.00  0.00    +0.000 OA
BRANCH  22  24
ATOM     23  C   UNL     1      -0.230  12.759  18.761  0.00  0.00    +0.000 C 
ATOM     24  C   UNL     1       0.022  11.718  19.861  0.00  0.00    +0.000 C 
ATOM     25  C   UNL     1       1.372  11.929  20.560  0.00  0.00    +0.000 C 
ATOM     26  C   UNL     1      -1.090  11.880  20.914  0.00  0.00    +0.000 C 
ENDBRANCH  22  24
ENDBRANCH   1  22
TORSDOF 6
ENDMDL
MODEL 3
REMARK VINA RESULT:      -7.4      1.893      4.018
REMARK  Name = 
REMARK  9 active torsions:
REMARK  status: ('A' for Active; 'I' for Inactive)
REMARK    1  A    between atoms: C_1  and  C_2
REMARK    2  A    between atoms: C_2  and  C_3
REMARK    3  A    between atoms: C_2  and  C_4
REMARK    4  A    between atoms: C_2  and  O_5
REMARK    5  A    between atoms: O_5  and  C_6
REMARK    6  A    between atoms: C_13  and  C_14
REMARK    7  A    between atoms: C_14  and  O_16
REMARK    8  A    between atoms: O_16  and  C_17
REMARK    9  A    between atoms: C_17  and  C_18
REMARK                            x       y       z     vdW  Elec       q    Type
REMARK                         _______ _______ _______ _____ _____    ______ ____
ROOT
ATOM      1  C   UNL     1       0.874   9.961  20.073  0.00  0.00    +0.000 C 
ATOM      2  O   UNL     1       0.605   9.761  21.257  0.00  0.00    +0.000 OA
ATOM      3  N   UNL     1       1.573   9.032  19.323  0.00  0.00    +0.000 N 
ATOM      4  C   UNL     1       2.257   9.205  18.094  0.00  0.00    +0.000 C 
ATOM      5  O   UNL     1       2.333  10.204  17.393  0.00  0.00    +0.000 OA
ATOM      6  C   UNL     1       2.968   7.872  17.782  0.00  0.00    +0.000 C 
ATOM      7  C   UNL     1       2.141   6.945  18.651  0.00  0.00    +0.000 C 
ATOM      8  C   UNL     1       2.583   5.595  19.189  0.00  0.00    +0.000 C 
ATOM      9  C   UNL     1       1.797   5.515  20.532  0.00  0.00    +0.000 C 
ATOM     10  C   UNL     1       1.196   6.913  20.800  0.00  0.00    +0.000 C 
ATOM     11  C   UNL     1       2.016   7.797  19.891  0.00  0.00    +0.000 C 
ENDROOT
BRANCH   8  12
ATOM     12  C   UNL     1       2.222   4.488  18.215  0.00  0.00    +0.000 C 
ATOM     13  O   UNL     1       1.233   4.522  17.497  0.00  0.00    +0.000 OA
BRANCH  12  14
ATOM     14  O   UNL     1       3.140   3.487  18.234  0.00  0.00    +0.000 OA
BRANCH  14  15
ATOM     15  C   UNL     1       4.053   3.431  17.127  0.00  0.00    +0.000 C 
BRANCH  15  16
ATOM     16  C   UNL     1       5.102   4.499  17.297  0.00  0.00    +0.000 A 
ATOM     17  C   UNL     1       5.255   5.509  16.338  0.00  0.00    +0.000 A 
ATOM     18  C   UNL     1       6.237   6.489  16.493  0.00  0.00    +0.000 A 
ATOM     19  C   UNL     1       7.072   6.469  17.607  0.00  0.00    +0.000 A 
ATOM     20  C   UNL     1       6.924   5.474  18.571  0.00  0.00    +0.000 A 
ATOM     21  C   UNL     1       5.944   4.492  18.417  0.00  0.00    +0.000 A 
ENDBRANCH  15  16
ENDBRANCH  14  15
ENDBRANCH  12  14
ENDBRANCH   8  12
BRANCH   1  22
ATOM     22  O   UNL     1       0.524  11.087  19.388  0.00  0.00    +0.000 OA
BRANCH  22  24
ATOM     23  C   UNL     1      -1.049  12.456  18.079  0.00  0.00    +0.000 C 
ATOM     24  C   UNL     1      -0.883  11.372  19.154  0.00  0.00    +0.000 C 
ATOM     25  C   UNL     1      -1.597  11.739  20.462  0.00  0.00    +0.000 C 
ATOM     26  C   UNL     1      -1.521  10.081  18.610  0.00  0.00    +0.000 C 
ENDBRANCH  22  24
ENDBRANCH   1  22
TORSDOF 6
ENDMDL
MODEL 4
REMARK VINA RESULT:      -7.4      0.511      1.375
REMARK  Name = 
REMARK  9 active torsions:
REMARK  status: ('A' for Active; 'I' for Inactive)
REMARK    1  A    between atoms: C_1  and  C_2
REMARK    2  A    between atoms: C_2  and  C_3
REMARK    3  A    between atoms: C_2  and  C_4
REMARK    4  A    between atoms: C_2  and  O_5
REMARK    5  A    between atoms: O_5  and  C_6
REMARK    6  A    between atoms: C_13  and  C_14
REMARK    7  A    between atoms: C_14  and  O_16
REMARK    8  A    between atoms: O_16  and  C_17
REMARK    9  A    between atoms: C_17  and  C_18
REMARK                            x       y       z     vdW  Elec       q    Type
REMARK                         _______ _______ _______ _____ _____    ______ ____
ROOT
ATOM      1  C   UNL     1       1.539   9.777  19.036  0.00  0.00    +0.000 C 
ATOM      2  O   UNL     1       1.709  10.228  17.903  0.00  0.00    +0.000 OA
ATOM      3  N   UNL     1       1.865   8.471  19.351  0.00  0.00    +0.000 N 
ATOM      4  C   UNL     1       1.447   7.685  20.455  0.00  0.00    +0.000 C 
ATOM      5  O   UNL     1       0.750   8.008  21.406  0.00  0.00    +0.000 OA
ATOM      6  C   UNL     1       2.007   6.264  20.234  0.00  0.00    +0.000 C 
ATOM      7  C   UNL     1       3.123   6.589  19.262  0.00  0.00    +0.000 C 
ATOM      8  C   UNL     1       3.760   5.623  18.278  0.00  0.00    +0.000 C 
ATOM      9  C   UNL     1       4.160   6.575  17.110  0.00  0.00    +0.000 C 
ATOM     10  C   UNL     1       3.486   7.940  17.377  0.00  0.00    +0.000 C 
ATOM     11  C   UNL     1       2.411   7.582  18.374  0.00  0.00    +0.000 C 
ENDROOT
BRANCH   8  12
ATOM     12  C   UNL     1       4.945   4.919  18.911  0.00  0.00    +0.000 C 
ATOM     13  O   UNL     1       5.731   5.475  19.666  0.00  0.00    +0.000 OA
BRANCH  12  14
ATOM     14  O   UNL     1       5.000   3.610  18.552  0.00  0.00    +0.000 OA
BRANCH  14  15
ATOM     15  C   UNL     1       4.674   2.650  19.569  0.00  0.00    +0.000 C 
BRANCH  15  16
ATOM     16  C   UNL     1       3.184   2.656  19.793  0.00  0.00    +0.000 A 
ATOM     17  C   UNL     1       2.300   2.485  18.719  0.00  0.00    +0.000 A 
ATOM     18  C   UNL     1       0.919   2.505  18.929  0.00  0.00    +0.000 A 
ATOM     19  C   UNL     1       0.412   2.694  20.212  0.00  0.00    +0.000 A 
ATOM     20  C   UNL     1       1.282   2.859  21.288  0.00  0.00    +0.000 A 
ATOM     21  C   UNL     1       2.662   2.841  21.080  0.00  0.00    +0.000 A 
ENDBRANCH  15  16
ENDBRANCH  14  15
ENDBRANCH  12  14
ENDBRANCH   8  12
BRANCH   1  22
ATOM     22  O   UNL     1       1.028  10.495  20.076  0.00  0.00    +0.000 OA
BRANCH  22  24
ATOM     23  C   UNL     1      -0.929  11.339  21.309  0.00  0.00    +0.000 C 
ATOM     24  C   UNL     1      -0.274  11.129  19.937  0.00  0.00    +0.000 C 
ATOM     25  C   UNL     1      -1.174  10.336  18.980  0.00  0.00    +0.000 C 
ATOM     26  C   UNL     1      -0.034  12.520  19.321  0.00  0.00    +0.000 C 
ENDBRANCH  22  24
ENDBRANCH   1  22
TORSDOF 6
ENDMDL
MODEL 5
REMARK VINA RESULT:      -7.3      1.855      3.964
REMARK  Name = 
REMARK  9 active torsions:
REMARK  status: ('A' for Active; 'I' for Inactive)
REMARK    1  A    between atoms: C_1  and  C_2
REMARK    2  A    between atoms: C_2  and  C_3
REMARK    3  A    between atoms: C_2  and  C_4
REMARK    4  A    between atoms: C_2  and  O_5
REMARK    5  A    between atoms: O_5  and  C_6
REMARK    6  A    between atoms: C_13  and  C_14
REMARK    7  A    between atoms: C_14  and  O_16
REMARK    8  A    between atoms: O_16  and  C_17
REMARK    9  A    between atoms: C_17  and  C_18
REMARK                            x       y       z     vdW  Elec       q    Type
REMARK                         _______ _______ _______ _____ _____    ______ ____
ROOT
ATOM      1  C   UNL     1       1.153   9.598  20.160  0.00  0.00    +0.000 C 
ATOM      2  O   UNL     1       0.907   9.358  21.342  0.00  0.00    +0.000 OA
ATOM      3  N   UNL     1       1.781   8.669  19.350  0.00  0.00    +0.000 N 
ATOM      4  C   UNL     1       2.439   8.863  18.109  0.00  0.00    +0.000 C 
ATOM      5  O   UNL     1       2.547   9.887  17.450  0.00  0.00    +0.000 OA
ATOM      6  C   UNL     1       3.070   7.510  17.717  0.00  0.00    +0.000 C 
ATOM      7  C   UNL     1       2.221   6.588  18.570  0.00  0.00    +0.000 C 
ATOM      8  C   UNL     1       2.608   5.195  19.035  0.00  0.00    +0.000 C 
ATOM      9  C   UNL     1       1.857   5.094  20.397  0.00  0.00    +0.000 C 
ATOM     10  C   UNL     1       1.337   6.508  20.744  0.00  0.00    +0.000 C 
ATOM     11  C   UNL     1       2.176   7.389  19.850  0.00  0.00    +0.000 C 
ENDROOT
BRANCH   8  12
ATOM     12  C   UNL     1       2.162   4.152  18.026  0.00  0.00    +0.000 C 
ATOM     13  O   UNL     1       1.085   4.194  17.449  0.00  0.00    +0.000 OA
BRANCH  12  14
ATOM     14  O   UNL     1       3.112   3.200  17.839  0.00  0.00    +0.000 OA
BRANCH  14  15
ATOM     15  C   UNL     1       4.409   3.466  18.397  0.00  0.00    +0.000 C 
BRANCH  15  16
ATOM     16  C   UNL     1       5.298   4.043  17.327  0.00  0.00    +0.000 A 
ATOM     17  C   UNL     1       6.268   5.003  17.646  0.00  0.00    +0.000 A 
ATOM     18  C   UNL     1       7.082   5.545  16.649  0.00  0.00    +0.000 A 
ATOM     19  C   UNL     1       6.934   5.132  15.327  0.00  0.00    +0.000 A 
ATOM     20  C   UNL     1       5.977   4.172  14.999  0.00  0.00    +0.000 A 
ATOM     21  C   UNL     1       5.162   3.631  15.994  0.00  0.00    +0.000 A 
ENDBRANCH  15  16
ENDBRANCH  14  15
ENDBRANCH  12  14
ENDBRANCH   8  12
BRANCH   1  22
ATOM     22  O   UNL     1       0.842  10.769  19.536  0.00  0.00    +0.000 OA
BRANCH  22  24
ATOM     23  C   UNL     1      -0.697  12.380  18.487  0.00  0.00    +0.000 C 
ATOM     24  C   UNL     1      -0.551  11.172  19.423  0.00  0.00    +0.000 C 
ATOM     25  C   UNL     1      -1.163  11.433  20.806  0.00  0.00    +0.000 C 
ATOM     26  C   UNL     1      -1.310   9.995  18.782  0.00  0.00    +0.000 C 
ENDBRANCH  22  24
ENDBRANCH   1  22
TORSDOF 6
ENDMDL
MODEL 6
REMARK VINA RESULT:      -7.3      1.846      4.028
REMARK  Name = 
REMARK  9 active torsions:
REMARK  status: ('A' for Active; 'I' for Inactive)
REMARK    1  A    between atoms: C_1  and  C_2
REMARK    2  A    between atoms: C_2  and  C_3
REMARK    3  A    between atoms: C_2  and  C_4
REMARK    4  A    between atoms: C_2  and  O_5
REMARK    5  A    between atoms: O_5  and  C_6
REMARK    6  A    between atoms: C_13  and  C_14
REMARK    7  A    between atoms: C_14  and  O_16
REMARK    8  A    between atoms: O_16  and  C_17
REMARK    9  A    between atoms: C_17  and  C_18
REMARK                            x       y       z     vdW  Elec       q    Type
REMARK                         _______ _______ _______ _____ _____    ______ ____
ROOT
ATOM      1  C   UNL     1       1.225   9.459  20.185  0.00  0.00    +0.000 C 
ATOM      2  O   UNL     1       1.049   9.236  21.383  0.00  0.00    +0.000 OA
ATOM      3  N   UNL     1       1.763   8.503  19.343  0.00  0.00    +0.000 N 
ATOM      4  C   UNL     1       2.343   8.664  18.059  0.00  0.00    +0.000 C 
ATOM      5  O   UNL     1       2.444   9.680  17.386  0.00  0.00    +0.000 OA
ATOM      6  C   UNL     1       2.898   7.287  17.638  0.00  0.00    +0.000 C 
ATOM      7  C   UNL     1       2.075   6.402  18.553  0.00  0.00    +0.000 C 
ATOM      8  C   UNL     1       2.440   4.998  19.004  0.00  0.00    +0.000 C 
ATOM      9  C   UNL     1       1.778   4.934  20.414  0.00  0.00    +0.000 C 
ATOM     10  C   UNL     1       1.335   6.368  20.781  0.00  0.00    +0.000 C 
ATOM     11  C   UNL     1       2.143   7.213  19.826  0.00  0.00    +0.000 C 
ENDROOT
BRANCH   8  12
ATOM     12  C   UNL     1       1.891   3.967  18.036  0.00  0.00    +0.000 C 
ATOM     13  O   UNL     1       0.726   3.595  18.041  0.00  0.00    +0.000 OA
BRANCH  12  14
ATOM     14  O   UNL     1       2.844   3.539  17.168  0.00  0.00    +0.000 OA
BRANCH  14  15
ATOM     15  C   UNL     1       4.103   3.147  17.737  0.00  0.00    +0.000 C 
BRANCH  15  16
ATOM     16  C   UNL     1       5.191   4.031  17.185  0.00  0.00    +0.000 A 
ATOM     17  C   UNL     1       5.324   4.219  15.803  0.00  0.00    +0.000 A 
ATOM     18  C   UNL     1       6.342   5.028  15.294  0.00  0.00    +0.000 A 
ATOM     19  C   UNL     1       7.233   5.656  16.162  0.00  0.00    +0.000 A 
ATOM     20  C   UNL     1       7.105   5.482  17.538  0.00  0.00    +0.000 A 
ATOM     21  C   UNL     1       6.089   4.672  18.048  0.00  0.00    +0.000 A 
ENDBRANCH  15  16
ENDBRANCH  14  15
ENDBRANCH  12  14
ENDBRANCH   8  12
BRANCH   1  22
ATOM     22  O   UNL     1       0.916  10.637  19.572  0.00  0.00    +0.000 OA
BRANCH  22  24
ATOM     23  C   UNL     1      -1.289   9.831  18.829  0.00  0.00    +0.000 C 
ATOM     24  C   UNL     1      -0.480  11.007  19.395  0.00  0.00    +0.000 C 
ATOM     25  C   UNL     1      -0.611  12.269  18.531  0.00  0.00    +0.000 C 
ATOM     26  C   UNL     1      -1.043  11.327  20.792  0.00  0.00    +0.000 C 
ENDBRANCH  22  24
ENDBRANCH   1  22
TORSDOF 6
ENDMDL
MODEL 7
REMARK VINA RESULT:      -7.0      1.810      4.030
REMARK  Name = 
REMARK  9 active torsions:
REMARK  status: ('A' for Active; 'I' for Inactive)
REMARK    1  A    between atoms: C_1  and  C_2
REMARK    2  A    between atoms: C_2  and  C_3
REMARK    3  A    between atoms: C_2  and  C_4
REMARK    4  A    between atoms: C_2  and  O_5
REMARK    5  A    between atoms: O_5  and  C_6
REMARK    6  A    between atoms: C_13  and  C_14
REMARK    7  A    between atoms: C_14  and  O_16
REMARK    8  A    between atoms: O_16  and  C_17
REMARK    9  A    between atoms: C_17  and  C_18
REMARK                            x       y       z     vdW  Elec       q    Type
REMARK                         _______ _______ _______ _____ _____    ______ ____
ROOT
ATOM      1  C   UNL     1       0.420   9.722  20.027  0.00  0.00    +0.000 C 
ATOM      2  O   UNL     1       0.135   9.530  21.209  0.00  0.00    +0.000 OA
ATOM      3  N   UNL     1       1.294   8.891  19.349  0.00  0.00    +0.000 N 
ATOM      4  C   UNL     1       1.995   9.124  18.139  0.00  0.00    +0.000 C 
ATOM      5  O   UNL     1       1.937  10.092  17.393  0.00  0.00    +0.000 OA
ATOM      6  C   UNL     1       2.928   7.915  17.918  0.00  0.00    +0.000 C 
ATOM      7  C   UNL     1       2.226   6.901  18.800  0.00  0.00    +0.000 C 
ATOM      8  C   UNL     1       2.860   5.667  19.418  0.00  0.00    +0.000 C 
ATOM      9  C   UNL     1       2.039   5.514  20.735  0.00  0.00    +0.000 C 
ATOM     10  C   UNL     1       1.205   6.803  20.912  0.00  0.00    +0.000 C 
ATOM     11  C   UNL     1       1.908   7.772  19.992  0.00  0.00    +0.000 C 
ENDROOT
BRANCH   8  12
ATOM     12  C   UNL     1       2.728   4.476  18.487  0.00  0.00    +0.000 C 
ATOM     13  O   UNL     1       1.778   4.314  17.735  0.00  0.00    +0.000 OA
BRANCH  12  14
ATOM     14  O   UNL     1       3.797   3.644  18.586  0.00  0.00    +0.000 OA
BRANCH  14  15
ATOM     15  C   UNL     1       5.095   4.253  18.504  0.00  0.00    +0.000 C 
BRANCH  15  16
ATOM     16  C   UNL     1       5.410   4.552  17.061  0.00  0.00    +0.000 A 
ATOM     17  C   UNL     1       5.353   5.865  16.575  0.00  0.00    +0.000 A 
ATOM     18  C   UNL     1       5.632   6.137  15.234  0.00  0.00    +0.000 A 
ATOM     19  C   UNL     1       5.973   5.099  14.369  0.00  0.00    +0.000 A 
ATOM     20  C   UNL     1       6.040   3.790  14.844  0.00  0.00    +0.000 A 
ATOM     21  C   UNL     1       5.759   3.517  16.183  0.00  0.00    +0.000 A 
ENDBRANCH  15  16
ENDBRANCH  14  15
ENDBRANCH  12  14
ENDBRANCH   8  12
BRANCH   1  22
ATOM     22  O   UNL     1      -0.079  10.744  19.275  0.00  0.00    +0.000 OA
BRANCH  22  24
ATOM     23  C   UNL     1      -0.900  12.456  20.844  0.00  0.00    +0.000 C 
ATOM     24  C   UNL     1       0.096  12.116  19.726  0.00  0.00    +0.000 C 
ATOM     25  C   UNL     1       0.005  13.099  18.550  0.00  0.00    +0.000 C 
ATOM     26  C   UNL     1       1.512  12.217  20.322  0.00  0.00    +0.000 C 
ENDBRANCH  22  24
ENDBRANCH   1  22
TORSDOF 6
ENDMDL
MODEL 8
REMARK VINA RESULT:      -6.8      2.060      4.320
REMARK  Name = 
REMARK  9 active torsions:
REMARK  status: ('A' for Active; 'I' for Inactive)
REMARK    1  A    between atoms: C_1  and  C_2
REMARK    2  A    between atoms: C_2  and  C_3
REMARK    3  A    between atoms: C_2  and  C_4
REMARK    4  A    between atoms: C_2  and  O_5
REMARK    5  A    between atoms: O_5  and  C_6
REMARK    6  A    between atoms: C_13  and  C_14
REMARK    7  A    between atoms: C_14  and  O_16
REMARK    8  A    between atoms: O_16  and  C_17
REMARK    9  A    between atoms: C_17  and  C_18
REMARK                            x       y       z     vdW  Elec       q    Type
REMARK                         _______ _______ _______ _____ _____    ______ ____
ROOT
ATOM      1  C   UNL     1       0.558   9.568  20.039  0.00  0.00    +0.000 C 
ATOM      2  O   UNL     1       0.287   9.408  21.229  0.00  0.00    +0.000 OA
ATOM      3  N   UNL     1       1.389   8.694  19.363  0.00  0.00    +0.000 N 
ATOM      4  C   UNL     1       2.076   8.879  18.137  0.00  0.00    +0.000 C 
ATOM      5  O   UNL     1       2.039   9.833  17.373  0.00  0.00    +0.000 OA
ATOM      6  C   UNL     1       2.962   7.633  17.923  0.00  0.00    +0.000 C 
ATOM      7  C   UNL     1       2.241   6.661  18.837  0.00  0.00    +0.000 C 
ATOM      8  C   UNL     1       2.841   5.417  19.469  0.00  0.00    +0.000 C 
ATOM      9  C   UNL     1       2.039   5.319  20.801  0.00  0.00    +0.000 C 
ATOM     10  C   UNL     1       1.255   6.640  20.967  0.00  0.00    +0.000 C 
ATOM     11  C   UNL     1       1.975   7.566  20.017  0.00  0.00    +0.000 C 
ENDROOT
BRANCH   8  12
ATOM     12  C   UNL     1       2.652   4.214  18.564  0.00  0.00    +0.000 C 
ATOM     13  O   UNL     1       1.835   3.331  18.784  0.00  0.00    +0.000 OA
BRANCH  12  14
ATOM     14  O   UNL     1       3.479   4.263  17.488  0.00  0.00    +0.000 OA
BRANCH  14  15
ATOM     15  C   UNL     1       4.889   4.221  17.759  0.00  0.00    +0.000 C 
BRANCH  15  16
ATOM     16  C   UNL     1       5.645   4.395  16.467  0.00  0.00    +0.000 A 
ATOM     17  C   UNL     1       6.932   4.950  16.463  0.00  0.00    +0.000 A 
ATOM     18  C   UNL     1       7.624   5.122  15.262  0.00  0.00    +0.000 A 
ATOM     19  C   UNL     1       7.037   4.740  14.058  0.00  0.00    +0.000 A 
ATOM     20  C   UNL     1       5.761   4.180  14.052  0.00  0.00    +0.000 A 
ATOM     21  C   UNL     1       5.067   4.009  15.250  0.00  0.00    +0.000 A 
ENDBRANCH  15  16
ENDBRANCH  14  15
ENDBRANCH  12  14
ENDBRANCH   8  12
BRANCH   1  22
ATOM     22  O   UNL     1       0.081  10.593  19.276  0.00  0.00    +0.000 OA
BRANCH  22  24
ATOM     23  C   UNL     1       1.514  12.202  20.469  0.00  0.00    +0.000 C 
ATOM     24  C   UNL     1       0.166  11.956  19.776  0.00  0.00    +0.000 C 
ATOM     25  C   UNL     1      -1.023  12.285  20.689  0.00  0.00    +0.000 C 
ATOM     26  C   UNL     1       0.098  12.889  18.552  0.00  0.00    +0.000 C 
ENDBRANCH  22  24
ENDBRANCH   1  22
TORSDOF 6
ENDMDL
MODEL 9
REMARK VINA RESULT:      -6.7      2.009      7.657
REMARK  Name = 
REMARK  9 active torsions:
REMARK  status: ('A' for Active; 'I' for Inactive)
REMARK    1  A    between atoms: C_1  and  C_2
REMARK    2  A    between atoms: C_2  and  C_3
REMARK    3  A    between atoms: C_2  and  C_4
REMARK    4  A    between atoms: C_2  and  O_5
REMARK    5  A    between atoms: O_5  and  C_6
REMARK    6  A    between atoms: C_13  and  C_14
REMARK    7  A    between atoms: C_14  and  O_16
REMARK    8  A    between atoms: O_16  and  C_17
REMARK    9  A    between atoms: C_17  and  C_18
REMARK                            x       y       z     vdW  Elec       q    Type
REMARK                         _______ _______ _______ _____ _____    ______ ____
ROOT
ATOM      1  C   UNL     1       2.737   6.206  19.760  0.00  0.00    +0.000 C 
ATOM      2  O   UNL     1       2.233   5.586  20.696  0.00  0.00    +0.000 OA
ATOM      3  N   UNL     1       2.237   7.428  19.349  0.00  0.00    +0.000 N 
ATOM      4  C   UNL     1       2.444   8.116  18.127  0.00  0.00    +0.000 C 
ATOM      5  O   UNL     1       3.160   7.807  17.185  0.00  0.00    +0.000 OA
ATOM      6  C   UNL     1       1.540   9.366  18.154  0.00  0.00    +0.000 C 
ATOM      7  C   UNL     1       1.326   9.481  19.651  0.00  0.00    +0.000 C 
ATOM      8  C   UNL     1       0.168  10.185  20.335  0.00  0.00    +0.000 C 
ATOM      9  C   UNL     1       0.014   9.348  21.641  0.00  0.00    +0.000 C 
ATOM     10  C   UNL     1       0.885   8.082  21.484  0.00  0.00    +0.000 C 
ATOM     11  C   UNL     1       1.108   8.025  19.991  0.00  0.00    +0.000 C 
ENDROOT
BRANCH   8  12
ATOM     12  C   UNL     1       0.505  11.642  20.593  0.00  0.00    +0.000 C 
ATOM     13  O   UNL     1       1.509  12.002  21.191  0.00  0.00    +0.000 OA
BRANCH  12  14
ATOM     14  O   UNL     1      -0.427  12.473  20.060  0.00  0.00    +0.000 OA
BRANCH  14  15
ATOM     15  C   UNL     1      -0.580  12.436  18.632  0.00  0.00    +0.000 C 
BRANCH  15  16
ATOM     16  C   UNL     1      -1.875  11.745  18.292  0.00  0.00    +0.000 A 
ATOM     17  C   UNL     1      -3.078  12.151  18.887  0.00  0.00    +0.000 A 
ATOM     18  C   UNL     1      -4.274  11.500  18.580  0.00  0.00    +0.000 A 
ATOM     19  C   UNL     1      -4.279  10.440  17.675  0.00  0.00    +0.000 A 
ATOM     20  C   UNL     1      -3.090  10.034  17.072  0.00  0.00    +0.000 A 
ATOM     21  C   UNL     1      -1.893  10.682  17.380  0.00  0.00    +0.000 A 
ENDBRANCH  15  16
ENDBRANCH  14  15
ENDBRANCH  12  14
ENDBRANCH   8  12
BRANCH   1  22
ATOM     22  O   UNL     1       3.815   5.772  19.046  0.00  0.00    +0.000 OA
BRANCH  22  24
ATOM     23  C   UNL     1       4.027   3.321  19.166  0.00  0.00    +0.000 C 
ATOM     24  C   UNL     1       3.717   4.538  18.282  0.00  0.00    +0.000 C 
ATOM     25  C   UNL     1       4.609   4.589  17.034  0.00  0.00    +0.000 C 
ATOM     26  C   UNL     1       2.255   4.410  17.817  0.00  0.00    +0.000 C 
ENDBRANCH  22  24
ENDBRANCH   1  22
TORSDOF 6
ENDMDL
