MODEL 1
REMARK VINA RESULT:      -7.6      0.000      0.000
REMARK  Name = 
REMARK  6 active torsions:
REMARK  status: ('A' for Active; 'I' for Inactive)
REMARK    1  A    between atoms: C_1  and  C_2
REMARK    2  A    between atoms: C_2  and  C_4
REMARK    3  A    between atoms: C_9  and  C_10
REMARK    4  A    between atoms: C_17  and  C_18
REMARK    5  A    between atoms: C_20  and  O_21
REMARK    6  A    between atoms: C_26  and  C_27
REMARK                            x       y       z     vdW  Elec       q    Type
REMARK                         _______ _______ _______ _____ _____    ______ ____
ROOT
ATOM      1  C   UNL     1       2.049   9.261  18.546  0.00  0.00    +0.000 A 
ATOM      2  N   UNL     1       2.786   8.492  17.665  0.00  0.00    +0.000 NA
ATOM      3  N   UNL     1       2.958   7.264  17.841  0.00  0.00    +0.000 NA
ATOM      4  C   UNL     1       2.518   6.652  18.975  0.00  0.00    +0.000 A 
ATOM      5  C   UNL     1       2.776   5.434  19.567  0.00  0.00    +0.000 A 
ATOM      6  C   UNL     1       3.688   4.422  19.174  0.00  0.00    +0.000 A 
ATOM      7  C   UNL     1       3.618   3.358  20.116  0.00  0.00    +0.000 A 
ATOM      8  C   UNL     1       2.668   3.355  21.181  0.00  0.00    +0.000 A 
ATOM      9  N   UNL     1       1.810   4.350  21.517  0.00  0.00    +0.000 NA
ATOM     10  C   UNL     1       1.902   5.421  20.699  0.00  0.00    +0.000 A 
ATOM     11  N   UNL     1       1.238   6.565  20.848  0.00  0.00    +0.000 NA
ATOM     12  N   UNL     1       1.681   7.355  19.843  0.00  0.00    +0.000 N 
ATOM     13  C   UNL     1       1.435   8.719  19.623  0.00  0.00    +0.000 A 
ATOM     14  C   UNL     1       0.541   9.461  20.573  0.00  0.00    +0.000 C 
ENDROOT
BRANCH   6  15
ATOM     15  C   UNL     1       4.596   4.524  18.006  0.00  0.00    +0.000 A 
ATOM     16  C   UNL     1       4.158   4.060  16.746  0.00  0.00    +0.000 A 
ATOM     17  C   UNL     1       5.011   3.975  15.641  0.00  0.00    +0.000 A 
ATOM     18  C   UNL     1       6.295   4.489  15.718  0.00  0.00    +0.000 A 
ATOM     19  C   UNL     1       6.734   5.049  16.914  0.00  0.00    +0.000 A 
ATOM     20  C   UNL     1       5.919   5.020  18.057  0.00  0.00    +0.000 A 
ATOM     21 CL   UNL     1       6.678   5.527  19.530  0.00  0.00    +0.000 Cl
ENDBRANCH   6  15
BRANCH   1  23
ATOM     22  C   UNL     1       0.666  11.430  18.521  0.00  0.00    +0.000 C 
ATOM     23  C   UNL     1       1.969  10.730  18.212  0.00  0.00    +0.000 C 
ATOM     24  O   UNL     1       2.902  11.341  17.694  0.00  0.00    +0.000 OA
ENDBRANCH   1  23
BRANCH   7  25
ATOM     25  C   UNL     1       4.570   2.289  20.083  0.00  0.00    +0.000 C 
ATOM     26  N   UNL     1       5.296   1.390  20.116  0.00  0.00    +0.000 NA
ENDBRANCH   7  25
BRANCH   8  27
ATOM     27  O   UNL     1       2.546   2.277  22.026  0.00  0.00    +0.000 OA
ATOM     28  H   UNL     1       3.195   2.315  22.748  0.00  0.00    +0.000 HD
ENDBRANCH   8  27
TORSDOF 4
ENDMDL
MODEL 2
REMARK VINA RESULT:      -7.2      1.175      1.475
REMARK  Name = 
REMARK  6 active torsions:
REMARK  status: ('A' for Active; 'I' for Inactive)
REMARK    1  A    between atoms: C_1  and  C_2
REMARK    2  A    between atoms: C_2  and  C_4
REMARK    3  A    between atoms: C_9  and  C_10
REMARK    4  A    between atoms: C_17  and  C_18
REMARK    5  A    between atoms: C_20  and  O_21
REMARK    6  A    between atoms: C_26  and  C_27
REMARK                            x       y       z     vdW  Elec       q    Type
REMARK                         _______ _______ _______ _____ _____    ______ ____
ROOT
ATOM      1  C   UNL     1       1.741   9.592  18.771  0.00  0.00    +0.000 A 
ATOM      2  N   UNL     1       2.454   8.862  17.838  0.00  0.00    +0.000 NA
ATOM      3  N   UNL     1       2.660   7.634  17.973  0.00  0.00    +0.000 NA
ATOM      4  C   UNL     1       2.283   6.983  19.107  0.00  0.00    +0.000 A 
ATOM      5  C   UNL     1       2.592   5.755  19.654  0.00  0.00    +0.000 A 
ATOM      6  C   UNL     1       3.507   4.774  19.195  0.00  0.00    +0.000 A 
ATOM      7  C   UNL     1       3.501   3.685  20.109  0.00  0.00    +0.000 A 
ATOM      8  C   UNL     1       2.599   3.633  21.214  0.00  0.00    +0.000 A 
ATOM      9  N   UNL     1       1.736   4.599  21.614  0.00  0.00    +0.000 NA
ATOM     10  C   UNL     1       1.770   5.694  20.822  0.00  0.00    +0.000 A 
ATOM     11  N   UNL     1       1.089   6.818  21.032  0.00  0.00    +0.000 NA
ATOM     12  N   UNL     1       1.471   7.644  20.031  0.00  0.00    +0.000 N 
ATOM     13  C   UNL     1       1.187   9.008  19.858  0.00  0.00    +0.000 A 
ATOM     14  C   UNL     1       0.320   9.704  20.867  0.00  0.00    +0.000 C 
ENDROOT
BRANCH   6  15
ATOM     15  C   UNL     1       4.360   4.928  17.991  0.00  0.00    +0.000 A 
ATOM     16  C   UNL     1       5.414   5.868  18.004  0.00  0.00    +0.000 A 
ATOM     17  C   UNL     1       6.153   6.182  16.859  0.00  0.00    +0.000 A 
ATOM     18  C   UNL     1       5.961   5.458  15.694  0.00  0.00    +0.000 A 
ATOM     19  C   UNL     1       5.001   4.451  15.667  0.00  0.00    +0.000 A 
ATOM     20  C   UNL     1       4.174   4.224  16.779  0.00  0.00    +0.000 A 
ATOM     21 CL   UNL     1       2.868   3.114  16.525  0.00  0.00    +0.000 Cl
ENDBRANCH   6  15
BRANCH   1  23
ATOM     22  C   UNL     1       0.228  11.661  18.555  0.00  0.00    +0.000 C 
ATOM     23  C   UNL     1       1.616  11.067  18.481  0.00  0.00    +0.000 C 
ATOM     24  O   UNL     1       2.582  11.764  18.178  0.00  0.00    +0.000 OA
ENDBRANCH   1  23
BRANCH   7  25
ATOM     25  C   UNL     1       4.473   2.639  20.005  0.00  0.00    +0.000 C 
ATOM     26  N   UNL     1       5.209   1.747  19.968  0.00  0.00    +0.000 NA
ENDBRANCH   7  25
BRANCH   8  27
ATOM     27  O   UNL     1       2.538   2.531  22.034  0.00  0.00    +0.000 OA
ATOM     28  H   UNL     1       2.691   2.768  22.963  0.00  0.00    +0.000 HD
ENDBRANCH   8  27
TORSDOF 4
ENDMDL
MODEL 3
REMARK VINA RESULT:      -7.0      8.649     11.137
REMARK  Name = 
REMARK  6 active torsions:
REMARK  status: ('A' for Active; 'I' for Inactive)
REMARK    1  A    between atoms: C_1  and  C_2
REMARK    2  A    between atoms: C_2  and  C_4
REMARK    3  A    between atoms: C_9  and  C_10
REMARK    4  A    between atoms: C_17  and  C_18
REMARK    5  A    between atoms: C_20  and  O_21
REMARK    6  A    between atoms: C_26  and  C_27
REMARK                            x       y       z     vdW  Elec       q    Type
REMARK                         _______ _______ _______ _____ _____    ______ ____
ROOT
ATOM      1  C   UNL     1       6.795  12.686  23.269  0.00  0.00    +0.000 A 
ATOM      2  N   UNL     1       7.939  12.231  22.641  0.00  0.00    +0.000 NA
ATOM      3  N   UNL     1       8.594  12.950  21.851  0.00  0.00    +0.000 NA
ATOM      4  C   UNL     1       8.140  14.181  21.489  0.00  0.00    +0.000 A 
ATOM      5  C   UNL     1       8.468  15.064  20.481  0.00  0.00    +0.000 A 
ATOM      6  C   UNL     1       9.391  14.906  19.417  0.00  0.00    +0.000 A 
ATOM      7  C   UNL     1       9.364  16.080  18.615  0.00  0.00    +0.000 A 
ATOM      8  C   UNL     1       8.585  17.222  18.975  0.00  0.00    +0.000 A 
ATOM      9  N   UNL     1       7.715  17.327  20.009  0.00  0.00    +0.000 NA
ATOM     10  C   UNL     1       7.642  16.200  20.751  0.00  0.00    +0.000 A 
ATOM     11  N   UNL     1       6.811  16.001  21.771  0.00  0.00    +0.000 NA
ATOM     12  N   UNL     1       7.051  14.730  22.169  0.00  0.00    +0.000 N 
ATOM     13  C   UNL     1       6.345  13.951  23.099  0.00  0.00    +0.000 A 
ATOM     14  C   UNL     1       5.171  14.554  23.813  0.00  0.00    +0.000 C 
ENDROOT
BRANCH   6  15
ATOM     15  C   UNL     1      10.185  13.677  19.176  0.00  0.00    +0.000 A 
ATOM     16  C   UNL     1      11.466  13.554  19.759  0.00  0.00    +0.000 A 
ATOM     17  C   UNL     1      12.333  12.503  19.447  0.00  0.00    +0.000 A 
ATOM     18  C   UNL     1      11.894  11.457  18.653  0.00  0.00    +0.000 A 
ATOM     19  C   UNL     1      10.601  11.488  18.139  0.00  0.00    +0.000 A 
ATOM     20  C   UNL     1       9.776  12.604  18.350  0.00  0.00    +0.000 A 
ATOM     21 CL   UNL     1       8.292  12.618  17.456  0.00  0.00    +0.000 Cl
ENDBRANCH   6  15
BRANCH   1  23
ATOM     22  C   UNL     1       6.629  11.545  25.567  0.00  0.00    +0.000 C 
ATOM     23  C   UNL     1       6.102  11.684  24.158  0.00  0.00    +0.000 C 
ATOM     24  O   UNL     1       5.166  10.990  23.767  0.00  0.00    +0.000 OA
ENDBRANCH   1  23
BRANCH   7  25
ATOM     25  C   UNL     1      10.048  16.123  17.358  0.00  0.00    +0.000 C 
ATOM     26  N   UNL     1      10.587  16.239  16.342  0.00  0.00    +0.000 NA
ENDBRANCH   7  25
BRANCH   8  27
ATOM     27  O   UNL     1       8.642  18.384  18.243  0.00  0.00    +0.000 OA
ATOM     28  H   UNL     1       9.163  19.066  18.698  0.00  0.00    +0.000 HD
ENDBRANCH   8  27
TORSDOF 4
ENDMDL
MODEL 4
REMARK VINA RESULT:      -6.9      2.659      4.512
REMARK  Name = 
REMARK  6 active torsions:
REMARK  status: ('A' for Active; 'I' for Inactive)
REMARK    1  A    between atoms: C_1  and  C_2
REMARK    2  A    between atoms: C_2  and  C_4
REMARK    3  A    between atoms: C_9  and  C_10
REMARK    4  A    between atoms: C_17  and  C_18
REMARK    5  A    between atoms: C_20  and  O_21
REMARK    6  A    between atoms: C_26  and  C_27
REMARK                            x       y       z     vdW  Elec       q    Type
REMARK                         _______ _______ _______ _____ _____    ______ ____
ROOT
ATOM      1  C   UNL     1       0.561   9.479  20.301  0.00  0.00    +0.000 A 
ATOM      2  N   UNL     1       0.651   8.248  20.924  0.00  0.00    +0.000 NA
ATOM      3  N   UNL     1       1.451   7.366  20.537  0.00  0.00    +0.000 NA
ATOM      4  C   UNL     1       2.191   7.541  19.409  0.00  0.00    +0.000 A 
ATOM      5  C   UNL     1       2.924   6.695  18.603  0.00  0.00    +0.000 A 
ATOM      6  C   UNL     1       3.075   5.287  18.685  0.00  0.00    +0.000 A 
ATOM      7  C   UNL     1       3.908   4.858  17.615  0.00  0.00    +0.000 A 
ATOM      8  C   UNL     1       4.535   5.784  16.728  0.00  0.00    +0.000 A 
ATOM      9  N   UNL     1       4.362   7.128  16.691  0.00  0.00    +0.000 NA
ATOM     10  C   UNL     1       3.507   7.574  17.637  0.00  0.00    +0.000 A 
ATOM     11  N   UNL     1       3.095   8.833  17.773  0.00  0.00    +0.000 NA
ATOM     12  N   UNL     1       2.217   8.799  18.803  0.00  0.00    +0.000 N 
ATOM     13  C   UNL     1       1.365   9.814  19.267  0.00  0.00    +0.000 A 
ATOM     14  C   UNL     1       1.400  11.156  18.597  0.00  0.00    +0.000 C 
ENDROOT
BRANCH   6  15
ATOM     15  C   UNL     1       2.403   4.433  19.694  0.00  0.00    +0.000 A 
ATOM     16  C   UNL     1       2.950   4.336  20.993  0.00  0.00    +0.000 A 
ATOM     17  C   UNL     1       2.467   3.430  21.943  0.00  0.00    +0.000 A 
ATOM     18  C   UNL     1       1.326   2.692  21.676  0.00  0.00    +0.000 A 
ATOM     19  C   UNL     1       0.696   2.833  20.444  0.00  0.00    +0.000 A 
ATOM     20  C   UNL     1       1.254   3.649  19.446  0.00  0.00    +0.000 A 
ATOM     21 CL   UNL     1       0.504   3.542  17.887  0.00  0.00    +0.000 Cl
ENDBRANCH   6  15
BRANCH   1  23
ATOM     22  C   UNL     1      -0.475  10.617  22.362  0.00  0.00    +0.000 C 
ATOM     23  C   UNL     1      -0.480  10.415  20.864  0.00  0.00    +0.000 C 
ATOM     24  O   UNL     1      -1.312  10.980  20.158  0.00  0.00    +0.000 OA
ENDBRANCH   1  23
BRANCH   7  25
ATOM     25  C   UNL     1       4.072   3.464  17.331  0.00  0.00    +0.000 C 
ATOM     26  N   UNL     1       4.160   2.323  17.168  0.00  0.00    +0.000 NA
ENDBRANCH   7  25
BRANCH   8  27
ATOM     27  O   UNL     1       5.413   5.362  15.758  0.00  0.00    +0.000 OA
ATOM     28  H   UNL     1       5.217   5.768  14.899  0.00  0.00    +0.000 HD
ENDBRANCH   8  27
TORSDOF 4
ENDMDL
MODEL 5
REMARK VINA RESULT:      -6.8      8.513     11.292
REMARK  Name = 
REMARK  6 active torsions:
REMARK  status: ('A' for Active; 'I' for Inactive)
REMARK    1  A    between atoms: C_1  and  C_2
REMARK    2  A    between atoms: C_2  and  C_4
REMARK    3  A    between atoms: C_9  and  C_10
REMARK    4  A    between atoms: C_17  and  C_18
REMARK    5  A    between atoms: C_20  and  O_21
REMARK    6  A    between atoms: C_26  and  C_27
REMARK                            x       y       z     vdW  Elec       q    Type
REMARK                         _______ _______ _______ _____ _____    ______ ____
ROOT
ATOM      1  C   UNL     1       4.372  15.196  20.968  0.00  0.00    +0.000 A 
ATOM      2  N   UNL     1       5.429  14.331  21.183  0.00  0.00    +0.000 NA
ATOM      3  N   UNL     1       6.593  14.598  20.804  0.00  0.00    +0.000 NA
ATOM      4  C   UNL     1       6.846  15.708  20.059  0.00  0.00    +0.000 A 
ATOM      5  C   UNL     1       7.915  16.124  19.293  0.00  0.00    +0.000 A 
ATOM      6  C   UNL     1       9.116  15.436  18.983  0.00  0.00    +0.000 A 
ATOM      7  C   UNL     1       9.905  16.261  18.135  0.00  0.00    +0.000 A 
ATOM      8  C   UNL     1       9.514  17.594  17.803  0.00  0.00    +0.000 A 
ATOM      9  N   UNL     1       8.352  18.212  18.128  0.00  0.00    +0.000 NA
ATOM     10  C   UNL     1       7.530  17.432  18.863  0.00  0.00    +0.000 A 
ATOM     11  N   UNL     1       6.297  17.757  19.246  0.00  0.00    +0.000 NA
ATOM     12  N   UNL     1       5.842  16.665  19.904  0.00  0.00    +0.000 N 
ATOM     13  C   UNL     1       4.547  16.400  20.377  0.00  0.00    +0.000 A 
ATOM     14  C   UNL     1       3.477  17.436  20.191  0.00  0.00    +0.000 C 
ENDROOT
BRANCH   6  15
ATOM     15  C   UNL     1       9.429  14.058  19.433  0.00  0.00    +0.000 A 
ATOM     16  C   UNL     1      10.255  13.869  20.563  0.00  0.00    +0.000 A 
ATOM     17  C   UNL     1      10.723  12.609  20.947  0.00  0.00    +0.000 A 
ATOM     18  C   UNL     1      10.261  11.474  20.301  0.00  0.00    +0.000 A 
ATOM     19  C   UNL     1       9.365  11.608  19.245  0.00  0.00    +0.000 A 
ATOM     20  C   UNL     1       8.995  12.881  18.780  0.00  0.00    +0.000 A 
ATOM     21 CL   UNL     1       8.072  12.903  17.314  0.00  0.00    +0.000 Cl
ENDBRANCH   6  15
BRANCH   1  23
ATOM     22  C   UNL     1       2.196  13.919  20.468  0.00  0.00    +0.000 C 
ATOM     23  C   UNL     1       3.029  14.709  21.451  0.00  0.00    +0.000 C 
ATOM     24  O   UNL     1       2.605  14.950  22.580  0.00  0.00    +0.000 OA
ENDBRANCH   1  23
BRANCH   7  25
ATOM     25  C   UNL     1      11.081  15.746  17.502  0.00  0.00    +0.000 C 
ATOM     26  N   UNL     1      12.069  15.399  17.010  0.00  0.00    +0.000 NA
ENDBRANCH   7  25
BRANCH   8  27
ATOM     27  O   UNL     1      10.332  18.414  17.061  0.00  0.00    +0.000 OA
ATOM     28  H   UNL     1      10.825  17.913  16.392  0.00  0.00    +0.000 HD
ENDBRANCH   8  27
TORSDOF 4
ENDMDL
MODEL 6
REMARK VINA RESULT:      -6.6      8.663     11.407
REMARK  Name = 
REMARK  6 active torsions:
REMARK  status: ('A' for Active; 'I' for Inactive)
REMARK    1  A    between atoms: C_1  and  C_2
REMARK    2  A    between atoms: C_2  and  C_4
REMARK    3  A    between atoms: C_9  and  C_10
REMARK    4  A    between atoms: C_17  and  C_18
REMARK    5  A    between atoms: C_20  and  O_21
REMARK    6  A    between atoms: C_26  and  C_27
REMARK                            x       y       z     vdW  Elec       q    Type
REMARK                         _______ _______ _______ _____ _____    ______ ____
ROOT
ATOM      1  C   UNL     1       4.636  15.213  21.052  0.00  0.00    +0.000 A 
ATOM      2  N   UNL     1       5.694  14.338  21.213  0.00  0.00    +0.000 NA
ATOM      3  N   UNL     1       6.847  14.608  20.802  0.00  0.00    +0.000 NA
ATOM      4  C   UNL     1       7.083  15.734  20.075  0.00  0.00    +0.000 A 
ATOM      5  C   UNL     1       8.129  16.161  19.284  0.00  0.00    +0.000 A 
ATOM      6  C   UNL     1       9.315  15.475  18.920  0.00  0.00    +0.000 A 
ATOM      7  C   UNL     1      10.081  16.315  18.066  0.00  0.00    +0.000 A 
ATOM      8  C   UNL     1       9.688  17.657  17.777  0.00  0.00    +0.000 A 
ATOM      9  N   UNL     1       8.540  18.273  18.153  0.00  0.00    +0.000 NA
ATOM     10  C   UNL     1       7.737  17.481  18.897  0.00  0.00    +0.000 A 
ATOM     11  N   UNL     1       6.520  17.803  19.327  0.00  0.00    +0.000 NA
ATOM     12  N   UNL     1       6.079  16.699  19.974  0.00  0.00    +0.000 N 
ATOM     13  C   UNL     1       4.799  16.429  20.482  0.00  0.00    +0.000 A 
ATOM     14  C   UNL     1       3.730  17.475  20.355  0.00  0.00    +0.000 C 
ENDROOT
BRANCH   6  15
ATOM     15  C   UNL     1       9.635  14.085  19.329  0.00  0.00    +0.000 A 
ATOM     16  C   UNL     1       9.360  13.022  18.441  0.00  0.00    +0.000 A 
ATOM     17  C   UNL     1       9.483  11.681  18.817  0.00  0.00    +0.000 A 
ATOM     18  C   UNL     1      10.025  11.356  20.050  0.00  0.00    +0.000 A 
ATOM     19  C   UNL     1      10.404  12.375  20.918  0.00  0.00    +0.000 A 
ATOM     20  C   UNL     1      10.164  13.719  20.588  0.00  0.00    +0.000 A 
ATOM     21 CL   UNL     1      10.459  14.864  21.855  0.00  0.00    +0.000 Cl
ENDBRANCH   6  15
BRANCH   1  23
ATOM     22  C   UNL     1       2.467  13.903  20.614  0.00  0.00    +0.000 C 
ATOM     23  C   UNL     1       3.306  14.722  21.567  0.00  0.00    +0.000 C 
ATOM     24  O   UNL     1       2.898  14.982  22.697  0.00  0.00    +0.000 OA
ENDBRANCH   1  23
BRANCH   7  25
ATOM     25  C   UNL     1      11.233  15.809  17.384  0.00  0.00    +0.000 C 
ATOM     26  N   UNL     1      12.195  15.381  16.906  0.00  0.00    +0.000 NA
ENDBRANCH   7  25
BRANCH   8  27
ATOM     27  O   UNL     1      10.486  18.489  17.029  0.00  0.00    +0.000 OA
ATOM     28  H   UNL     1      10.272  18.432  16.083  0.00  0.00    +0.000 HD
ENDBRANCH   8  27
TORSDOF 4
ENDMDL
MODEL 7
REMARK VINA RESULT:      -6.6      7.371      9.798
REMARK  Name = 
REMARK  6 active torsions:
REMARK  status: ('A' for Active; 'I' for Inactive)
REMARK    1  A    between atoms: C_1  and  C_2
REMARK    2  A    between atoms: C_2  and  C_4
REMARK    3  A    between atoms: C_9  and  C_10
REMARK    4  A    between atoms: C_17  and  C_18
REMARK    5  A    between atoms: C_20  and  O_21
REMARK    6  A    between atoms: C_26  and  C_27
REMARK                            x       y       z     vdW  Elec       q    Type
REMARK                         _______ _______ _______ _____ _____    ______ ____
ROOT
ATOM      1  C   UNL     1      -3.756  13.088  23.522  0.00  0.00    +0.000 A 
ATOM      2  N   UNL     1      -3.420  12.222  22.498  0.00  0.00    +0.000 NA
ATOM      3  N   UNL     1      -2.293  12.247  21.951  0.00  0.00    +0.000 NA
ATOM      4  C   UNL     1      -1.384  13.209  22.269  0.00  0.00    +0.000 A 
ATOM      5  C   UNL     1      -0.218  13.656  21.683  0.00  0.00    +0.000 A 
ATOM      6  C   UNL     1       0.379  13.260  20.459  0.00  0.00    +0.000 A 
ATOM      7  C   UNL     1       1.562  14.023  20.264  0.00  0.00    +0.000 A 
ATOM      8  C   UNL     1       2.047  14.931  21.254  0.00  0.00    +0.000 A 
ATOM      9  N   UNL     1       1.440  15.276  22.417  0.00  0.00    +0.000 NA
ATOM     10  C   UNL     1       0.263  14.638  22.604  0.00  0.00    +0.000 A 
ATOM     11  N   UNL     1      -0.575  14.849  23.616  0.00  0.00    +0.000 NA
ATOM     12  N   UNL     1      -1.630  14.039  23.365  0.00  0.00    +0.000 N 
ATOM     13  C   UNL     1      -2.869  13.979  24.021  0.00  0.00    +0.000 A 
ATOM     14  C   UNL     1      -3.119  14.885  25.190  0.00  0.00    +0.000 C 
ENDROOT
BRANCH   6  15
ATOM     15  C   UNL     1      -0.204  12.259  19.532  0.00  0.00    +0.000 A 
ATOM     16  C   UNL     1      -1.092  12.687  18.520  0.00  0.00    +0.000 A 
ATOM     17  C   UNL     1      -1.801  11.789  17.718  0.00  0.00    +0.000 A 
ATOM     18  C   UNL     1      -1.538  10.432  17.799  0.00  0.00    +0.000 A 
ATOM     19  C   UNL     1      -0.594   9.975  18.714  0.00  0.00    +0.000 A 
ATOM     20  C   UNL     1       0.025  10.866  19.606  0.00  0.00    +0.000 A 
ATOM     21 CL   UNL     1       0.988  10.134  20.846  0.00  0.00    +0.000 Cl
ENDBRANCH   6  15
BRANCH   1  23
ATOM     22  C   UNL     1      -6.152  14.018  23.625  0.00  0.00    +0.000 C 
ATOM     23  C   UNL     1      -5.165  12.954  24.045  0.00  0.00    +0.000 C 
ATOM     24  O   UNL     1      -5.507  12.042  24.795  0.00  0.00    +0.000 OA
ENDBRANCH   1  23
BRANCH   7  25
ATOM     25  C   UNL     1       2.264  13.978  19.017  0.00  0.00    +0.000 C 
ATOM     26  N   UNL     1       2.896  13.970  18.049  0.00  0.00    +0.000 NA
ENDBRANCH   7  25
BRANCH   8  27
ATOM     27  O   UNL     1       3.242  15.590  21.094  0.00  0.00    +0.000 OA
ATOM     28  H   UNL     1       3.872  15.066  20.574  0.00  0.00    +0.000 HD
ENDBRANCH   8  27
TORSDOF 4
ENDMDL
MODEL 8
REMARK VINA RESULT:      -6.6      5.667      8.525
REMARK  Name = 
REMARK  6 active torsions:
REMARK  status: ('A' for Active; 'I' for Inactive)
REMARK    1  A    between atoms: C_1  and  C_2
REMARK    2  A    between atoms: C_2  and  C_4
REMARK    3  A    between atoms: C_9  and  C_10
REMARK    4  A    between atoms: C_17  and  C_18
REMARK    5  A    between atoms: C_20  and  O_21
REMARK    6  A    between atoms: C_26  and  C_27
REMARK                            x       y       z     vdW  Elec       q    Type
REMARK                         _______ _______ _______ _____ _____    ______ ____
ROOT
ATOM      1  C   UNL     1      -4.017  14.188  22.159  0.00  0.00    +0.000 A 
ATOM      2  N   UNL     1      -4.147  13.550  20.939  0.00  0.00    +0.000 NA
ATOM      3  N   UNL     1      -3.436  12.566  20.627  0.00  0.00    +0.000 NA
ATOM      4  C   UNL     1      -2.423  12.152  21.435  0.00  0.00    +0.000 A 
ATOM      5  C   UNL     1      -1.339  11.317  21.261  0.00  0.00    +0.000 A 
ATOM      6  C   UNL     1      -0.898  10.655  20.087  0.00  0.00    +0.000 A 
ATOM      7  C   UNL     1       0.284   9.927  20.395  0.00  0.00    +0.000 A 
ATOM      8  C   UNL     1       0.796   9.846  21.725  0.00  0.00    +0.000 A 
ATOM      9  N   UNL     1       0.335  10.497  22.821  0.00  0.00    +0.000 NA
ATOM     10  C   UNL     1      -0.739  11.274  22.558  0.00  0.00    +0.000 A 
ATOM     11  N   UNL     1      -1.338  12.082  23.429  0.00  0.00    +0.000 NA
ATOM     12  N   UNL     1      -2.316  12.691  22.719  0.00  0.00    +0.000 N 
ATOM     13  C   UNL     1      -3.147  13.756  23.099  0.00  0.00    +0.000 A 
ATOM     14  C   UNL     1      -3.011  14.329  24.480  0.00  0.00    +0.000 C 
ENDROOT
BRANCH   6  15
ATOM     15  C   UNL     1      -1.551  10.782  18.761  0.00  0.00    +0.000 A 
ATOM     16  C   UNL     1      -2.355   9.725  18.281  0.00  0.00    +0.000 A 
ATOM     17  C   UNL     1      -2.867   9.704  16.980  0.00  0.00    +0.000 A 
ATOM     18  C   UNL     1      -2.717  10.811  16.161  0.00  0.00    +0.000 A 
ATOM     19  C   UNL     1      -2.017  11.917  16.632  0.00  0.00    +0.000 A 
ATOM     20  C   UNL     1      -1.396  11.886  17.891  0.00  0.00    +0.000 A 
ATOM     21 CL   UNL     1      -0.360  13.228  18.248  0.00  0.00    +0.000 Cl
ENDBRANCH   6  15
BRANCH   1  23
ATOM     22  C   UNL     1      -6.316  15.098  22.869  0.00  0.00    +0.000 C 
ATOM     23  C   UNL     1      -4.920  15.379  22.364  0.00  0.00    +0.000 C 
ATOM     24  O   UNL     1      -4.561  16.530  22.119  0.00  0.00    +0.000 OA
ENDBRANCH   1  23
BRANCH   7  25
ATOM     25  C   UNL     1       1.061   9.322  19.355  0.00  0.00    +0.000 C 
ATOM     26  N   UNL     1       1.663   8.893  18.466  0.00  0.00    +0.000 NA
ENDBRANCH   7  25
BRANCH   8  27
ATOM     27  O   UNL     1       1.883   9.060  22.025  0.00  0.00    +0.000 OA
ATOM     28  H   UNL     1       2.712   9.473  21.733  0.00  0.00    +0.000 HD
ENDBRANCH   8  27
TORSDOF 4
ENDMDL
MODEL 9
REMARK VINA RESULT:      -6.3      7.274     10.564
REMARK  Name = 
REMARK  6 active torsions:
REMARK  status: ('A' for Active; 'I' for Inactive)
REMARK    1  A    between atoms: C_1  and  C_2
REMARK    2  A    between atoms: C_2  and  C_4
REMARK    3  A    between atoms: C_9  and  C_10
REMARK    4  A    between atoms: C_17  and  C_18
REMARK    5  A    between atoms: C_20  and  O_21
REMARK    6  A    between atoms: C_26  and  C_27
REMARK                            x       y       z     vdW  Elec       q    Type
REMARK                         _______ _______ _______ _____ _____    ______ ____
ROOT
ATOM      1  C   UNL     1      -1.117  11.815  18.553  0.00  0.00    +0.000 A 
ATOM      2  N   UNL     1      -0.987  13.025  17.897  0.00  0.00    +0.000 NA
ATOM      3  N   UNL     1      -0.073  13.835  18.176  0.00  0.00    +0.000 NA
ATOM      4  C   UNL     1       0.768  13.607  19.221  0.00  0.00    +0.000 A 
ATOM      5  C   UNL     1       1.658  14.392  19.923  0.00  0.00    +0.000 A 
ATOM      6  C   UNL     1       1.924  15.779  19.795  0.00  0.00    +0.000 A 
ATOM      7  C   UNL     1       2.905  16.143  20.758  0.00  0.00    +0.000 A 
ATOM      8  C   UNL     1       3.540  15.174  21.592  0.00  0.00    +0.000 A 
ATOM      9  N   UNL     1       3.254  13.852  21.677  0.00  0.00    +0.000 NA
ATOM     10  C   UNL     1       2.263  13.474  20.838  0.00  0.00    +0.000 A 
ATOM     11  N   UNL     1       1.728  12.257  20.775  0.00  0.00    +0.000 NA
ATOM     12  N   UNL     1       0.749  12.359  19.847  0.00  0.00    +0.000 N 
ATOM     13  C   UNL     1      -0.236  11.420  19.501  0.00  0.00    +0.000 A 
ATOM     14  C   UNL     1      -0.248  10.088  20.191  0.00  0.00    +0.000 C 
ENDROOT
BRANCH   6  15
ATOM     15  C   UNL     1       1.223  16.679  18.847  0.00  0.00    +0.000 A 
ATOM     16  C   UNL     1      -0.099  17.087  19.128  0.00  0.00    +0.000 A 
ATOM     17  C   UNL     1      -0.875  17.798  18.208  0.00  0.00    +0.000 A 
ATOM     18  C   UNL     1      -0.306  18.254  17.030  0.00  0.00    +0.000 A 
ATOM     19  C   UNL     1       1.027  17.960  16.759  0.00  0.00    +0.000 A 
ATOM     20  C   UNL     1       1.767  17.140  17.626  0.00  0.00    +0.000 A 
ATOM     21 CL   UNL     1       3.328  16.657  17.048  0.00  0.00    +0.000 Cl
ENDBRANCH   6  15
BRANCH   1  23
ATOM     22  C   UNL     1      -2.031   9.920  17.072  0.00  0.00    +0.000 C 
ATOM     23  C   UNL     1      -2.292  10.971  18.126  0.00  0.00    +0.000 C 
ATOM     24  O   UNL     1      -3.421  11.129  18.588  0.00  0.00    +0.000 OA
ENDBRANCH   1  23
BRANCH   7  25
ATOM     25  C   UNL     1       3.222  17.519  20.993  0.00  0.00    +0.000 C 
ATOM     26  N   UNL     1       3.519  18.631  21.111  0.00  0.00    +0.000 NA
ENDBRANCH   7  25
BRANCH   8  27
ATOM     27  O   UNL     1       4.555  15.526  22.451  0.00  0.00    +0.000 OA
ATOM     28  H   UNL     1       4.798  14.790  23.035  0.00  0.00    +0.000 HD
ENDBRANCH   8  27
TORSDOF 4
ENDMDL
