MODEL 1
REMARK VINA RESULT:      -9.4      0.000      0.000
REMARK  Name = 
REMARK  6 active torsions:
REMARK  status: ('A' for Active; 'I' for Inactive)
REMARK    1  A    between atoms: C_2  and  C_3
REMARK    2  A    between atoms: C_9  and  N_10
REMARK    3  A    between atoms: C_12  and  C_13
REMARK    4  A    between atoms: C_17  and  C_18
REMARK    5  A    between atoms: N_20  and  C_21
REMARK    6  A    between atoms: C_21  and  C_22
REMARK                            x       y       z     vdW  Elec       q    Type
REMARK                         _______ _______ _______ _____ _____    ______ ____
ROOT
ATOM      1  N   UNL     1       4.238   4.987  17.379  0.00  0.00    +0.000 N 
ATOM      2  N   UNL     1       3.743   6.242  17.294  0.00  0.00    +0.000 NA
ATOM      3  C   UNL     1       2.917   6.353  18.355  0.00  0.00    +0.000 A 
ATOM      4  C   UNL     1       2.810   5.111  19.061  0.00  0.00    +0.000 A 
ATOM      5  C   UNL     1       2.128   4.569  20.163  0.00  0.00    +0.000 A 
ATOM      6  N   UNL     1       1.206   5.243  20.947  0.00  0.00    +0.000 N 
ATOM      7  N   UNL     1       2.387   3.293  20.518  0.00  0.00    +0.000 NA
ATOM      8  C   UNL     1       3.272   2.585  19.796  0.00  0.00    +0.000 A 
ATOM      9  N   UNL     1       3.965   2.984  18.715  0.00  0.00    +0.000 NA
ATOM     10  C   UNL     1       3.692   4.261  18.400  0.00  0.00    +0.000 A 
ATOM     11  H   UNL     1       0.632   5.934  20.482  0.00  0.00    +0.000 HD
ATOM     12  H   UNL     1       0.711   4.619  21.574  0.00  0.00    +0.000 HD
ENDROOT
BRANCH   1  19
ATOM     13  C   UNL     1       5.927   3.683  12.995  0.00  0.00    +0.000 C 
ATOM     14  O   UNL     1       6.912   3.237  12.410  0.00  0.00    +0.000 OA
ATOM     15  N   UNL     1       6.017   4.555  14.071  0.00  0.00    +0.000 N 
ATOM     16  C   UNL     1       7.333   5.085  14.423  0.00  0.00    +0.000 C 
ATOM     17  C   UNL     1       7.732   4.638  15.825  0.00  0.00    +0.000 C 
ATOM     18  C   UNL     1       6.670   5.035  16.853  0.00  0.00    +0.000 C 
ATOM     19  C   UNL     1       5.269   4.537  16.446  0.00  0.00    +0.000 C 
ATOM     20  C   UNL     1       4.932   4.928  14.996  0.00  0.00    +0.000 C 
BRANCH  13  22
ATOM     21  C   UNL     1       4.236   3.389  11.238  0.00  0.00    +0.000 C 
ATOM     22  C   UNL     1       4.563   3.316  12.534  0.00  0.00    +0.000 C 
ENDBRANCH  13  22
ENDBRANCH   1  19
BRANCH   3  23
ATOM     23  C   UNL     1       2.266   7.638  18.651  0.00  0.00    +0.000 A 
ATOM     24  C   UNL     1       1.937   8.522  17.614  0.00  0.00    +0.000 A 
ATOM     25  C   UNL     1       1.304   9.737  17.887  0.00  0.00    +0.000 A 
ATOM     26  C   UNL     1       0.963  10.067  19.199  0.00  0.00    +0.000 A 
ATOM     27  C   UNL     1       1.289   9.205  20.252  0.00  0.00    +0.000 A 
ATOM     28  C   UNL     1       1.973   8.016  19.973  0.00  0.00    +0.000 A 
BRANCH  27  29
ATOM     29  C   UNL     1       0.838   9.561  21.630  0.00  0.00    +0.000 C 
ATOM     30  O   UNL     1       1.588   9.358  22.579  0.00  0.00    +0.000 OA
ATOM     31  N   UNL     1      -0.423  10.100  21.764  0.00  0.00    +0.000 N 
ATOM     32  H   UNL     1      -1.054  10.117  20.977  0.00  0.00    +0.000 HD
BRANCH  31  33
ATOM     33  C   UNL     1      -0.994  10.375  23.067  0.00  0.00    +0.000 C 
BRANCH  33  34
ATOM     34  C   UNL     1      -1.590  11.759  23.146  0.00  0.00    +0.000 A 
ATOM     35  C   UNL     1      -2.895  11.955  23.630  0.00  0.00    +0.000 A 
ATOM     36  C   UNL     1      -3.431  13.238  23.735  0.00  0.00    +0.000 A 
ATOM     37  C   UNL     1      -2.669  14.332  23.348  0.00  0.00    +0.000 A 
ATOM     38  F   UNL     1      -3.179  15.565  23.462  0.00  0.00    +0.000 F 
ATOM     39  C   UNL     1      -1.381  14.166  22.853  0.00  0.00    +0.000 A 
ATOM     40  C   UNL     1      -0.843  12.881  22.749  0.00  0.00    +0.000 A 
ENDBRANCH  33  34
ENDBRANCH  31  33
ENDBRANCH  27  29
ENDBRANCH   3  23
TORSDOF 6
ENDMDL
MODEL 2
REMARK VINA RESULT:      -9.4      3.017      3.670
REMARK  Name = 
REMARK  6 active torsions:
REMARK  status: ('A' for Active; 'I' for Inactive)
REMARK    1  A    between atoms: C_2  and  C_3
REMARK    2  A    between atoms: C_9  and  N_10
REMARK    3  A    between atoms: C_12  and  C_13
REMARK    4  A    between atoms: C_17  and  C_18
REMARK    5  A    between atoms: N_20  and  C_21
REMARK    6  A    between atoms: C_21  and  C_22
REMARK                            x       y       z     vdW  Elec       q    Type
REMARK                         _______ _______ _______ _____ _____    ______ ____
ROOT
ATOM      1  N   UNL     1       4.053   4.415  17.227  0.00  0.00    +0.000 N 
ATOM      2  N   UNL     1       3.695   5.680  17.543  0.00  0.00    +0.000 NA
ATOM      3  C   UNL     1       2.753   5.537  18.498  0.00  0.00    +0.000 A 
ATOM      4  C   UNL     1       2.439   4.157  18.713  0.00  0.00    +0.000 A 
ATOM      5  C   UNL     1       1.572   3.372  19.492  0.00  0.00    +0.000 A 
ATOM      6  N   UNL     1       0.624   3.860  20.377  0.00  0.00    +0.000 N 
ATOM      7  N   UNL     1       1.659   2.028  19.400  0.00  0.00    +0.000 NA
ATOM      8  C   UNL     1       2.559   1.493  18.557  0.00  0.00    +0.000 A 
ATOM      9  N   UNL     1       3.420   2.136  17.749  0.00  0.00    +0.000 NA
ATOM     10  C   UNL     1       3.313   3.468  17.878  0.00  0.00    +0.000 A 
ATOM     11  H   UNL     1       0.184   4.738  20.135  0.00  0.00    +0.000 HD
ATOM     12  H   UNL     1      -0.004   3.134  20.701  0.00  0.00    +0.000 HD
ENDROOT
BRANCH   1  19
ATOM     13  C   UNL     1       5.961   3.635  12.809  0.00  0.00    +0.000 C 
ATOM     14  O   UNL     1       7.005   3.367  12.218  0.00  0.00    +0.000 OA
ATOM     15  N   UNL     1       5.916   4.442  13.936  0.00  0.00    +0.000 N 
ATOM     16  C   UNL     1       7.141   5.125  14.348  0.00  0.00    +0.000 C 
ATOM     17  C   UNL     1       7.581   4.650  15.728  0.00  0.00    +0.000 C 
ATOM     18  C   UNL     1       6.461   4.831  16.756  0.00  0.00    +0.000 C 
ATOM     19  C   UNL     1       5.148   4.172  16.290  0.00  0.00    +0.000 C 
ATOM     20  C   UNL     1       4.778   4.603  14.860  0.00  0.00    +0.000 C 
BRANCH  13  22
ATOM     21  C   UNL     1       4.237   3.434  11.070  0.00  0.00    +0.000 C 
ATOM     22  C   UNL     1       4.667   3.114  12.298  0.00  0.00    +0.000 C 
ENDBRANCH  13  22
ENDBRANCH   1  19
BRANCH   3  23
ATOM     23  C   UNL     1       2.196   6.723  19.167  0.00  0.00    +0.000 A 
ATOM     24  C   UNL     1       1.779   6.651  20.503  0.00  0.00    +0.000 A 
ATOM     25  C   UNL     1       1.263   7.778  21.150  0.00  0.00    +0.000 A 
ATOM     26  C   UNL     1       1.190   8.997  20.475  0.00  0.00    +0.000 A 
ATOM     27  C   UNL     1       1.591   9.090  19.138  0.00  0.00    +0.000 A 
ATOM     28  C   UNL     1       2.054   7.942  18.483  0.00  0.00    +0.000 A 
BRANCH  27  29
ATOM     29  C   UNL     1       1.567  10.430  18.479  0.00  0.00    +0.000 C 
ATOM     30  O   UNL     1       2.179  10.593  17.428  0.00  0.00    +0.000 OA
ATOM     31  N   UNL     1       0.854  11.430  19.102  0.00  0.00    +0.000 N 
ATOM     32  H   UNL     1       0.486  11.287  20.031  0.00  0.00    +0.000 HD
BRANCH  31  33
ATOM     33  C   UNL     1       0.860  12.789  18.601  0.00  0.00    +0.000 C 
BRANCH  33  34
ATOM     34  C   UNL     1       2.081  13.555  19.048  0.00  0.00    +0.000 A 
ATOM     35  C   UNL     1       2.416  13.644  20.410  0.00  0.00    +0.000 A 
ATOM     36  C   UNL     1       3.564  14.322  20.817  0.00  0.00    +0.000 A 
ATOM     37  C   UNL     1       4.379  14.922  19.867  0.00  0.00    +0.000 A 
ATOM     38  F   UNL     1       5.490  15.562  20.258  0.00  0.00    +0.000 F 
ATOM     39  C   UNL     1       4.064  14.861  18.516  0.00  0.00    +0.000 A 
ATOM     40  C   UNL     1       2.915  14.180  18.105  0.00  0.00    +0.000 A 
ENDBRANCH  33  34
ENDBRANCH  31  33
ENDBRANCH  27  29
ENDBRANCH   3  23
TORSDOF 6
ENDMDL
MODEL 3
REMARK VINA RESULT:      -9.1      2.849      3.349
REMARK  Name = 
REMARK  6 active torsions:
REMARK  status: ('A' for Active; 'I' for Inactive)
REMARK    1  A    between atoms: C_2  and  C_3
REMARK    2  A    between atoms: C_9  and  N_10
REMARK    3  A    between atoms: C_12  and  C_13
REMARK    4  A    between atoms: C_17  and  C_18
REMARK    5  A    between atoms: N_20  and  C_21
REMARK    6  A    between atoms: C_21  and  C_22
REMARK                            x       y       z     vdW  Elec       q    Type
REMARK                         _______ _______ _______ _____ _____    ______ ____
ROOT
ATOM      1  N   UNL     1       4.057   4.443  17.370  0.00  0.00    +0.000 N 
ATOM      2  N   UNL     1       3.731   5.700  17.747  0.00  0.00    +0.000 NA
ATOM      3  C   UNL     1       2.752   5.536  18.660  0.00  0.00    +0.000 A 
ATOM      4  C   UNL     1       2.384   4.157  18.784  0.00  0.00    +0.000 A 
ATOM      5  C   UNL     1       1.466   3.360  19.488  0.00  0.00    +0.000 A 
ATOM      6  N   UNL     1       0.505   3.830  20.368  0.00  0.00    +0.000 N 
ATOM      7  N   UNL     1       1.512   2.021  19.320  0.00  0.00    +0.000 NA
ATOM      8  C   UNL     1       2.422   1.504  18.477  0.00  0.00    +0.000 A 
ATOM      9  N   UNL     1       3.332   2.162  17.737  0.00  0.00    +0.000 NA
ATOM     10  C   UNL     1       3.264   3.487  17.939  0.00  0.00    +0.000 A 
ATOM     11  H   UNL     1       0.102   4.734  20.162  0.00  0.00    +0.000 HD
ATOM     12  H   UNL     1      -0.158   3.109  20.628  0.00  0.00    +0.000 HD
ENDROOT
BRANCH   1  19
ATOM     13  C   UNL     1       6.101   3.911  12.975  0.00  0.00    +0.000 C 
ATOM     14  O   UNL     1       7.154   3.635  12.403  0.00  0.00    +0.000 OA
ATOM     15  N   UNL     1       6.051   4.628  14.162  0.00  0.00    +0.000 N 
ATOM     16  C   UNL     1       7.291   5.210  14.671  0.00  0.00    +0.000 C 
ATOM     17  C   UNL     1       7.650   4.606  16.024  0.00  0.00    +0.000 C 
ATOM     18  C   UNL     1       6.500   4.765  17.022  0.00  0.00    +0.000 C 
ATOM     19  C   UNL     1       5.176   4.216  16.457  0.00  0.00    +0.000 C 
ATOM     20  C   UNL     1       4.886   4.777  15.054  0.00  0.00    +0.000 C 
BRANCH  13  22
ATOM     21  C   UNL     1       4.763   2.624  11.367  0.00  0.00    +0.000 C 
ATOM     22  C   UNL     1       4.804   3.502  12.377  0.00  0.00    +0.000 C 
ENDBRANCH  13  22
ENDBRANCH   1  19
BRANCH   3  23
ATOM     23  C   UNL     1       2.211   6.700  19.378  0.00  0.00    +0.000 A 
ATOM     24  C   UNL     1       2.226   6.738  20.780  0.00  0.00    +0.000 A 
ATOM     25  C   UNL     1       1.729   7.848  21.468  0.00  0.00    +0.000 A 
ATOM     26  C   UNL     1       1.240   8.946  20.760  0.00  0.00    +0.000 A 
ATOM     27  C   UNL     1       1.206   8.928  19.361  0.00  0.00    +0.000 A 
ATOM     28  C   UNL     1       1.656   7.788  18.684  0.00  0.00    +0.000 A 
BRANCH  27  29
ATOM     29  C   UNL     1       0.747  10.153  18.643  0.00  0.00    +0.000 C 
ATOM     30  O   UNL     1       1.555  10.804  17.989  0.00  0.00    +0.000 OA
ATOM     31  N   UNL     1      -0.581  10.499  18.765  0.00  0.00    +0.000 N 
ATOM     32  H   UNL     1      -1.172  10.015  19.424  0.00  0.00    +0.000 HD
BRANCH  31  33
ATOM     33  C   UNL     1      -1.099  11.728  18.199  0.00  0.00    +0.000 C 
BRANCH  33  34
ATOM     34  C   UNL     1      -2.594  11.676  17.998  0.00  0.00    +0.000 A 
ATOM     35  C   UNL     1      -3.472  12.038  19.033  0.00  0.00    +0.000 A 
ATOM     36  C   UNL     1      -4.852  12.024  18.833  0.00  0.00    +0.000 A 
ATOM     37  C   UNL     1      -5.362  11.639  17.600  0.00  0.00    +0.000 A 
ATOM     38  F   UNL     1      -6.688  11.639  17.405  0.00  0.00    +0.000 F 
ATOM     39  C   UNL     1      -4.516  11.263  16.564  0.00  0.00    +0.000 A 
ATOM     40  C   UNL     1      -3.133  11.279  16.762  0.00  0.00    +0.000 A 
ENDBRANCH  33  34
ENDBRANCH  31  33
ENDBRANCH  27  29
ENDBRANCH   3  23
TORSDOF 6
ENDMDL
MODEL 4
REMARK VINA RESULT:      -8.9      2.514      3.183
REMARK  Name = 
REMARK  6 active torsions:
REMARK  status: ('A' for Active; 'I' for Inactive)
REMARK    1  A    between atoms: C_2  and  C_3
REMARK    2  A    between atoms: C_9  and  N_10
REMARK    3  A    between atoms: C_12  and  C_13
REMARK    4  A    between atoms: C_17  and  C_18
REMARK    5  A    between atoms: N_20  and  C_21
REMARK    6  A    between atoms: C_21  and  C_22
REMARK                            x       y       z     vdW  Elec       q    Type
REMARK                         _______ _______ _______ _____ _____    ______ ____
ROOT
ATOM      1  N   UNL     1       4.009   4.474  17.347  0.00  0.00    +0.000 N 
ATOM      2  N   UNL     1       3.666   5.740  17.674  0.00  0.00    +0.000 NA
ATOM      3  C   UNL     1       2.693   5.599  18.598  0.00  0.00    +0.000 A 
ATOM      4  C   UNL     1       2.346   4.222  18.780  0.00  0.00    +0.000 A 
ATOM      5  C   UNL     1       1.442   3.441  19.518  0.00  0.00    +0.000 A 
ATOM      6  N   UNL     1       0.477   3.932  20.383  0.00  0.00    +0.000 N 
ATOM      7  N   UNL     1       1.507   2.097  19.405  0.00  0.00    +0.000 NA
ATOM      8  C   UNL     1       2.421   1.559  18.580  0.00  0.00    +0.000 A 
ATOM      9  N   UNL     1       3.319   2.199  17.810  0.00  0.00    +0.000 NA
ATOM     10  C   UNL     1       3.233   3.530  17.959  0.00  0.00    +0.000 A 
ATOM     11  H   UNL     1       0.061   4.821  20.143  0.00  0.00    +0.000 HD
ATOM     12  H   UNL     1      -0.174   3.212  20.675  0.00  0.00    +0.000 HD
ENDROOT
BRANCH   1  19
ATOM     13  C   UNL     1       6.058   3.874  12.964  0.00  0.00    +0.000 C 
ATOM     14  O   UNL     1       7.109   3.580  12.397  0.00  0.00    +0.000 OA
ATOM     15  N   UNL     1       6.013   4.604  14.142  0.00  0.00    +0.000 N 
ATOM     16  C   UNL     1       7.257   5.180  14.648  0.00  0.00    +0.000 C 
ATOM     17  C   UNL     1       7.607   4.587  16.008  0.00  0.00    +0.000 C 
ATOM     18  C   UNL     1       6.456   4.769  17.001  0.00  0.00    +0.000 C 
ATOM     19  C   UNL     1       5.128   4.226  16.440  0.00  0.00    +0.000 C 
ATOM     20  C   UNL     1       4.847   4.774  15.029  0.00  0.00    +0.000 C 
BRANCH  13  22
ATOM     21  C   UNL     1       4.719   2.721  11.258  0.00  0.00    +0.000 C 
ATOM     22  C   UNL     1       4.759   3.470  12.367  0.00  0.00    +0.000 C 
ENDBRANCH  13  22
ENDBRANCH   1  19
BRANCH   3  23
ATOM     23  C   UNL     1       2.138   6.784  19.271  0.00  0.00    +0.000 A 
ATOM     24  C   UNL     1       1.753   6.718  20.617  0.00  0.00    +0.000 A 
ATOM     25  C   UNL     1       1.239   7.844  21.267  0.00  0.00    +0.000 A 
ATOM     26  C   UNL     1       1.137   9.057  20.585  0.00  0.00    +0.000 A 
ATOM     27  C   UNL     1       1.507   9.144  19.238  0.00  0.00    +0.000 A 
ATOM     28  C   UNL     1       1.967   7.996  18.582  0.00  0.00    +0.000 A 
BRANCH  27  29
ATOM     29  C   UNL     1       1.453  10.478  18.570  0.00  0.00    +0.000 C 
ATOM     30  O   UNL     1       2.307  10.768  17.738  0.00  0.00    +0.000 OA
ATOM     31  N   UNL     1       0.434  11.330  18.936  0.00  0.00    +0.000 N 
ATOM     32  H   UNL     1      -0.157  11.104  19.722  0.00  0.00    +0.000 HD
BRANCH  31  33
ATOM     33  C   UNL     1       0.360  12.685  18.428  0.00  0.00    +0.000 C 
BRANCH  33  34
ATOM     34  C   UNL     1       1.167  13.650  19.260  0.00  0.00    +0.000 A 
ATOM     35  C   UNL     1       2.037  14.572  18.652  0.00  0.00    +0.000 A 
ATOM     36  C   UNL     1       2.755  15.487  19.422  0.00  0.00    +0.000 A 
ATOM     37  C   UNL     1       2.614  15.480  20.803  0.00  0.00    +0.000 A 
ATOM     38  F   UNL     1       3.294  16.368  21.540  0.00  0.00    +0.000 F 
ATOM     39  C   UNL     1       1.772  14.571  21.430  0.00  0.00    +0.000 A 
ATOM     40  C   UNL     1       1.050  13.655  20.660  0.00  0.00    +0.000 A 
ENDBRANCH  33  34
ENDBRANCH  31  33
ENDBRANCH  27  29
ENDBRANCH   3  23
TORSDOF 6
ENDMDL
MODEL 5
REMARK VINA RESULT:      -8.8      2.091      2.541
REMARK  Name = 
REMARK  6 active torsions:
REMARK  status: ('A' for Active; 'I' for Inactive)
REMARK    1  A    between atoms: C_2  and  C_3
REMARK    2  A    between atoms: C_9  and  N_10
REMARK    3  A    between atoms: C_12  and  C_13
REMARK    4  A    between atoms: C_17  and  C_18
REMARK    5  A    between atoms: N_20  and  C_21
REMARK    6  A    between atoms: C_21  and  C_22
REMARK                            x       y       z     vdW  Elec       q    Type
REMARK                         _______ _______ _______ _____ _____    ______ ____
ROOT
ATOM      1  N   UNL     1       4.063   4.423  17.264  0.00  0.00    +0.000 N 
ATOM      2  N   UNL     1       3.700   5.690  17.564  0.00  0.00    +0.000 NA
ATOM      3  C   UNL     1       2.767   5.555  18.530  0.00  0.00    +0.000 A 
ATOM      4  C   UNL     1       2.464   4.176  18.768  0.00  0.00    +0.000 A 
ATOM      5  C   UNL     1       1.609   3.398  19.567  0.00  0.00    +0.000 A 
ATOM      6  N   UNL     1       0.666   3.893  20.452  0.00  0.00    +0.000 N 
ATOM      7  N   UNL     1       1.704   2.053  19.494  0.00  0.00    +0.000 NA
ATOM      8  C   UNL     1       2.600   1.511  18.651  0.00  0.00    +0.000 A 
ATOM      9  N   UNL     1       3.450   2.147  17.826  0.00  0.00    +0.000 NA
ATOM     10  C   UNL     1       3.335   3.480  17.936  0.00  0.00    +0.000 A 
ATOM     11  H   UNL     1       0.218   4.764  20.201  0.00  0.00    +0.000 HD
ATOM     12  H   UNL     1       0.045   3.167  20.792  0.00  0.00    +0.000 HD
ENDROOT
BRANCH   1  19
ATOM     13  C   UNL     1       5.946   3.658  12.833  0.00  0.00    +0.000 C 
ATOM     14  O   UNL     1       6.985   3.380  12.236  0.00  0.00    +0.000 OA
ATOM     15  N   UNL     1       5.917   4.454  13.968  0.00  0.00    +0.000 N 
ATOM     16  C   UNL     1       7.153   5.115  14.383  0.00  0.00    +0.000 C 
ATOM     17  C   UNL     1       7.590   4.620  15.757  0.00  0.00    +0.000 C 
ATOM     18  C   UNL     1       6.476   4.808  16.790  0.00  0.00    +0.000 C 
ATOM     19  C   UNL     1       5.152   4.172  16.322  0.00  0.00    +0.000 C 
ATOM     20  C   UNL     1       4.784   4.622  14.897  0.00  0.00    +0.000 C 
BRANCH  13  22
ATOM     21  C   UNL     1       4.267   3.402  11.059  0.00  0.00    +0.000 C 
ATOM     22  C   UNL     1       4.643   3.160  12.321  0.00  0.00    +0.000 C 
ENDBRANCH  13  22
ENDBRANCH   1  19
BRANCH   3  23
ATOM     23  C   UNL     1       2.208   6.747  19.185  0.00  0.00    +0.000 A 
ATOM     24  C   UNL     1       1.763   6.681  20.513  0.00  0.00    +0.000 A 
ATOM     25  C   UNL     1       1.245   7.814  21.148  0.00  0.00    +0.000 A 
ATOM     26  C   UNL     1       1.197   9.033  20.470  0.00  0.00    +0.000 A 
ATOM     27  C   UNL     1       1.627   9.120  19.142  0.00  0.00    +0.000 A 
ATOM     28  C   UNL     1       2.092   7.967  18.498  0.00  0.00    +0.000 A 
BRANCH  27  29
ATOM     29  C   UNL     1       1.630  10.459  18.481  0.00  0.00    +0.000 C 
ATOM     30  O   UNL     1       2.130  10.577  17.367  0.00  0.00    +0.000 OA
ATOM     31  N   UNL     1       1.069  11.509  19.174  0.00  0.00    +0.000 N 
ATOM     32  H   UNL     1       0.799  11.393  20.139  0.00  0.00    +0.000 HD
BRANCH  31  33
ATOM     33  C   UNL     1       1.121  12.865  18.667  0.00  0.00    +0.000 C 
BRANCH  33  34
ATOM     34  C   UNL     1       0.574  13.864  19.656  0.00  0.00    +0.000 A 
ATOM     35  C   UNL     1      -0.448  14.757  19.288  0.00  0.00    +0.000 A 
ATOM     36  C   UNL     1      -0.976  15.655  20.215  0.00  0.00    +0.000 A 
ATOM     37  C   UNL     1      -0.481  15.672  21.512  0.00  0.00    +0.000 A 
ATOM     38  F   UNL     1      -0.999  16.525  22.405  0.00  0.00    +0.000 F 
ATOM     39  C   UNL     1       0.537  14.809  21.898  0.00  0.00    +0.000 A 
ATOM     40  C   UNL     1       1.067  13.908  20.971  0.00  0.00    +0.000 A 
ENDBRANCH  33  34
ENDBRANCH  31  33
ENDBRANCH  27  29
ENDBRANCH   3  23
TORSDOF 6
ENDMDL
MODEL 6
REMARK VINA RESULT:      -8.2      4.522     12.071
REMARK  Name = 
REMARK  6 active torsions:
REMARK  status: ('A' for Active; 'I' for Inactive)
REMARK    1  A    between atoms: C_2  and  C_3
REMARK    2  A    between atoms: C_9  and  N_10
REMARK    3  A    between atoms: C_12  and  C_13
REMARK    4  A    between atoms: C_17  and  C_18
REMARK    5  A    between atoms: N_20  and  C_21
REMARK    6  A    between atoms: C_21  and  C_22
REMARK                            x       y       z     vdW  Elec       q    Type
REMARK                         _______ _______ _______ _____ _____    ______ ____
ROOT
ATOM      1  N   UNL     1      -2.112  13.612  20.698  0.00  0.00    +0.000 N 
ATOM      2  N   UNL     1      -1.844  12.294  20.824  0.00  0.00    +0.000 NA
ATOM      3  C   UNL     1      -0.558  12.171  20.437  0.00  0.00    +0.000 A 
ATOM      4  C   UNL     1      -0.039  13.418  19.960  0.00  0.00    +0.000 A 
ATOM      5  C   UNL     1       1.146  13.937  19.411  0.00  0.00    +0.000 A 
ATOM      6  N   UNL     1       2.287  13.205  19.127  0.00  0.00    +0.000 N 
ATOM      7  N   UNL     1       1.207  15.258  19.141  0.00  0.00    +0.000 NA
ATOM      8  C   UNL     1       0.131  16.023  19.393  0.00  0.00    +0.000 A 
ATOM      9  N   UNL     1      -1.057  15.639  19.893  0.00  0.00    +0.000 NA
ATOM     10  C   UNL     1      -1.076  14.324  20.160  0.00  0.00    +0.000 A 
ATOM     11  H   UNL     1       2.152  12.247  18.833  0.00  0.00    +0.000 HD
ATOM     12  H   UNL     1       2.954  13.737  18.580  0.00  0.00    +0.000 HD
ENDROOT
BRANCH   1  19
ATOM     13  C   UNL     1      -6.945  13.470  21.321  0.00  0.00    +0.000 C 
ATOM     14  O   UNL     1      -7.912  14.132  21.694  0.00  0.00    +0.000 OA
ATOM     15  N   UNL     1      -5.693  13.563  21.911  0.00  0.00    +0.000 N 
ATOM     16  C   UNL     1      -5.558  14.366  23.124  0.00  0.00    +0.000 C 
ATOM     17  C   UNL     1      -4.611  15.538  22.888  0.00  0.00    +0.000 C 
ATOM     18  C   UNL     1      -3.252  15.054  22.376  0.00  0.00    +0.000 C 
ATOM     19  C   UNL     1      -3.399  14.147  21.139  0.00  0.00    +0.000 C 
ATOM     20  C   UNL     1      -4.427  13.027  21.378  0.00  0.00    +0.000 C 
BRANCH  13  22
ATOM     21  C   UNL     1      -7.361  11.206  20.465  0.00  0.00    +0.000 C 
ATOM     22  C   UNL     1      -7.100  12.494  20.211  0.00  0.00    +0.000 C 
ENDBRANCH  13  22
ENDBRANCH   1  19
BRANCH   3  23
ATOM     23  C   UNL     1       0.123  10.871  20.540  0.00  0.00    +0.000 A 
ATOM     24  C   UNL     1       0.046  10.123  21.724  0.00  0.00    +0.000 A 
ATOM     25  C   UNL     1       0.677   8.880  21.823  0.00  0.00    +0.000 A 
ATOM     26  C   UNL     1       1.364   8.356  20.728  0.00  0.00    +0.000 A 
ATOM     27  C   UNL     1       1.461   9.088  19.539  0.00  0.00    +0.000 A 
ATOM     28  C   UNL     1       0.873  10.357  19.469  0.00  0.00    +0.000 A 
BRANCH  27  29
ATOM     29  C   UNL     1       2.139   8.457  18.368  0.00  0.00    +0.000 C 
ATOM     30  O   UNL     1       1.955   8.920  17.247  0.00  0.00    +0.000 OA
ATOM     31  N   UNL     1       2.941   7.364  18.613  0.00  0.00    +0.000 N 
ATOM     32  H   UNL     1       2.949   6.937  19.527  0.00  0.00    +0.000 HD
BRANCH  31  33
ATOM     33  C   UNL     1       3.553   6.617  17.533  0.00  0.00    +0.000 C 
BRANCH  33  34
ATOM     34  C   UNL     1       3.379   5.128  17.702  0.00  0.00    +0.000 A 
ATOM     35  C   UNL     1       4.334   4.229  17.198  0.00  0.00    +0.000 A 
ATOM     36  C   UNL     1       4.188   2.855  17.387  0.00  0.00    +0.000 A 
ATOM     37  C   UNL     1       3.082   2.371  18.072  0.00  0.00    +0.000 A 
ATOM     38  F   UNL     1       2.950   1.052  18.265  0.00  0.00    +0.000 F 
ATOM     39  C   UNL     1       2.116   3.237  18.569  0.00  0.00    +0.000 A 
ATOM     40  C   UNL     1       2.262   4.614  18.383  0.00  0.00    +0.000 A 
ENDBRANCH  33  34
ENDBRANCH  31  33
ENDBRANCH  27  29
ENDBRANCH   3  23
TORSDOF 6
ENDMDL
MODEL 7
REMARK VINA RESULT:      -8.1      4.777     12.106
REMARK  Name = 
REMARK  6 active torsions:
REMARK  status: ('A' for Active; 'I' for Inactive)
REMARK    1  A    between atoms: C_2  and  C_3
REMARK    2  A    between atoms: C_9  and  N_10
REMARK    3  A    between atoms: C_12  and  C_13
REMARK    4  A    between atoms: C_17  and  C_18
REMARK    5  A    between atoms: N_20  and  C_21
REMARK    6  A    between atoms: C_21  and  C_22
REMARK                            x       y       z     vdW  Elec       q    Type
REMARK                         _______ _______ _______ _____ _____    ______ ____
ROOT
ATOM      1  N   UNL     1      -0.203  15.296  20.489  0.00  0.00    +0.000 N 
ATOM      2  N   UNL     1      -0.791  14.141  20.103  0.00  0.00    +0.000 NA
ATOM      3  C   UNL     1       0.151  13.509  19.373  0.00  0.00    +0.000 A 
ATOM      4  C   UNL     1       1.316  14.326  19.211  0.00  0.00    +0.000 A 
ATOM      5  C   UNL     1       2.565  14.282  18.569  0.00  0.00    +0.000 A 
ATOM      6  N   UNL     1       3.022  13.245  17.772  0.00  0.00    +0.000 N 
ATOM      7  N   UNL     1       3.415  15.317  18.739  0.00  0.00    +0.000 NA
ATOM      8  C   UNL     1       3.029  16.355  19.501  0.00  0.00    +0.000 A 
ATOM      9  N   UNL     1       1.858  16.520  20.142  0.00  0.00    +0.000 NA
ATOM     10  C   UNL     1       1.046  15.467  19.960  0.00  0.00    +0.000 A 
ATOM     11  H   UNL     1       2.329  12.749  17.229  0.00  0.00    +0.000 HD
ATOM     12  H   UNL     1       3.869  13.493  17.273  0.00  0.00    +0.000 HD
ENDROOT
BRANCH   1  19
ATOM     13  C   UNL     1      -1.951  16.669  24.828  0.00  0.00    +0.000 C 
ATOM     14  O   UNL     1      -2.620  17.532  25.395  0.00  0.00    +0.000 OA
ATOM     15  N   UNL     1      -1.098  16.948  23.771  0.00  0.00    +0.000 N 
ATOM     16  C   UNL     1      -0.869  18.348  23.417  0.00  0.00    +0.000 C 
ATOM     17  C   UNL     1      -1.362  18.630  22.002  0.00  0.00    +0.000 C 
ATOM     18  C   UNL     1      -0.714  17.679  20.993  0.00  0.00    +0.000 C 
ATOM     19  C   UNL     1      -0.893  16.204  21.403  0.00  0.00    +0.000 C 
ATOM     20  C   UNL     1      -0.470  15.970  22.863  0.00  0.00    +0.000 C 
BRANCH  13  22
ATOM     21  C   UNL     1      -3.096  14.508  25.060  0.00  0.00    +0.000 C 
ATOM     22  C   UNL     1      -2.013  15.260  25.294  0.00  0.00    +0.000 C 
ENDBRANCH  13  22
ENDBRANCH   1  19
BRANCH   3  23
ATOM     23  C   UNL     1      -0.099  12.152  18.864  0.00  0.00    +0.000 A 
ATOM     24  C   UNL     1      -1.345  11.820  18.313  0.00  0.00    +0.000 A 
ATOM     25  C   UNL     1      -1.584  10.538  17.813  0.00  0.00    +0.000 A 
ATOM     26  C   UNL     1      -0.567   9.582  17.828  0.00  0.00    +0.000 A 
ATOM     27  C   UNL     1       0.682   9.888  18.380  0.00  0.00    +0.000 A 
ATOM     28  C   UNL     1       0.892  11.158  18.929  0.00  0.00    +0.000 A 
BRANCH  27  29
ATOM     29  C   UNL     1       1.764   8.861  18.306  0.00  0.00    +0.000 C 
ATOM     30  O   UNL     1       2.459   8.794  17.298  0.00  0.00    +0.000 OA
ATOM     31  N   UNL     1       1.919   8.025  19.390  0.00  0.00    +0.000 N 
ATOM     32  H   UNL     1       1.237   8.026  20.133  0.00  0.00    +0.000 HD
BRANCH  31  33
ATOM     33  C   UNL     1       2.865   6.928  19.371  0.00  0.00    +0.000 C 
BRANCH  33  34
ATOM     34  C   UNL     1       2.183   5.591  19.217  0.00  0.00    +0.000 A 
ATOM     35  C   UNL     1       2.112   4.958  17.964  0.00  0.00    +0.000 A 
ATOM     36  C   UNL     1       1.513   3.706  17.832  0.00  0.00    +0.000 A 
ATOM     37  C   UNL     1       0.973   3.084  18.950  0.00  0.00    +0.000 A 
ATOM     38  F   UNL     1       0.409   1.875  18.824  0.00  0.00    +0.000 F 
ATOM     39  C   UNL     1       1.018   3.693  20.197  0.00  0.00    +0.000 A 
ATOM     40  C   UNL     1       1.620   4.947  20.332  0.00  0.00    +0.000 A 
ENDBRANCH  33  34
ENDBRANCH  31  33
ENDBRANCH  27  29
ENDBRANCH   3  23
TORSDOF 6
ENDMDL
MODEL 8
REMARK VINA RESULT:      -8.1      4.610     12.149
REMARK  Name = 
REMARK  6 active torsions:
REMARK  status: ('A' for Active; 'I' for Inactive)
REMARK    1  A    between atoms: C_2  and  C_3
REMARK    2  A    between atoms: C_9  and  N_10
REMARK    3  A    between atoms: C_12  and  C_13
REMARK    4  A    between atoms: C_17  and  C_18
REMARK    5  A    between atoms: N_20  and  C_21
REMARK    6  A    between atoms: C_21  and  C_22
REMARK                            x       y       z     vdW  Elec       q    Type
REMARK                         _______ _______ _______ _____ _____    ______ ____
ROOT
ATOM      1  N   UNL     1      -2.479  13.360  21.293  0.00  0.00    +0.000 N 
ATOM      2  N   UNL     1      -1.280  12.756  21.135  0.00  0.00    +0.000 NA
ATOM      3  C   UNL     1      -1.423  12.007  20.022  0.00  0.00    +0.000 A 
ATOM      4  C   UNL     1      -2.767  12.060  19.531  0.00  0.00    +0.000 A 
ATOM      5  C   UNL     1      -3.544  11.512  18.496  0.00  0.00    +0.000 A 
ATOM      6  N   UNL     1      -3.099  10.598  17.555  0.00  0.00    +0.000 N 
ATOM      7  N   UNL     1      -4.830  11.904  18.378  0.00  0.00    +0.000 NA
ATOM      8  C   UNL     1      -5.323  12.788  19.262  0.00  0.00    +0.000 A 
ATOM      9  N   UNL     1      -4.689  13.361  20.301  0.00  0.00    +0.000 NA
ATOM     10  C   UNL     1      -3.411  12.957  20.378  0.00  0.00    +0.000 A 
ATOM     11  H   UNL     1      -2.400   9.935  17.861  0.00  0.00    +0.000 HD
ATOM     12  H   UNL     1      -3.861  10.208  17.013  0.00  0.00    +0.000 HD
ENDROOT
BRANCH   1  19
ATOM     13  C   UNL     1      -5.144  16.019  24.391  0.00  0.00    +0.000 C 
ATOM     14  O   UNL     1      -5.082  16.925  25.221  0.00  0.00    +0.000 OA
ATOM     15  N   UNL     1      -4.140  15.077  24.225  0.00  0.00    +0.000 N 
ATOM     16  C   UNL     1      -3.033  15.069  25.180  0.00  0.00    +0.000 C 
ATOM     17  C   UNL     1      -1.716  15.372  24.474  0.00  0.00    +0.000 C 
ATOM     18  C   UNL     1      -1.472  14.398  23.319  0.00  0.00    +0.000 C 
ATOM     19  C   UNL     1      -2.670  14.352  22.350  0.00  0.00    +0.000 C 
ATOM     20  C   UNL     1      -3.995  14.133  23.101  0.00  0.00    +0.000 C 
BRANCH  13  22
ATOM     21  C   UNL     1      -7.281  14.958  23.808  0.00  0.00    +0.000 C 
ATOM     22  C   UNL     1      -6.350  15.881  23.535  0.00  0.00    +0.000 C 
ENDBRANCH  13  22
ENDBRANCH   1  19
BRANCH   3  23
ATOM     23  C   UNL     1      -0.272  11.274  19.474  0.00  0.00    +0.000 A 
ATOM     24  C   UNL     1       0.502  11.836  18.448  0.00  0.00    +0.000 A 
ATOM     25  C   UNL     1       1.606  11.152  17.933  0.00  0.00    +0.000 A 
ATOM     26  C   UNL     1       1.970   9.914  18.462  0.00  0.00    +0.000 A 
ATOM     27  C   UNL     1       1.208   9.330  19.481  0.00  0.00    +0.000 A 
ATOM     28  C   UNL     1       0.071   9.998  19.950  0.00  0.00    +0.000 A 
BRANCH  27  29
ATOM     29  C   UNL     1       1.676   8.040  20.070  0.00  0.00    +0.000 C 
ATOM     30  O   UNL     1       1.247   7.689  21.164  0.00  0.00    +0.000 OA
ATOM     31  N   UNL     1       2.589   7.306  19.345  0.00  0.00    +0.000 N 
ATOM     32  H   UNL     1       3.017   7.701  18.521  0.00  0.00    +0.000 HD
BRANCH  31  33
ATOM     33  C   UNL     1       3.186   6.099  19.879  0.00  0.00    +0.000 C 
BRANCH  33  34
ATOM     34  C   UNL     1       2.399   4.865  19.512  0.00  0.00    +0.000 A 
ATOM     35  C   UNL     1       1.601   4.210  20.467  0.00  0.00    +0.000 A 
ATOM     36  C   UNL     1       0.847   3.091  20.116  0.00  0.00    +0.000 A 
ATOM     37  C   UNL     1       0.893   2.615  18.812  0.00  0.00    +0.000 A 
ATOM     38  F   UNL     1       0.157   1.547  18.473  0.00  0.00    +0.000 F 
ATOM     39  C   UNL     1       1.683   3.235  17.853  0.00  0.00    +0.000 A 
ATOM     40  C   UNL     1       2.438   4.358  18.202  0.00  0.00    +0.000 A 
ENDBRANCH  33  34
ENDBRANCH  31  33
ENDBRANCH  27  29
ENDBRANCH   3  23
TORSDOF 6
ENDMDL
MODEL 9
REMARK VINA RESULT:      -8.1      4.473     11.921
REMARK  Name = 
REMARK  6 active torsions:
REMARK  status: ('A' for Active; 'I' for Inactive)
REMARK    1  A    between atoms: C_2  and  C_3
REMARK    2  A    between atoms: C_9  and  N_10
REMARK    3  A    between atoms: C_12  and  C_13
REMARK    4  A    between atoms: C_17  and  C_18
REMARK    5  A    between atoms: N_20  and  C_21
REMARK    6  A    between atoms: C_21  and  C_22
REMARK                            x       y       z     vdW  Elec       q    Type
REMARK                         _______ _______ _______ _____ _____    ______ ____
ROOT
ATOM      1  N   UNL     1      -2.100  13.446  20.605  0.00  0.00    +0.000 N 
ATOM      2  N   UNL     1      -1.820  12.159  20.907  0.00  0.00    +0.000 NA
ATOM      3  C   UNL     1      -0.532  11.998  20.543  0.00  0.00    +0.000 A 
ATOM      4  C   UNL     1      -0.022  13.175  19.905  0.00  0.00    +0.000 A 
ATOM      5  C   UNL     1       1.159  13.628  19.294  0.00  0.00    +0.000 A 
ATOM      6  N   UNL     1       2.308  12.876  19.113  0.00  0.00    +0.000 N 
ATOM      7  N   UNL     1       1.209  14.902  18.852  0.00  0.00    +0.000 NA
ATOM      8  C   UNL     1       0.125  15.683  18.997  0.00  0.00    +0.000 A 
ATOM      9  N   UNL     1      -1.061  15.358  19.540  0.00  0.00    +0.000 NA
ATOM     10  C   UNL     1      -1.069  14.089  19.980  0.00  0.00    +0.000 A 
ATOM     11  H   UNL     1       2.183  11.886  18.950  0.00  0.00    +0.000 HD
ATOM     12  H   UNL     1       2.972  13.336  18.502  0.00  0.00    +0.000 HD
ENDROOT
BRANCH   1  19
ATOM     13  C   UNL     1      -6.944  13.368  21.155  0.00  0.00    +0.000 C 
ATOM     14  O   UNL     1      -7.916  14.063  21.443  0.00  0.00    +0.000 OA
ATOM     15  N   UNL     1      -5.703  13.519  21.754  0.00  0.00    +0.000 N 
ATOM     16  C   UNL     1      -5.587  14.439  22.884  0.00  0.00    +0.000 C 
ATOM     17  C   UNL     1      -4.634  15.581  22.548  0.00  0.00    +0.000 C 
ATOM     18  C   UNL     1      -3.267  15.048  22.112  0.00  0.00    +0.000 C 
ATOM     19  C   UNL     1      -3.394  14.023  20.968  0.00  0.00    +0.000 C 
ATOM     20  C   UNL     1      -4.428  12.933  21.300  0.00  0.00    +0.000 C 
BRANCH  13  22
ATOM     21  C   UNL     1      -7.560  11.084  20.491  0.00  0.00    +0.000 C 
ATOM     22  C   UNL     1      -7.081  12.286  20.145  0.00  0.00    +0.000 C 
ENDBRANCH  13  22
ENDBRANCH   1  19
BRANCH   3  23
ATOM     23  C   UNL     1       0.160  10.730  20.820  0.00  0.00    +0.000 A 
ATOM     24  C   UNL     1       0.186  10.206  22.120  0.00  0.00    +0.000 A 
ATOM     25  C   UNL     1       0.827   8.994  22.387  0.00  0.00    +0.000 A 
ATOM     26  C   UNL     1       1.423   8.276  21.350  0.00  0.00    +0.000 A 
ATOM     27  C   UNL     1       1.418   8.783  20.046  0.00  0.00    +0.000 A 
ATOM     28  C   UNL     1       0.821  10.025  19.799  0.00  0.00    +0.000 A 
BRANCH  27  29
ATOM     29  C   UNL     1       1.998   7.946  18.954  0.00  0.00    +0.000 C 
ATOM     30  O   UNL     1       2.347   8.482  17.907  0.00  0.00    +0.000 OA
ATOM     31  N   UNL     1       2.105   6.591  19.182  0.00  0.00    +0.000 N 
ATOM     32  H   UNL     1       1.677   6.180  19.999  0.00  0.00    +0.000 HD
BRANCH  31  33
ATOM     33  C   UNL     1       2.551   5.682  18.147  0.00  0.00    +0.000 C 
BRANCH  33  34
ATOM     34  C   UNL     1       4.056   5.618  18.056  0.00  0.00    +0.000 A 
ATOM     35  C   UNL     1       4.728   6.064  16.904  0.00  0.00    +0.000 A 
ATOM     36  C   UNL     1       6.120   6.037  16.838  0.00  0.00    +0.000 A 
ATOM     37  C   UNL     1       6.849   5.557  17.917  0.00  0.00    +0.000 A 
ATOM     38  F   UNL     1       8.187   5.544  17.857  0.00  0.00    +0.000 F 
ATOM     39  C   UNL     1       6.210   5.097  19.062  0.00  0.00    +0.000 A 
ATOM     40  C   UNL     1       4.815   5.125  19.132  0.00  0.00    +0.000 A 
ENDBRANCH  33  34
ENDBRANCH  31  33
ENDBRANCH  27  29
ENDBRANCH   3  23
TORSDOF 6
ENDMDL
