MODEL 1
REMARK VINA RESULT:      -8.0      0.000      0.000
REMARK  Name = 
REMARK  10 active torsions:
REMARK  status: ('A' for Active; 'I' for Inactive)
REMARK    1  A    between atoms: C_1  and  C_2
REMARK    2  A    between atoms: C_3  and  O_4
REMARK    3  A    between atoms: O_4  and  C_5
REMARK    4  A    between atoms: C_13  and  O_14
REMARK    5  A    between atoms: O_14  and  C_15
REMARK    6  A    between atoms: C_15  and  C_16
REMARK    7  A    between atoms: C_15  and  C_17
REMARK    8  A    between atoms: N_19  and  C_20
REMARK    9  A    between atoms: C_23  and  C_24
REMARK   10  A    between atoms: C_28  and  O_29
REMARK                            x       y       z     vdW  Elec       q    Type
REMARK                         _______ _______ _______ _____ _____    ______ ____
ROOT
ATOM      1  C   UNL     1       2.455   8.729  17.668  0.00  0.00    +0.000 C 
ATOM      2  C   UNL     1       2.349   7.711  18.747  0.00  0.00    +0.000 A 
ATOM      3  C   UNL     1       2.715   6.373  18.795  0.00  0.00    +0.000 A 
ATOM      4  C   UNL     1       2.344   5.938  20.072  0.00  0.00    +0.000 A 
ATOM      5  N   UNL     1       1.871   6.916  20.828  0.00  0.00    +0.000 NA
ATOM      6  N   UNL     1       1.751   7.983  19.991  0.00  0.00    +0.000 N 
ENDROOT
BRANCH   6   7
ATOM      7  C   UNL     1       0.983   9.146  20.379  0.00  0.00    +0.000 A 
ATOM      8  N   UNL     1       0.136   9.684  19.458  0.00  0.00    +0.000 NA
ATOM      9  C   UNL     1      -0.737  10.638  19.870  0.00  0.00    +0.000 A 
ATOM     10  C   UNL     1      -0.835  11.131  21.168  0.00  0.00    +0.000 A 
ATOM     11  C   UNL     1       0.106  10.625  22.072  0.00  0.00    +0.000 A 
ATOM     12  C   UNL     1       1.022   9.638  21.691  0.00  0.00    +0.000 A 
BRANCH  10  13
ATOM     13  C   UNL     1      -1.932  12.060  21.620  0.00  0.00    +0.000 C 
ATOM     14  C   UNL     1      -1.845  13.539  21.324  0.00  0.00    +0.000 C 
ATOM     15  C   UNL     1      -2.889  12.701  20.646  0.00  0.00    +0.000 C 
ENDBRANCH  10  13
BRANCH  12  16
ATOM     16  O   UNL     1       1.914   9.208  22.631  0.00  0.00    +0.000 OA
ATOM     17  H   UNL     1       1.558   9.327  23.523  0.00  0.00    +0.000 HD
ENDBRANCH  12  16
ENDBRANCH   6   7
BRANCH   3  18
ATOM     18  O   UNL     1       3.316   5.601  17.861  0.00  0.00    +0.000 OA
BRANCH  18  19
ATOM     19  C   UNL     1       4.675   5.505  17.723  0.00  0.00    +0.000 A 
ATOM     20  C   UNL     1       5.279   6.283  16.734  0.00  0.00    +0.000 A 
ATOM     21  F   UNL     1       4.542   7.102  15.970  0.00  0.00    +0.000 F 
ATOM     22  C   UNL     1       6.654   6.219  16.507  0.00  0.00    +0.000 A 
ATOM     23  C   UNL     1       7.445   5.371  17.282  0.00  0.00    +0.000 A 
ATOM     24  C   UNL     1       6.860   4.626  18.304  0.00  0.00    +0.000 A 
ATOM     25  C   UNL     1       5.487   4.718  18.536  0.00  0.00    +0.000 A 
ATOM     26  F   UNL     1       4.971   4.012  19.552  0.00  0.00    +0.000 F 
ENDBRANCH  18  19
ENDBRANCH   3  18
BRANCH   4  27
ATOM     27  O   UNL     1       2.403   4.672  20.550  0.00  0.00    +0.000 OA
BRANCH  27  28
ATOM     28  C   UNL     1       1.172   3.936  20.446  0.00  0.00    +0.000 C 
ATOM     29  C   UNL     1       1.021   3.268  19.074  0.00  0.00    +0.000 C 
ATOM     30  C   UNL     1       1.210   2.848  21.519  0.00  0.00    +0.000 C 
ENDBRANCH  27  28
ENDBRANCH   4  27
TORSDOF 7
ENDMDL
MODEL 2
REMARK VINA RESULT:      -7.9      1.937      2.347
REMARK  Name = 
REMARK  10 active torsions:
REMARK  status: ('A' for Active; 'I' for Inactive)
REMARK    1  A    between atoms: C_1  and  C_2
REMARK    2  A    between atoms: C_3  and  O_4
REMARK    3  A    between atoms: O_4  and  C_5
REMARK    4  A    between atoms: C_13  and  O_14
REMARK    5  A    between atoms: O_14  and  C_15
REMARK    6  A    between atoms: C_15  and  C_16
REMARK    7  A    between atoms: C_15  and  C_17
REMARK    8  A    between atoms: N_19  and  C_20
REMARK    9  A    between atoms: C_23  and  C_24
REMARK   10  A    between atoms: C_28  and  O_29
REMARK                            x       y       z     vdW  Elec       q    Type
REMARK                         _______ _______ _______ _____ _____    ______ ____
ROOT
ATOM      1  C   UNL     1       4.556   7.420  17.671  0.00  0.00    +0.000 C 
ATOM      2  C   UNL     1       3.904   6.462  18.603  0.00  0.00    +0.000 A 
ATOM      3  C   UNL     1       4.149   5.123  18.874  0.00  0.00    +0.000 A 
ATOM      4  C   UNL     1       3.192   4.761  19.828  0.00  0.00    +0.000 A 
ATOM      5  N   UNL     1       2.452   5.784  20.223  0.00  0.00    +0.000 NA
ATOM      6  N   UNL     1       2.791   6.807  19.392  0.00  0.00    +0.000 N 
ENDROOT
BRANCH   6   7
ATOM      7  C   UNL     1       1.976   8.000  19.315  0.00  0.00    +0.000 A 
ATOM      8  N   UNL     1       1.686   8.493  18.078  0.00  0.00    +0.000 NA
ATOM      9  C   UNL     1       0.759   9.480  17.983  0.00  0.00    +0.000 A 
ATOM     10  C   UNL     1       0.079  10.050  19.056  0.00  0.00    +0.000 A 
ATOM     11  C   UNL     1       0.462   9.589  20.319  0.00  0.00    +0.000 A 
ATOM     12  C   UNL     1       1.411   8.570  20.464  0.00  0.00    +0.000 A 
BRANCH  10  13
ATOM     13  C   UNL     1      -1.064  11.018  18.890  0.00  0.00    +0.000 C 
ATOM     14  C   UNL     1      -0.850  12.333  18.178  0.00  0.00    +0.000 C 
ATOM     15  C   UNL     1      -1.708  11.274  17.551  0.00  0.00    +0.000 C 
ENDBRANCH  10  13
BRANCH  12  16
ATOM     16  O   UNL     1       1.736   8.186  21.734  0.00  0.00    +0.000 OA
ATOM     17  H   UNL     1       0.954   7.869  22.208  0.00  0.00    +0.000 HD
ENDBRANCH  12  16
ENDBRANCH   6   7
BRANCH   3  18
ATOM     18  O   UNL     1       5.095   4.294  18.377  0.00  0.00    +0.000 OA
BRANCH  18  19
ATOM     19  C   UNL     1       5.633   4.427  17.124  0.00  0.00    +0.000 A 
ATOM     20  C   UNL     1       4.827   4.089  16.037  0.00  0.00    +0.000 A 
ATOM     21  F   UNL     1       3.567   3.670  16.230  0.00  0.00    +0.000 F 
ATOM     22  C   UNL     1       5.309   4.166  14.730  0.00  0.00    +0.000 A 
ATOM     23  C   UNL     1       6.617   4.593  14.500  0.00  0.00    +0.000 A 
ATOM     24  C   UNL     1       7.416   4.978  15.575  0.00  0.00    +0.000 A 
ATOM     25  C   UNL     1       6.911   4.919  16.874  0.00  0.00    +0.000 A 
ATOM     26  F   UNL     1       7.701   5.334  17.875  0.00  0.00    +0.000 F 
ENDBRANCH  18  19
ENDBRANCH   3  18
BRANCH   4  27
ATOM     27  O   UNL     1       2.965   3.521  20.324  0.00  0.00    +0.000 OA
BRANCH  27  28
ATOM     28  C   UNL     1       1.575   3.180  20.466  0.00  0.00    +0.000 C 
ATOM     29  C   UNL     1       1.092   2.272  19.329  0.00  0.00    +0.000 C 
ATOM     30  C   UNL     1       1.433   2.426  21.789  0.00  0.00    +0.000 C 
ENDBRANCH  27  28
ENDBRANCH   4  27
TORSDOF 7
ENDMDL
MODEL 3
REMARK VINA RESULT:      -7.9      1.774      2.410
REMARK  Name = 
REMARK  10 active torsions:
REMARK  status: ('A' for Active; 'I' for Inactive)
REMARK    1  A    between atoms: C_1  and  C_2
REMARK    2  A    between atoms: C_3  and  O_4
REMARK    3  A    between atoms: O_4  and  C_5
REMARK    4  A    between atoms: C_13  and  O_14
REMARK    5  A    between atoms: O_14  and  C_15
REMARK    6  A    between atoms: C_15  and  C_16
REMARK    7  A    between atoms: C_15  and  C_17
REMARK    8  A    between atoms: N_19  and  C_20
REMARK    9  A    between atoms: C_23  and  C_24
REMARK   10  A    between atoms: C_28  and  O_29
REMARK                            x       y       z     vdW  Elec       q    Type
REMARK                         _______ _______ _______ _____ _____    ______ ____
ROOT
ATOM      1  C   UNL     1       4.633   7.413  17.713  0.00  0.00    +0.000 C 
ATOM      2  C   UNL     1       3.917   6.503  18.646  0.00  0.00    +0.000 A 
ATOM      3  C   UNL     1       4.116   5.169  18.973  0.00  0.00    +0.000 A 
ATOM      4  C   UNL     1       3.109   4.863  19.894  0.00  0.00    +0.000 A 
ATOM      5  N   UNL     1       2.378   5.917  20.220  0.00  0.00    +0.000 NA
ATOM      6  N   UNL     1       2.779   6.902  19.372  0.00  0.00    +0.000 N 
ENDROOT
BRANCH   6   7
ATOM      7  C   UNL     1       1.998   8.110  19.218  0.00  0.00    +0.000 A 
ATOM      8  N   UNL     1       1.817   8.593  17.957  0.00  0.00    +0.000 NA
ATOM      9  C   UNL     1       0.922   9.598  17.778  0.00  0.00    +0.000 A 
ATOM     10  C   UNL     1       0.172  10.195  18.788  0.00  0.00    +0.000 A 
ATOM     11  C   UNL     1       0.444   9.741  20.082  0.00  0.00    +0.000 A 
ATOM     12  C   UNL     1       1.356   8.705  20.313  0.00  0.00    +0.000 A 
BRANCH  10  13
ATOM     13  C   UNL     1      -0.934  11.184  18.521  0.00  0.00    +0.000 C 
ATOM     14  C   UNL     1      -2.350  10.702  18.314  0.00  0.00    +0.000 C 
ATOM     15  C   UNL     1      -2.000  11.487  19.544  0.00  0.00    +0.000 C 
ENDBRANCH  10  13
BRANCH  12  16
ATOM     16  O   UNL     1       1.571   8.330  21.608  0.00  0.00    +0.000 OA
ATOM     17  H   UNL     1       1.797   7.390  21.661  0.00  0.00    +0.000 HD
ENDBRANCH  12  16
ENDBRANCH   6   7
BRANCH   3  18
ATOM     18  O   UNL     1       5.063   4.301  18.548  0.00  0.00    +0.000 OA
BRANCH  18  19
ATOM     19  C   UNL     1       5.587   4.317  17.282  0.00  0.00    +0.000 A 
ATOM     20  C   UNL     1       6.943   4.615  17.149  0.00  0.00    +0.000 A 
ATOM     21  F   UNL     1       7.695   4.857  18.233  0.00  0.00    +0.000 F 
ATOM     22  C   UNL     1       7.546   4.683  15.893  0.00  0.00    +0.000 A 
ATOM     23  C   UNL     1       6.788   4.443  14.747  0.00  0.00    +0.000 A 
ATOM     24  C   UNL     1       5.443   4.097  14.871  0.00  0.00    +0.000 A 
ATOM     25  C   UNL     1       4.859   4.009  16.135  0.00  0.00    +0.000 A 
ATOM     26  F   UNL     1       3.573   3.637  16.210  0.00  0.00    +0.000 F 
ENDBRANCH  18  19
ENDBRANCH   3  18
BRANCH   4  27
ATOM     27  O   UNL     1       2.830   3.647  20.421  0.00  0.00    +0.000 OA
BRANCH  27  28
ATOM     28  C   UNL     1       1.427   3.378  20.594  0.00  0.00    +0.000 C 
ATOM     29  C   UNL     1       0.838   2.629  19.392  0.00  0.00    +0.000 C 
ATOM     30  C   UNL     1       1.290   2.497  21.835  0.00  0.00    +0.000 C 
ENDBRANCH  27  28
ENDBRANCH   4  27
TORSDOF 7
ENDMDL
MODEL 4
REMARK VINA RESULT:      -7.7      2.029      2.583
REMARK  Name = 
REMARK  10 active torsions:
REMARK  status: ('A' for Active; 'I' for Inactive)
REMARK    1  A    between atoms: C_1  and  C_2
REMARK    2  A    between atoms: C_3  and  O_4
REMARK    3  A    between atoms: O_4  and  C_5
REMARK    4  A    between atoms: C_13  and  O_14
REMARK    5  A    between atoms: O_14  and  C_15
REMARK    6  A    between atoms: C_15  and  C_16
REMARK    7  A    between atoms: C_15  and  C_17
REMARK    8  A    between atoms: N_19  and  C_20
REMARK    9  A    between atoms: C_23  and  C_24
REMARK   10  A    between atoms: C_28  and  O_29
REMARK                            x       y       z     vdW  Elec       q    Type
REMARK                         _______ _______ _______ _____ _____    ______ ____
ROOT
ATOM      1  C   UNL     1       4.740   7.612  17.813  0.00  0.00    +0.000 C 
ATOM      2  C   UNL     1       4.027   6.556  18.579  0.00  0.00    +0.000 A 
ATOM      3  C   UNL     1       4.279   5.200  18.740  0.00  0.00    +0.000 A 
ATOM      4  C   UNL     1       3.246   4.730  19.557  0.00  0.00    +0.000 A 
ATOM      5  N   UNL     1       2.446   5.697  19.977  0.00  0.00    +0.000 NA
ATOM      6  N   UNL     1       2.836   6.803  19.287  0.00  0.00    +0.000 N 
ENDROOT
BRANCH   6   7
ATOM      7  C   UNL     1       2.002   7.984  19.249  0.00  0.00    +0.000 A 
ATOM      8  N   UNL     1       1.673   8.491  18.027  0.00  0.00    +0.000 NA
ATOM      9  C   UNL     1       0.730   9.466  17.971  0.00  0.00    +0.000 A 
ATOM     10  C   UNL     1       0.069  10.009  19.069  0.00  0.00    +0.000 A 
ATOM     11  C   UNL     1       0.491   9.534  20.315  0.00  0.00    +0.000 A 
ATOM     12  C   UNL     1       1.457   8.528  20.421  0.00  0.00    +0.000 A 
BRANCH  10  13
ATOM     13  C   UNL     1      -1.092  10.962  18.947  0.00  0.00    +0.000 C 
ATOM     14  C   UNL     1      -0.863  12.385  18.497  0.00  0.00    +0.000 C 
ATOM     15  C   UNL     1      -1.605  11.431  17.608  0.00  0.00    +0.000 C 
ENDBRANCH  10  13
BRANCH  12  16
ATOM     16  O   UNL     1       1.820   8.130  21.675  0.00  0.00    +0.000 OA
ATOM     17  H   UNL     1       1.132   7.578  22.074  0.00  0.00    +0.000 HD
ENDBRANCH  12  16
ENDBRANCH   6   7
BRANCH   3  18
ATOM     18  O   UNL     1       5.289   4.440  18.258  0.00  0.00    +0.000 OA
BRANCH  18  19
ATOM     19  C   UNL     1       5.717   4.489  16.958  0.00  0.00    +0.000 A 
ATOM     20  C   UNL     1       7.041   4.861  16.728  0.00  0.00    +0.000 A 
ATOM     21  F   UNL     1       7.858   5.137  17.756  0.00  0.00    +0.000 F 
ATOM     22  C   UNL     1       7.546   4.966  15.432  0.00  0.00    +0.000 A 
ATOM     23  C   UNL     1       6.718   4.692  14.343  0.00  0.00    +0.000 A 
ATOM     24  C   UNL     1       5.407   4.273  14.562  0.00  0.00    +0.000 A 
ATOM     25  C   UNL     1       4.924   4.149  15.865  0.00  0.00    +0.000 A 
ATOM     26  F   UNL     1       3.668   3.708  16.031  0.00  0.00    +0.000 F 
ENDBRANCH  18  19
ENDBRANCH   3  18
BRANCH   4  27
ATOM     27  O   UNL     1       3.005   3.443  19.905  0.00  0.00    +0.000 OA
BRANCH  27  28
ATOM     28  C   UNL     1       2.520   2.615  18.833  0.00  0.00    +0.000 C 
ATOM     29  C   UNL     1       3.463   1.439  18.551  0.00  0.00    +0.000 C 
ATOM     30  C   UNL     1       1.165   2.062  19.273  0.00  0.00    +0.000 C 
ENDBRANCH  27  28
ENDBRANCH   4  27
TORSDOF 7
ENDMDL
MODEL 5
REMARK VINA RESULT:      -7.7      1.091      1.516
REMARK  Name = 
REMARK  10 active torsions:
REMARK  status: ('A' for Active; 'I' for Inactive)
REMARK    1  A    between atoms: C_1  and  C_2
REMARK    2  A    between atoms: C_3  and  O_4
REMARK    3  A    between atoms: O_4  and  C_5
REMARK    4  A    between atoms: C_13  and  O_14
REMARK    5  A    between atoms: O_14  and  C_15
REMARK    6  A    between atoms: C_15  and  C_16
REMARK    7  A    between atoms: C_15  and  C_17
REMARK    8  A    between atoms: N_19  and  C_20
REMARK    9  A    between atoms: C_23  and  C_24
REMARK   10  A    between atoms: C_28  and  O_29
REMARK                            x       y       z     vdW  Elec       q    Type
REMARK                         _______ _______ _______ _____ _____    ______ ____
ROOT
ATOM      1  C   UNL     1       2.170   9.340  17.812  0.00  0.00    +0.000 C 
ATOM      2  C   UNL     1       2.216   8.127  18.673  0.00  0.00    +0.000 A 
ATOM      3  C   UNL     1       2.634   6.828  18.419  0.00  0.00    +0.000 A 
ATOM      4  C   UNL     1       2.416   6.133  19.613  0.00  0.00    +0.000 A 
ATOM      5  N   UNL     1       1.988   6.917  20.589  0.00  0.00    +0.000 NA
ATOM      6  N   UNL     1       1.741   8.117  19.997  0.00  0.00    +0.000 N 
ENDROOT
BRANCH   6   7
ATOM      7  C   UNL     1       0.975   9.136  20.681  0.00  0.00    +0.000 A 
ATOM      8  N   UNL     1      -0.037   9.738  19.994  0.00  0.00    +0.000 NA
ATOM      9  C   UNL     1      -0.890  10.539  20.681  0.00  0.00    +0.000 A 
ATOM     10  C   UNL     1      -0.813  10.814  22.044  0.00  0.00    +0.000 A 
ATOM     11  C   UNL     1       0.287  10.256  22.704  0.00  0.00    +0.000 A 
ATOM     12  C   UNL     1       1.190   9.421  22.036  0.00  0.00    +0.000 A 
BRANCH  10  13
ATOM     13  C   UNL     1      -1.879  11.566  22.798  0.00  0.00    +0.000 C 
ATOM     14  C   UNL     1      -1.702  13.034  23.102  0.00  0.00    +0.000 C 
ATOM     15  C   UNL     1      -2.757  12.595  22.130  0.00  0.00    +0.000 C 
ENDBRANCH  10  13
BRANCH  12  16
ATOM     16  O   UNL     1       2.242   8.927  22.752  0.00  0.00    +0.000 OA
ATOM     17  H   UNL     1       2.088   9.026  23.703  0.00  0.00    +0.000 HD
ENDBRANCH  12  16
ENDBRANCH   6   7
BRANCH   3  18
ATOM     18  O   UNL     1       3.162   6.288  17.297  0.00  0.00    +0.000 OA
BRANCH  18  19
ATOM     19  C   UNL     1       4.458   5.852  17.207  0.00  0.00    +0.000 A 
ATOM     20  C   UNL     1       4.667   4.504  16.917  0.00  0.00    +0.000 A 
ATOM     21  F   UNL     1       3.625   3.683  16.718  0.00  0.00    +0.000 F 
ATOM     22  C   UNL     1       5.955   3.974  16.840  0.00  0.00    +0.000 A 
ATOM     23  C   UNL     1       7.057   4.802  17.050  0.00  0.00    +0.000 A 
ATOM     24  C   UNL     1       6.863   6.161  17.293  0.00  0.00    +0.000 A 
ATOM     25  C   UNL     1       5.569   6.681  17.342  0.00  0.00    +0.000 A 
ATOM     26  F   UNL     1       5.428   7.999  17.542  0.00  0.00    +0.000 F 
ENDBRANCH  18  19
ENDBRANCH   3  18
BRANCH   4  27
ATOM     27  O   UNL     1       2.572   4.804  19.821  0.00  0.00    +0.000 OA
BRANCH  27  28
ATOM     28  C   UNL     1       1.473   4.172  20.500  0.00  0.00    +0.000 C 
ATOM     29  C   UNL     1       0.751   3.163  19.598  0.00  0.00    +0.000 C 
ATOM     30  C   UNL     1       2.057   3.426  21.700  0.00  0.00    +0.000 C 
ENDBRANCH  27  28
ENDBRANCH   4  27
TORSDOF 7
ENDMDL
MODEL 6
REMARK VINA RESULT:      -7.6      1.342      1.554
REMARK  Name = 
REMARK  10 active torsions:
REMARK  status: ('A' for Active; 'I' for Inactive)
REMARK    1  A    between atoms: C_1  and  C_2
REMARK    2  A    between atoms: C_3  and  O_4
REMARK    3  A    between atoms: O_4  and  C_5
REMARK    4  A    between atoms: C_13  and  O_14
REMARK    5  A    between atoms: O_14  and  C_15
REMARK    6  A    between atoms: C_15  and  C_16
REMARK    7  A    between atoms: C_15  and  C_17
REMARK    8  A    between atoms: N_19  and  C_20
REMARK    9  A    between atoms: C_23  and  C_24
REMARK   10  A    between atoms: C_28  and  O_29
REMARK                            x       y       z     vdW  Elec       q    Type
REMARK                         _______ _______ _______ _____ _____    ______ ____
ROOT
ATOM      1  C   UNL     1       3.633   7.845  17.417  0.00  0.00    +0.000 C 
ATOM      2  C   UNL     1       2.961   6.893  18.341  0.00  0.00    +0.000 A 
ATOM      3  C   UNL     1       2.961   5.506  18.401  0.00  0.00    +0.000 A 
ATOM      4  C   UNL     1       2.126   5.185  19.475  0.00  0.00    +0.000 A 
ATOM      5  N   UNL     1       1.695   6.255  20.124  0.00  0.00    +0.000 NA
ATOM      6  N   UNL     1       2.096   7.313  19.368  0.00  0.00    +0.000 N 
ENDROOT
BRANCH   6   7
ATOM      7  C   UNL     1       1.549   8.633  19.592  0.00  0.00    +0.000 A 
ATOM      8  N   UNL     1       1.214   9.376  18.500  0.00  0.00    +0.000 NA
ATOM      9  C   UNL     1       0.513  10.522  18.695  0.00  0.00    +0.000 A 
ATOM     10  C   UNL     1       0.112  11.018  19.932  0.00  0.00    +0.000 A 
ATOM     11  C   UNL     1       0.546  10.283  21.040  0.00  0.00    +0.000 A 
ATOM     12  C   UNL     1       1.268   9.094  20.886  0.00  0.00    +0.000 A 
BRANCH  10  13
ATOM     13  C   UNL     1      -0.812  12.198  20.090  0.00  0.00    +0.000 C 
ATOM     14  C   UNL     1      -2.279  12.064  19.757  0.00  0.00    +0.000 C 
ATOM     15  C   UNL     1      -1.851  12.262  21.181  0.00  0.00    +0.000 C 
ENDBRANCH  10  13
BRANCH  12  16
ATOM     16  O   UNL     1       1.663   8.444  22.019  0.00  0.00    +0.000 OA
ATOM     17  H   UNL     1       2.084   9.057  22.639  0.00  0.00    +0.000 HD
ENDBRANCH  12  16
ENDBRANCH   6   7
BRANCH   3  18
ATOM     18  O   UNL     1       3.615   4.602  17.635  0.00  0.00    +0.000 OA
BRANCH  18  19
ATOM     19  C   UNL     1       4.970   4.620  17.438  0.00  0.00    +0.000 A 
ATOM     20  C   UNL     1       5.436   4.422  16.138  0.00  0.00    +0.000 A 
ATOM     21  F   UNL     1       4.573   4.242  15.127  0.00  0.00    +0.000 F 
ATOM     22  C   UNL     1       6.802   4.393  15.858  0.00  0.00    +0.000 A 
ATOM     23  C   UNL     1       7.724   4.571  16.890  0.00  0.00    +0.000 A 
ATOM     24  C   UNL     1       7.270   4.817  18.185  0.00  0.00    +0.000 A 
ATOM     25  C   UNL     1       5.900   4.867  18.445  0.00  0.00    +0.000 A 
ATOM     26  F   UNL     1       5.506   5.143  19.697  0.00  0.00    +0.000 F 
ENDBRANCH  18  19
ENDBRANCH   3  18
BRANCH   4  27
ATOM     27  O   UNL     1       1.730   3.948  19.858  0.00  0.00    +0.000 OA
BRANCH  27  28
ATOM     28  C   UNL     1       2.448   3.413  20.984  0.00  0.00    +0.000 C 
ATOM     29  C   UNL     1       1.543   2.563  21.885  0.00  0.00    +0.000 C 
ATOM     30  C   UNL     1       3.558   2.523  20.426  0.00  0.00    +0.000 C 
ENDBRANCH  27  28
ENDBRANCH   4  27
TORSDOF 7
ENDMDL
MODEL 7
REMARK VINA RESULT:      -7.6      5.232      7.390
REMARK  Name = 
REMARK  10 active torsions:
REMARK  status: ('A' for Active; 'I' for Inactive)
REMARK    1  A    between atoms: C_1  and  C_2
REMARK    2  A    between atoms: C_3  and  O_4
REMARK    3  A    between atoms: O_4  and  C_5
REMARK    4  A    between atoms: C_13  and  O_14
REMARK    5  A    between atoms: O_14  and  C_15
REMARK    6  A    between atoms: C_15  and  C_16
REMARK    7  A    between atoms: C_15  and  C_17
REMARK    8  A    between atoms: N_19  and  C_20
REMARK    9  A    between atoms: C_23  and  C_24
REMARK   10  A    between atoms: C_28  and  O_29
REMARK                            x       y       z     vdW  Elec       q    Type
REMARK                         _______ _______ _______ _____ _____    ______ ____
ROOT
ATOM      1  C   UNL     1       4.793   5.605  19.229  0.00  0.00    +0.000 C 
ATOM      2  C   UNL     1       5.140   5.216  17.837  0.00  0.00    +0.000 A 
ATOM      3  C   UNL     1       4.700   4.177  17.029  0.00  0.00    +0.000 A 
ATOM      4  C   UNL     1       5.406   4.319  15.831  0.00  0.00    +0.000 A 
ATOM      5  N   UNL     1       6.165   5.403  15.811  0.00  0.00    +0.000 NA
ATOM      6  N   UNL     1       6.110   5.896  17.077  0.00  0.00    +0.000 N 
ENDROOT
BRANCH   6   7
ATOM      7  C   UNL     1       7.052   6.900  17.523  0.00  0.00    +0.000 A 
ATOM      8  N   UNL     1       6.980   8.136  16.953  0.00  0.00    +0.000 NA
ATOM      9  C   UNL     1       7.711   9.139  17.503  0.00  0.00    +0.000 A 
ATOM     10  C   UNL     1       8.551   9.010  18.606  0.00  0.00    +0.000 A 
ATOM     11  C   UNL     1       8.674   7.712  19.114  0.00  0.00    +0.000 A 
ATOM     12  C   UNL     1       7.937   6.649  18.580  0.00  0.00    +0.000 A 
BRANCH  10  13
ATOM     13  C   UNL     1       9.206  10.183  19.288  0.00  0.00    +0.000 C 
ATOM     14  C   UNL     1      10.419  10.839  18.673  0.00  0.00    +0.000 C 
ATOM     15  C   UNL     1       9.117  11.583  18.735  0.00  0.00    +0.000 C 
ENDBRANCH  10  13
BRANCH  12  16
ATOM     16  O   UNL     1       8.125   5.412  19.127  0.00  0.00    +0.000 OA
ATOM     17  H   UNL     1       8.451   4.789  18.463  0.00  0.00    +0.000 HD
ENDBRANCH  12  16
ENDBRANCH   6   7
BRANCH   3  18
ATOM     18  O   UNL     1       3.781   3.214  17.274  0.00  0.00    +0.000 OA
BRANCH  18  19
ATOM     19  C   UNL     1       3.031   3.161  18.419  0.00  0.00    +0.000 A 
ATOM     20  C   UNL     1       1.786   3.790  18.405  0.00  0.00    +0.000 A 
ATOM     21  F   UNL     1       1.348   4.404  17.295  0.00  0.00    +0.000 F 
ATOM     22  C   UNL     1       0.975   3.810  19.540  0.00  0.00    +0.000 A 
ATOM     23  C   UNL     1       1.407   3.186  20.710  0.00  0.00    +0.000 A 
ATOM     24  C   UNL     1       2.627   2.512  20.722  0.00  0.00    +0.000 A 
ATOM     25  C   UNL     1       3.417   2.481  19.572  0.00  0.00    +0.000 A 
ATOM     26  F   UNL     1       4.566   1.791  19.616  0.00  0.00    +0.000 F 
ENDBRANCH  18  19
ENDBRANCH   3  18
BRANCH   4  27
ATOM     27  O   UNL     1       5.393   3.473  14.773  0.00  0.00    +0.000 OA
BRANCH  27  28
ATOM     28  C   UNL     1       5.604   4.107  13.499  0.00  0.00    +0.000 C 
ATOM     29  C   UNL     1       7.060   3.982  13.035  0.00  0.00    +0.000 C 
ATOM     30  C   UNL     1       4.706   3.392  12.489  0.00  0.00    +0.000 C 
ENDBRANCH  27  28
ENDBRANCH   4  27
TORSDOF 7
ENDMDL
MODEL 8
REMARK VINA RESULT:      -7.5      1.042      1.053
REMARK  Name = 
REMARK  10 active torsions:
REMARK  status: ('A' for Active; 'I' for Inactive)
REMARK    1  A    between atoms: C_1  and  C_2
REMARK    2  A    between atoms: C_3  and  O_4
REMARK    3  A    between atoms: O_4  and  C_5
REMARK    4  A    between atoms: C_13  and  O_14
REMARK    5  A    between atoms: O_14  and  C_15
REMARK    6  A    between atoms: C_15  and  C_16
REMARK    7  A    between atoms: C_15  and  C_17
REMARK    8  A    between atoms: N_19  and  C_20
REMARK    9  A    between atoms: C_23  and  C_24
REMARK   10  A    between atoms: C_28  and  O_29
REMARK                            x       y       z     vdW  Elec       q    Type
REMARK                         _______ _______ _______ _____ _____    ______ ____
ROOT
ATOM      1  C   UNL     1       2.905   8.085  17.397  0.00  0.00    +0.000 C 
ATOM      2  C   UNL     1       2.705   7.129  18.519  0.00  0.00    +0.000 A 
ATOM      3  C   UNL     1       2.994   5.777  18.645  0.00  0.00    +0.000 A 
ATOM      4  C   UNL     1       2.555   5.427  19.926  0.00  0.00    +0.000 A 
ATOM      5  N   UNL     1       2.111   6.466  20.616  0.00  0.00    +0.000 NA
ATOM      6  N   UNL     1       2.079   7.494  19.725  0.00  0.00    +0.000 N 
ENDROOT
BRANCH   6   7
ATOM      7  C   UNL     1       1.363   8.714  20.028  0.00  0.00    +0.000 A 
ATOM      8  N   UNL     1       0.720   9.343  19.005  0.00  0.00    +0.000 NA
ATOM      9  C   UNL     1      -0.121  10.365  19.309  0.00  0.00    +0.000 A 
ATOM     10  C   UNL     1      -0.377  10.840  20.592  0.00  0.00    +0.000 A 
ATOM     11  C   UNL     1       0.365  10.236  21.612  0.00  0.00    +0.000 A 
ATOM     12  C   UNL     1       1.240   9.177  21.345  0.00  0.00    +0.000 A 
BRANCH  10  13
ATOM     13  C   UNL     1      -1.447  11.857  20.899  0.00  0.00    +0.000 C 
ATOM     14  C   UNL     1      -1.093  13.140  21.611  0.00  0.00    +0.000 C 
ATOM     15  C   UNL     1      -1.528  13.178  20.176  0.00  0.00    +0.000 C 
ENDBRANCH  10  13
BRANCH  12  16
ATOM     16  O   UNL     1       1.935   8.652  22.396  0.00  0.00    +0.000 OA
ATOM     17  H   UNL     1       1.380   8.043  22.905  0.00  0.00    +0.000 HD
ENDBRANCH  12  16
ENDBRANCH   6   7
BRANCH   3  18
ATOM     18  O   UNL     1       3.584   4.928  17.773  0.00  0.00    +0.000 OA
BRANCH  18  19
ATOM     19  C   UNL     1       4.939   4.865  17.580  0.00  0.00    +0.000 A 
ATOM     20  C   UNL     1       5.394   4.493  16.315  0.00  0.00    +0.000 A 
ATOM     21  F   UNL     1       4.523   4.228  15.331  0.00  0.00    +0.000 F 
ATOM     22  C   UNL     1       6.758   4.374  16.046  0.00  0.00    +0.000 A 
ATOM     23  C   UNL     1       7.687   4.637  17.053  0.00  0.00    +0.000 A 
ATOM     24  C   UNL     1       7.245   5.056  18.307  0.00  0.00    +0.000 A 
ATOM     25  C   UNL     1       5.879   5.194  18.554  0.00  0.00    +0.000 A 
ATOM     26  F   UNL     1       5.499   5.635  19.761  0.00  0.00    +0.000 F 
ENDBRANCH  18  19
ENDBRANCH   3  18
BRANCH   4  27
ATOM     27  O   UNL     1       2.528   4.186  20.466  0.00  0.00    +0.000 OA
BRANCH  27  28
ATOM     28  C   UNL     1       1.209   3.633  20.629  0.00  0.00    +0.000 C 
ATOM     29  C   UNL     1       0.723   2.933  19.354  0.00  0.00    +0.000 C 
ATOM     30  C   UNL     1       1.292   2.601  21.754  0.00  0.00    +0.000 C 
ENDBRANCH  27  28
ENDBRANCH   4  27
TORSDOF 7
ENDMDL
MODEL 9
REMARK VINA RESULT:      -7.5      1.409      2.082
REMARK  Name = 
REMARK  10 active torsions:
REMARK  status: ('A' for Active; 'I' for Inactive)
REMARK    1  A    between atoms: C_1  and  C_2
REMARK    2  A    between atoms: C_3  and  O_4
REMARK    3  A    between atoms: O_4  and  C_5
REMARK    4  A    between atoms: C_13  and  O_14
REMARK    5  A    between atoms: O_14  and  C_15
REMARK    6  A    between atoms: C_15  and  C_16
REMARK    7  A    between atoms: C_15  and  C_17
REMARK    8  A    between atoms: N_19  and  C_20
REMARK    9  A    between atoms: C_23  and  C_24
REMARK   10  A    between atoms: C_28  and  O_29
REMARK                            x       y       z     vdW  Elec       q    Type
REMARK                         _______ _______ _______ _____ _____    ______ ____
ROOT
ATOM      1  C   UNL     1       3.728   7.632  17.360  0.00  0.00    +0.000 C 
ATOM      2  C   UNL     1       3.038   6.704  18.295  0.00  0.00    +0.000 A 
ATOM      3  C   UNL     1       3.015   5.319  18.374  0.00  0.00    +0.000 A 
ATOM      4  C   UNL     1       2.170   5.028  19.451  0.00  0.00    +0.000 A 
ATOM      5  N   UNL     1       1.755   6.114  20.083  0.00  0.00    +0.000 NA
ATOM      6  N   UNL     1       2.177   7.154  19.313  0.00  0.00    +0.000 N 
ENDROOT
BRANCH   6   7
ATOM      7  C   UNL     1       1.652   8.486  19.517  0.00  0.00    +0.000 A 
ATOM      8  N   UNL     1       1.334   9.220  18.413  0.00  0.00    +0.000 NA
ATOM      9  C   UNL     1       0.652  10.380  18.589  0.00  0.00    +0.000 A 
ATOM     10  C   UNL     1       0.254  10.900  19.818  0.00  0.00    +0.000 A 
ATOM     11  C   UNL     1       0.671  10.172  20.937  0.00  0.00    +0.000 A 
ATOM     12  C   UNL     1       1.373   8.969  20.803  0.00  0.00    +0.000 A 
BRANCH  10  13
ATOM     13  C   UNL     1      -0.650  12.097  19.955  0.00  0.00    +0.000 C 
ATOM     14  C   UNL     1      -2.112  11.991  19.591  0.00  0.00    +0.000 C 
ATOM     15  C   UNL     1      -1.711  12.182  21.024  0.00  0.00    +0.000 C 
ENDBRANCH  10  13
BRANCH  12  16
ATOM     16  O   UNL     1       1.752   8.328  21.947  0.00  0.00    +0.000 OA
ATOM     17  H   UNL     1       1.238   8.642  22.704  0.00  0.00    +0.000 HD
ENDBRANCH  12  16
ENDBRANCH   6   7
BRANCH   3  18
ATOM     18  O   UNL     1       3.655   4.393  17.623  0.00  0.00    +0.000 OA
BRANCH  18  19
ATOM     19  C   UNL     1       4.979   4.482  17.284  0.00  0.00    +0.000 A 
ATOM     20  C   UNL     1       5.903   4.616  18.320  0.00  0.00    +0.000 A 
ATOM     21  F   UNL     1       5.493   4.637  19.598  0.00  0.00    +0.000 F 
ATOM     22  C   UNL     1       7.267   4.745  18.058  0.00  0.00    +0.000 A 
ATOM     23  C   UNL     1       7.722   4.733  16.740  0.00  0.00    +0.000 A 
ATOM     24  C   UNL     1       6.813   4.551  15.698  0.00  0.00    +0.000 A 
ATOM     25  C   UNL     1       5.455   4.399  15.978  0.00  0.00    +0.000 A 
ATOM     26  F   UNL     1       4.620   4.190  14.949  0.00  0.00    +0.000 F 
ENDBRANCH  18  19
ENDBRANCH   3  18
BRANCH   4  27
ATOM     27  O   UNL     1       1.753   3.803  19.850  0.00  0.00    +0.000 OA
BRANCH  27  28
ATOM     28  C   UNL     1       2.423   3.293  21.017  0.00  0.00    +0.000 C 
ATOM     29  C   UNL     1       1.473   2.491  21.914  0.00  0.00    +0.000 C 
ATOM     30  C   UNL     1       3.534   2.366  20.526  0.00  0.00    +0.000 C 
ENDBRANCH  27  28
ENDBRANCH   4  27
TORSDOF 7
ENDMDL
