MODEL 1
REMARK VINA RESULT:      -7.9      0.000      0.000
REMARK  Name = 
REMARK  11 active torsions:
REMARK  status: ('A' for Active; 'I' for Inactive)
REMARK    1  A    between atoms: C_1  and  C_2
REMARK    2  A    between atoms: C_2  and  C_3
REMARK    3  A    between atoms: C_2  and  C_4
REMARK    4  A    between atoms: C_4  and  C_5
REMARK    5  A    between atoms: C_7  and  C_8
REMARK    6  A    between atoms: C_8  and  N_9
REMARK    7  A    between atoms: N_9  and  C_10
REMARK    8  A    between atoms: N_9  and  C_11
REMARK    9  A    between atoms: C_11  and  C_12
REMARK   10  A    between atoms: C_12  and  O_13
REMARK   11  A    between atoms: O_13  and  C_14
REMARK                            x       y       z     vdW  Elec       q    Type
REMARK                         _______ _______ _______ _____ _____    ______ ____
ROOT
ATOM      1  N   UNL     1       6.343   5.658  17.771  0.00  0.00    +0.000 NA
ATOM      2  C   UNL     1       7.386   6.665  17.958  0.00  0.00    +0.000 C 
ENDROOT
BRANCH   1   3
ATOM      3  C   UNL     1       6.853   4.473  17.041  0.00  0.00    +0.000 C 
BRANCH   3   6
ATOM      4  C   UNL     1       6.719   4.282  13.505  0.00  0.00    +0.000 A 
ATOM      5  N   UNL     1       6.344   3.781  14.661  0.00  0.00    +0.000 NA
ATOM      6  C   UNL     1       6.948   4.639  15.555  0.00  0.00    +0.000 A 
ATOM      7  N   UNL     1       7.666   5.621  14.990  0.00  0.00    +0.000 NA
ATOM      8  O   UNL     1       7.509   5.388  13.626  0.00  0.00    +0.000 OA
BRANCH   4   9
ATOM      9  C   UNL     1       6.474   3.798  12.123  0.00  0.00    +0.000 C 
BRANCH   9  11
ATOM     10  C   UNL     1       4.162   3.204  11.232  0.00  0.00    +0.000 C 
ATOM     11  C   UNL     1       5.380   2.724  12.025  0.00  0.00    +0.000 C 
ATOM     12  C   UNL     1       5.958   1.467  11.363  0.00  0.00    +0.000 C 
ENDBRANCH   9  11
ENDBRANCH   4   9
ENDBRANCH   3   6
ENDBRANCH   1   3
BRANCH   1  13
ATOM     13  C   UNL     1       5.122   6.249  17.188  0.00  0.00    +0.000 C 
BRANCH  13  14
ATOM     14  C   UNL     1       4.006   6.441  18.226  0.00  0.00    +0.000 C 
BRANCH  14  15
ATOM     15  O   UNL     1       4.167   5.540  19.322  0.00  0.00    +0.000 OA
BRANCH  15  16
ATOM     16  C   UNL     1       3.181   4.589  19.441  0.00  0.00    +0.000 A 
ATOM     17  C   UNL     1       2.045   5.012  20.139  0.00  0.00    +0.000 A 
ATOM     18  C   UNL     1       0.967   4.145  20.339  0.00  0.00    +0.000 A 
ATOM     19  C   UNL     1       1.010   2.843  19.843  0.00  0.00    +0.000 A 
ATOM     20  C   UNL     1       2.136   2.411  19.144  0.00  0.00    +0.000 A 
ATOM     21  C   UNL     1       3.208   3.279  18.950  0.00  0.00    +0.000 A 
ATOM     22  F   UNL     1       4.258   2.795  18.270  0.00  0.00    +0.000 F 
ENDBRANCH  15  16
ENDBRANCH  14  15
ENDBRANCH  13  14
ENDBRANCH   1  13
TORSDOF 8
ENDMDL
MODEL 2
REMARK VINA RESULT:      -7.6      1.257      1.368
REMARK  Name = 
REMARK  11 active torsions:
REMARK  status: ('A' for Active; 'I' for Inactive)
REMARK    1  A    between atoms: C_1  and  C_2
REMARK    2  A    between atoms: C_2  and  C_3
REMARK    3  A    between atoms: C_2  and  C_4
REMARK    4  A    between atoms: C_4  and  C_5
REMARK    5  A    between atoms: C_7  and  C_8
REMARK    6  A    between atoms: C_8  and  N_9
REMARK    7  A    between atoms: N_9  and  C_10
REMARK    8  A    between atoms: N_9  and  C_11
REMARK    9  A    between atoms: C_11  and  C_12
REMARK   10  A    between atoms: C_12  and  O_13
REMARK   11  A    between atoms: O_13  and  C_14
REMARK                            x       y       z     vdW  Elec       q    Type
REMARK                         _______ _______ _______ _____ _____    ______ ____
ROOT
ATOM      1  N   UNL     1       6.195   4.420  17.546  0.00  0.00    +0.000 NA
ATOM      2  C   UNL     1       7.445   4.694  18.251  0.00  0.00    +0.000 C 
ENDROOT
BRANCH   1   3
ATOM      3  C   UNL     1       5.911   5.450  16.517  0.00  0.00    +0.000 C 
BRANCH   3   6
ATOM      4  C   UNL     1       6.636   4.282  13.251  0.00  0.00    +0.000 A 
ATOM      5  N   UNL     1       5.819   4.269  14.281  0.00  0.00    +0.000 NA
ATOM      6  C   UNL     1       6.441   5.140  15.150  0.00  0.00    +0.000 A 
ATOM      7  N   UNL     1       7.587   5.666  14.691  0.00  0.00    +0.000 NA
ATOM      8  O   UNL     1       7.714   5.100  13.425  0.00  0.00    +0.000 OA
BRANCH   4   9
ATOM      9  C   UNL     1       6.598   3.507  11.986  0.00  0.00    +0.000 C 
BRANCH   9  11
ATOM     10  C   UNL     1       4.220   3.113  11.160  0.00  0.00    +0.000 C 
ATOM     11  C   UNL     1       5.424   2.520  11.895  0.00  0.00    +0.000 C 
ATOM     12  C   UNL     1       5.884   1.245  11.178  0.00  0.00    +0.000 C 
ENDBRANCH   9  11
ENDBRANCH   4   9
ENDBRANCH   3   6
ENDBRANCH   1   3
BRANCH   1  13
ATOM     13  C   UNL     1       5.084   4.184  18.488  0.00  0.00    +0.000 C 
BRANCH  13  14
ATOM     14  C   UNL     1       4.778   5.412  19.359  0.00  0.00    +0.000 C 
BRANCH  14  15
ATOM     15  O   UNL     1       3.391   5.751  19.295  0.00  0.00    +0.000 OA
BRANCH  15  16
ATOM     16  C   UNL     1       2.531   4.742  19.656  0.00  0.00    +0.000 A 
ATOM     17  C   UNL     1       2.624   4.348  20.996  0.00  0.00    +0.000 A 
ATOM     18  C   UNL     1       1.811   3.328  21.497  0.00  0.00    +0.000 A 
ATOM     19  C   UNL     1       0.892   2.687  20.666  0.00  0.00    +0.000 A 
ATOM     20  C   UNL     1       0.789   3.072  19.331  0.00  0.00    +0.000 A 
ATOM     21  C   UNL     1       1.604   4.089  18.837  0.00  0.00    +0.000 A 
ATOM     22  F   UNL     1       1.451   4.406  17.542  0.00  0.00    +0.000 F 
ENDBRANCH  15  16
ENDBRANCH  14  15
ENDBRANCH  13  14
ENDBRANCH   1  13
TORSDOF 8
ENDMDL
MODEL 3
REMARK VINA RESULT:      -7.5      1.508      1.845
REMARK  Name = 
REMARK  11 active torsions:
REMARK  status: ('A' for Active; 'I' for Inactive)
REMARK    1  A    between atoms: C_1  and  C_2
REMARK    2  A    between atoms: C_2  and  C_3
REMARK    3  A    between atoms: C_2  and  C_4
REMARK    4  A    between atoms: C_4  and  C_5
REMARK    5  A    between atoms: C_7  and  C_8
REMARK    6  A    between atoms: C_8  and  N_9
REMARK    7  A    between atoms: N_9  and  C_10
REMARK    8  A    between atoms: N_9  and  C_11
REMARK    9  A    between atoms: C_11  and  C_12
REMARK   10  A    between atoms: C_12  and  O_13
REMARK   11  A    between atoms: O_13  and  C_14
REMARK                            x       y       z     vdW  Elec       q    Type
REMARK                         _______ _______ _______ _____ _____    ______ ____
ROOT
ATOM      1  N   UNL     1       5.343   5.996  17.823  0.00  0.00    +0.000 NA
ATOM      2  C   UNL     1       4.847   6.960  16.843  0.00  0.00    +0.000 C 
ENDROOT
BRANCH   1   3
ATOM      3  C   UNL     1       5.607   4.675  17.205  0.00  0.00    +0.000 C 
BRANCH   3   6
ATOM      4  C   UNL     1       6.564   4.348  13.809  0.00  0.00    +0.000 A 
ATOM      5  N   UNL     1       5.710   4.038  14.758  0.00  0.00    +0.000 NA
ATOM      6  C   UNL     1       6.218   4.729  15.837  0.00  0.00    +0.000 A 
ATOM      7  N   UNL     1       7.332   5.429  15.579  0.00  0.00    +0.000 NA
ATOM      8  O   UNL     1       7.560   5.181  14.228  0.00  0.00    +0.000 OA
BRANCH   4   9
ATOM      9  C   UNL     1       6.645   3.884  12.401  0.00  0.00    +0.000 C 
BRANCH   9  11
ATOM     10  C   UNL     1       4.387   3.252  11.404  0.00  0.00    +0.000 C 
ATOM     11  C   UNL     1       5.671   2.745  12.063  0.00  0.00    +0.000 C 
ATOM     12  C   UNL     1       6.363   1.742  11.131  0.00  0.00    +0.000 C 
ENDBRANCH   9  11
ENDBRANCH   4   9
ENDBRANCH   3   6
ENDBRANCH   1   3
BRANCH   1  13
ATOM     13  C   UNL     1       4.473   5.943  19.015  0.00  0.00    +0.000 C 
BRANCH  13  14
ATOM     14  C   UNL     1       3.113   6.619  18.783  0.00  0.00    +0.000 C 
BRANCH  14  15
ATOM     15  O   UNL     1       2.256   5.787  18.000  0.00  0.00    +0.000 OA
BRANCH  15  16
ATOM     16  C   UNL     1       1.946   4.574  18.569  0.00  0.00    +0.000 A 
ATOM     17  C   UNL     1       2.234   3.464  17.768  0.00  0.00    +0.000 A 
ATOM     18  C   UNL     1       1.964   2.169  18.221  0.00  0.00    +0.000 A 
ATOM     19  C   UNL     1       1.404   1.967  19.482  0.00  0.00    +0.000 A 
ATOM     20  C   UNL     1       1.115   3.066  20.289  0.00  0.00    +0.000 A 
ATOM     21  C   UNL     1       1.385   4.353  19.832  0.00  0.00    +0.000 A 
ATOM     22  F   UNL     1       1.079   5.363  20.661  0.00  0.00    +0.000 F 
ENDBRANCH  15  16
ENDBRANCH  14  15
ENDBRANCH  13  14
ENDBRANCH   1  13
TORSDOF 8
ENDMDL
MODEL 4
REMARK VINA RESULT:      -7.3      1.237      1.503
REMARK  Name = 
REMARK  11 active torsions:
REMARK  status: ('A' for Active; 'I' for Inactive)
REMARK    1  A    between atoms: C_1  and  C_2
REMARK    2  A    between atoms: C_2  and  C_3
REMARK    3  A    between atoms: C_2  and  C_4
REMARK    4  A    between atoms: C_4  and  C_5
REMARK    5  A    between atoms: C_7  and  C_8
REMARK    6  A    between atoms: C_8  and  N_9
REMARK    7  A    between atoms: N_9  and  C_10
REMARK    8  A    between atoms: N_9  and  C_11
REMARK    9  A    between atoms: C_11  and  C_12
REMARK   10  A    between atoms: C_12  and  O_13
REMARK   11  A    between atoms: O_13  and  C_14
REMARK                            x       y       z     vdW  Elec       q    Type
REMARK                         _______ _______ _______ _____ _____    ______ ____
ROOT
ATOM      1  N   UNL     1       7.213   5.504  18.475  0.00  0.00    +0.000 NA
ATOM      2  C   UNL     1       7.930   6.774  18.388  0.00  0.00    +0.000 C 
ENDROOT
BRANCH   1   3
ATOM      3  C   UNL     1       7.720   4.522  17.486  0.00  0.00    +0.000 C 
BRANCH   3   6
ATOM      4  C   UNL     1       5.805   4.157  14.527  0.00  0.00    +0.000 A 
ATOM      5  N   UNL     1       6.017   3.779  15.768  0.00  0.00    +0.000 NA
ATOM      6  C   UNL     1       7.069   4.590  16.137  0.00  0.00    +0.000 A 
ATOM      7  N   UNL     1       7.495   5.426  15.179  0.00  0.00    +0.000 NA
ATOM      8  O   UNL     1       6.651   5.142  14.109  0.00  0.00    +0.000 OA
BRANCH   4   9
ATOM      9  C   UNL     1       4.852   3.637  13.514  0.00  0.00    +0.000 C 
BRANCH   9  11
ATOM     10  C   UNL     1       6.564   2.618  11.926  0.00  0.00    +0.000 C 
ATOM     11  C   UNL     1       5.413   3.615  12.084  0.00  0.00    +0.000 C 
ATOM     12  C   UNL     1       4.291   3.260  11.102  0.00  0.00    +0.000 C 
ENDBRANCH   9  11
ENDBRANCH   4   9
ENDBRANCH   3   6
ENDBRANCH   1   3
BRANCH   1  13
ATOM     13  C   UNL     1       5.751   5.705  18.432  0.00  0.00    +0.000 C 
BRANCH  13  14
ATOM     14  C   UNL     1       5.024   4.991  19.582  0.00  0.00    +0.000 C 
BRANCH  14  15
ATOM     15  O   UNL     1       4.659   3.661  19.207  0.00  0.00    +0.000 OA
BRANCH  15  16
ATOM     16  C   UNL     1       3.315   3.384  19.289  0.00  0.00    +0.000 A 
ATOM     17  C   UNL     1       2.797   3.391  20.588  0.00  0.00    +0.000 A 
ATOM     18  C   UNL     1       1.445   3.120  20.819  0.00  0.00    +0.000 A 
ATOM     19  C   UNL     1       0.592   2.839  19.752  0.00  0.00    +0.000 A 
ATOM     20  C   UNL     1       1.097   2.832  18.453  0.00  0.00    +0.000 A 
ATOM     21  C   UNL     1       2.445   3.101  18.230  0.00  0.00    +0.000 A 
ATOM     22  F   UNL     1       2.861   3.075  16.955  0.00  0.00    +0.000 F 
ENDBRANCH  15  16
ENDBRANCH  14  15
ENDBRANCH  13  14
ENDBRANCH   1  13
TORSDOF 8
ENDMDL
MODEL 5
REMARK VINA RESULT:      -7.3      2.749      5.657
REMARK  Name = 
REMARK  11 active torsions:
REMARK  status: ('A' for Active; 'I' for Inactive)
REMARK    1  A    between atoms: C_1  and  C_2
REMARK    2  A    between atoms: C_2  and  C_3
REMARK    3  A    between atoms: C_2  and  C_4
REMARK    4  A    between atoms: C_4  and  C_5
REMARK    5  A    between atoms: C_7  and  C_8
REMARK    6  A    between atoms: C_8  and  N_9
REMARK    7  A    between atoms: N_9  and  C_10
REMARK    8  A    between atoms: N_9  and  C_11
REMARK    9  A    between atoms: C_11  and  C_12
REMARK   10  A    between atoms: C_12  and  O_13
REMARK   11  A    between atoms: O_13  and  C_14
REMARK                            x       y       z     vdW  Elec       q    Type
REMARK                         _______ _______ _______ _____ _____    ______ ____
ROOT
ATOM      1  N   UNL     1       5.578   5.328  16.500  0.00  0.00    +0.000 NA
ATOM      2  C   UNL     1       5.399   4.692  15.196  0.00  0.00    +0.000 C 
ENDROOT
BRANCH   1   3
ATOM      3  C   UNL     1       6.986   5.245  16.958  0.00  0.00    +0.000 C 
BRANCH   3   6
ATOM      4  C   UNL     1       8.015   8.501  17.906  0.00  0.00    +0.000 A 
ATOM      5  N   UNL     1       7.389   7.743  17.034  0.00  0.00    +0.000 NA
ATOM      6  C   UNL     1       7.516   6.492  17.600  0.00  0.00    +0.000 A 
ATOM      7  N   UNL     1       8.188   6.468  18.760  0.00  0.00    +0.000 NA
ATOM      8  O   UNL     1       8.515   7.806  18.968  0.00  0.00    +0.000 OA
BRANCH   4   9
ATOM      9  C   UNL     1       8.311   9.956  17.875  0.00  0.00    +0.000 C 
BRANCH   9  11
ATOM     10  C   UNL     1      10.404  11.408  17.824  0.00  0.00    +0.000 C 
ATOM     11  C   UNL     1       9.617  10.340  18.587  0.00  0.00    +0.000 C 
ATOM     12  C   UNL     1       9.297  10.851  19.997  0.00  0.00    +0.000 C 
ENDBRANCH   9  11
ENDBRANCH   4   9
ENDBRANCH   3   6
ENDBRANCH   1   3
BRANCH   1  13
ATOM     13  C   UNL     1       4.593   4.833  17.482  0.00  0.00    +0.000 C 
BRANCH  13  14
ATOM     14  C   UNL     1       3.708   3.712  16.916  0.00  0.00    +0.000 C 
BRANCH  14  15
ATOM     15  O   UNL     1       3.728   2.566  17.769  0.00  0.00    +0.000 OA
BRANCH  15  16
ATOM     16  C   UNL     1       3.001   2.693  18.929  0.00  0.00    +0.000 A 
ATOM     17  C   UNL     1       1.655   3.024  18.739  0.00  0.00    +0.000 A 
ATOM     18  C   UNL     1       0.800   3.190  19.833  0.00  0.00    +0.000 A 
ATOM     19  C   UNL     1       1.280   3.028  21.132  0.00  0.00    +0.000 A 
ATOM     20  C   UNL     1       2.619   2.696  21.332  0.00  0.00    +0.000 A 
ATOM     21  C   UNL     1       3.466   2.534  20.239  0.00  0.00    +0.000 A 
ATOM     22  F   UNL     1       4.742   2.217  20.507  0.00  0.00    +0.000 F 
ENDBRANCH  15  16
ENDBRANCH  14  15
ENDBRANCH  13  14
ENDBRANCH   1  13
TORSDOF 8
ENDMDL
MODEL 6
REMARK VINA RESULT:      -7.3      3.703      5.627
REMARK  Name = 
REMARK  11 active torsions:
REMARK  status: ('A' for Active; 'I' for Inactive)
REMARK    1  A    between atoms: C_1  and  C_2
REMARK    2  A    between atoms: C_2  and  C_3
REMARK    3  A    between atoms: C_2  and  C_4
REMARK    4  A    between atoms: C_4  and  C_5
REMARK    5  A    between atoms: C_7  and  C_8
REMARK    6  A    between atoms: C_8  and  N_9
REMARK    7  A    between atoms: N_9  and  C_10
REMARK    8  A    between atoms: N_9  and  C_11
REMARK    9  A    between atoms: C_11  and  C_12
REMARK   10  A    between atoms: C_12  and  O_13
REMARK   11  A    between atoms: O_13  and  C_14
REMARK                            x       y       z     vdW  Elec       q    Type
REMARK                         _______ _______ _______ _____ _____    ______ ____
ROOT
ATOM      1  N   UNL     1       1.562   2.561  19.831  0.00  0.00    +0.000 NA
ATOM      2  C   UNL     1       1.793   2.458  21.271  0.00  0.00    +0.000 C 
ENDROOT
BRANCH   1   3
ATOM      3  C   UNL     1       2.666   1.945  19.056  0.00  0.00    +0.000 C 
BRANCH   3   6
ATOM      4  C   UNL     1       5.347   4.039  18.064  0.00  0.00    +0.000 A 
ATOM      5  N   UNL     1       4.208   3.467  17.747  0.00  0.00    +0.000 NA
ATOM      6  C   UNL     1       3.889   2.800  18.911  0.00  0.00    +0.000 A 
ATOM      7  N   UNL     1       4.782   2.943  19.901  0.00  0.00    +0.000 NA
ATOM      8  O   UNL     1       5.750   3.773  19.340  0.00  0.00    +0.000 OA
BRANCH   4   9
ATOM      9  C   UNL     1       6.273   4.857  17.241  0.00  0.00    +0.000 C 
BRANCH   9  11
ATOM     10  C   UNL     1       7.141   7.249  17.366  0.00  0.00    +0.000 C 
ATOM     11  C   UNL     1       5.914   6.350  17.197  0.00  0.00    +0.000 C 
ATOM     12  C   UNL     1       5.225   6.670  15.865  0.00  0.00    +0.000 C 
ENDBRANCH   9  11
ENDBRANCH   4   9
ENDBRANCH   3   6
ENDBRANCH   1   3
BRANCH   1  13
ATOM     13  C   UNL     1       1.243   3.946  19.434  0.00  0.00    +0.000 C 
BRANCH  13  14
ATOM     14  C   UNL     1       1.508   4.959  20.558  0.00  0.00    +0.000 C 
BRANCH  14  15
ATOM     15  O   UNL     1       2.594   5.824  20.220  0.00  0.00    +0.000 OA
BRANCH  15  16
ATOM     16  C   UNL     1       2.223   7.043  19.702  0.00  0.00    +0.000 A 
ATOM     17  C   UNL     1       2.551   7.228  18.355  0.00  0.00    +0.000 A 
ATOM     18  C   UNL     1       2.239   8.423  17.702  0.00  0.00    +0.000 A 
ATOM     19  C   UNL     1       1.592   9.451  18.387  0.00  0.00    +0.000 A 
ATOM     20  C   UNL     1       1.259   9.277  19.730  0.00  0.00    +0.000 A 
ATOM     21  C   UNL     1       1.575   8.084  20.375  0.00  0.00    +0.000 A 
ATOM     22  F   UNL     1       1.225   7.988  21.667  0.00  0.00    +0.000 F 
ENDBRANCH  15  16
ENDBRANCH  14  15
ENDBRANCH  13  14
ENDBRANCH   1  13
TORSDOF 8
ENDMDL
MODEL 7
REMARK VINA RESULT:      -7.3      1.541      1.971
REMARK  Name = 
REMARK  11 active torsions:
REMARK  status: ('A' for Active; 'I' for Inactive)
REMARK    1  A    between atoms: C_1  and  C_2
REMARK    2  A    between atoms: C_2  and  C_3
REMARK    3  A    between atoms: C_2  and  C_4
REMARK    4  A    between atoms: C_4  and  C_5
REMARK    5  A    between atoms: C_7  and  C_8
REMARK    6  A    between atoms: C_8  and  N_9
REMARK    7  A    between atoms: N_9  and  C_10
REMARK    8  A    between atoms: N_9  and  C_11
REMARK    9  A    between atoms: C_11  and  C_12
REMARK   10  A    between atoms: C_12  and  O_13
REMARK   11  A    between atoms: O_13  and  C_14
REMARK                            x       y       z     vdW  Elec       q    Type
REMARK                         _______ _______ _______ _____ _____    ______ ____
ROOT
ATOM      1  N   UNL     1       5.443   4.439  17.155  0.00  0.00    +0.000 NA
ATOM      2  C   UNL     1       5.655   4.137  18.569  0.00  0.00    +0.000 C 
ENDROOT
BRANCH   1   3
ATOM      3  C   UNL     1       6.509   5.320  16.620  0.00  0.00    +0.000 C 
BRANCH   3   6
ATOM      4  C   UNL     1       6.824   4.312  13.237  0.00  0.00    +0.000 A 
ATOM      5  N   UNL     1       6.208   4.164  14.389  0.00  0.00    +0.000 NA
ATOM      6  C   UNL     1       6.835   5.109  15.172  0.00  0.00    +0.000 A 
ATOM      7  N   UNL     1       7.794   5.808  14.547  0.00  0.00    +0.000 NA
ATOM      8  O   UNL     1       7.783   5.282  13.257  0.00  0.00    +0.000 OA
BRANCH   4   9
ATOM      9  C   UNL     1       6.682   3.554  11.968  0.00  0.00    +0.000 C 
BRANCH   9  11
ATOM     10  C   UNL     1       4.260   3.177  11.275  0.00  0.00    +0.000 C 
ATOM     11  C   UNL     1       5.495   2.580  11.954  0.00  0.00    +0.000 C 
ATOM     12  C   UNL     1       5.902   1.290  11.232  0.00  0.00    +0.000 C 
ENDBRANCH   9  11
ENDBRANCH   4   9
ENDBRANCH   3   6
ENDBRANCH   1   3
BRANCH   1  13
ATOM     13  C   UNL     1       4.073   4.930  16.907  0.00  0.00    +0.000 C 
BRANCH  13  14
ATOM     14  C   UNL     1       3.039   3.795  16.863  0.00  0.00    +0.000 C 
BRANCH  14  15
ATOM     15  O   UNL     1       1.838   4.171  17.541  0.00  0.00    +0.000 OA
BRANCH  15  16
ATOM     16  C   UNL     1       1.868   4.008  18.906  0.00  0.00    +0.000 A 
ATOM     17  C   UNL     1       1.570   2.714  19.345  0.00  0.00    +0.000 A 
ATOM     18  C   UNL     1       1.558   2.408  20.709  0.00  0.00    +0.000 A 
ATOM     19  C   UNL     1       1.845   3.393  21.653  0.00  0.00    +0.000 A 
ATOM     20  C   UNL     1       2.146   4.685  21.227  0.00  0.00    +0.000 A 
ATOM     21  C   UNL     1       2.154   4.984  19.867  0.00  0.00    +0.000 A 
ATOM     22  F   UNL     1       2.451   6.249  19.531  0.00  0.00    +0.000 F 
ENDBRANCH  15  16
ENDBRANCH  14  15
ENDBRANCH  13  14
ENDBRANCH   1  13
TORSDOF 8
ENDMDL
MODEL 8
REMARK VINA RESULT:      -7.1      1.533      1.715
REMARK  Name = 
REMARK  11 active torsions:
REMARK  status: ('A' for Active; 'I' for Inactive)
REMARK    1  A    between atoms: C_1  and  C_2
REMARK    2  A    between atoms: C_2  and  C_3
REMARK    3  A    between atoms: C_2  and  C_4
REMARK    4  A    between atoms: C_4  and  C_5
REMARK    5  A    between atoms: C_7  and  C_8
REMARK    6  A    between atoms: C_8  and  N_9
REMARK    7  A    between atoms: N_9  and  C_10
REMARK    8  A    between atoms: N_9  and  C_11
REMARK    9  A    between atoms: C_11  and  C_12
REMARK   10  A    between atoms: C_12  and  O_13
REMARK   11  A    between atoms: O_13  and  C_14
REMARK                            x       y       z     vdW  Elec       q    Type
REMARK                         _______ _______ _______ _____ _____    ______ ____
ROOT
ATOM      1  N   UNL     1       7.012   5.570  18.110  0.00  0.00    +0.000 NA
ATOM      2  C   UNL     1       8.012   6.212  18.961  0.00  0.00    +0.000 C 
ENDROOT
BRANCH   1   3
ATOM      3  C   UNL     1       6.810   6.317  16.846  0.00  0.00    +0.000 C 
BRANCH   3   6
ATOM      4  C   UNL     1       6.437   4.428  13.871  0.00  0.00    +0.000 A 
ATOM      5  N   UNL     1       7.237   5.096  14.671  0.00  0.00    +0.000 NA
ATOM      6  C   UNL     1       6.379   5.481  15.679  0.00  0.00    +0.000 A 
ATOM      7  N   UNL     1       5.110   5.079  15.517  0.00  0.00    +0.000 NA
ATOM      8  O   UNL     1       5.148   4.373  14.317  0.00  0.00    +0.000 OA
BRANCH   4   9
ATOM      9  C   UNL     1       6.702   3.797  12.554  0.00  0.00    +0.000 C 
BRANCH   9  11
ATOM     10  C   UNL     1       4.483   3.333  11.391  0.00  0.00    +0.000 C 
ATOM     11  C   UNL     1       5.668   2.734  12.153  0.00  0.00    +0.000 C 
ATOM     12  C   UNL     1       6.344   1.665  11.287  0.00  0.00    +0.000 C 
ENDBRANCH   9  11
ENDBRANCH   4   9
ENDBRANCH   3   6
ENDBRANCH   1   3
BRANCH   1  13
ATOM     13  C   UNL     1       5.768   5.293  18.855  0.00  0.00    +0.000 C 
BRANCH  13  14
ATOM     14  C   UNL     1       5.374   3.809  18.815  0.00  0.00    +0.000 C 
BRANCH  14  15
ATOM     15  O   UNL     1       4.002   3.655  18.445  0.00  0.00    +0.000 OA
BRANCH  15  16
ATOM     16  C   UNL     1       3.149   3.375  19.487  0.00  0.00    +0.000 A 
ATOM     17  C   UNL     1       1.878   3.947  19.369  0.00  0.00    +0.000 A 
ATOM     18  C   UNL     1       0.912   3.749  20.360  0.00  0.00    +0.000 A 
ATOM     19  C   UNL     1       1.203   2.975  21.482  0.00  0.00    +0.000 A 
ATOM     20  C   UNL     1       2.466   2.397  21.608  0.00  0.00    +0.000 A 
ATOM     21  C   UNL     1       3.424   2.600  20.619  0.00  0.00    +0.000 A 
ATOM     22  F   UNL     1       4.617   2.015  20.808  0.00  0.00    +0.000 F 
ENDBRANCH  15  16
ENDBRANCH  14  15
ENDBRANCH  13  14
ENDBRANCH   1  13
TORSDOF 8
ENDMDL
MODEL 9
REMARK VINA RESULT:      -7.1      1.494      1.867
REMARK  Name = 
REMARK  11 active torsions:
REMARK  status: ('A' for Active; 'I' for Inactive)
REMARK    1  A    between atoms: C_1  and  C_2
REMARK    2  A    between atoms: C_2  and  C_3
REMARK    3  A    between atoms: C_2  and  C_4
REMARK    4  A    between atoms: C_4  and  C_5
REMARK    5  A    between atoms: C_7  and  C_8
REMARK    6  A    between atoms: C_8  and  N_9
REMARK    7  A    between atoms: N_9  and  C_10
REMARK    8  A    between atoms: N_9  and  C_11
REMARK    9  A    between atoms: C_11  and  C_12
REMARK   10  A    between atoms: C_12  and  O_13
REMARK   11  A    between atoms: O_13  and  C_14
REMARK                            x       y       z     vdW  Elec       q    Type
REMARK                         _______ _______ _______ _____ _____    ______ ____
ROOT
ATOM      1  N   UNL     1       7.266   5.104  18.606  0.00  0.00    +0.000 NA
ATOM      2  C   UNL     1       8.073   6.265  18.980  0.00  0.00    +0.000 C 
ENDROOT
BRANCH   1   3
ATOM      3  C   UNL     1       7.837   4.397  17.435  0.00  0.00    +0.000 C 
BRANCH   3   6
ATOM      4  C   UNL     1       5.744   4.255  14.579  0.00  0.00    +0.000 A 
ATOM      5  N   UNL     1       6.083   3.733  15.736  0.00  0.00    +0.000 NA
ATOM      6  C   UNL     1       7.082   4.585  16.154  0.00  0.00    +0.000 A 
ATOM      7  N   UNL     1       7.358   5.584  15.302  0.00  0.00    +0.000 NA
ATOM      8  O   UNL     1       6.464   5.369  14.256  0.00  0.00    +0.000 OA
BRANCH   4   9
ATOM      9  C   UNL     1       4.768   3.788  13.563  0.00  0.00    +0.000 C 
BRANCH   9  11
ATOM     10  C   UNL     1       6.557   2.796  12.044  0.00  0.00    +0.000 C 
ATOM     11  C   UNL     1       5.338   3.717  12.138  0.00  0.00    +0.000 C 
ATOM     12  C   UNL     1       4.249   3.224  11.177  0.00  0.00    +0.000 C 
ENDBRANCH   9  11
ENDBRANCH   4   9
ENDBRANCH   3   6
ENDBRANCH   1   3
BRANCH   1  13
ATOM     13  C   UNL     1       5.841   5.462  18.462  0.00  0.00    +0.000 C 
BRANCH  13  14
ATOM     14  C   UNL     1       4.986   4.965  19.637  0.00  0.00    +0.000 C 
BRANCH  14  15
ATOM     15  O   UNL     1       3.663   5.502  19.568  0.00  0.00    +0.000 OA
BRANCH  15  16
ATOM     16  C   UNL     1       2.659   4.564  19.530  0.00  0.00    +0.000 A 
ATOM     17  C   UNL     1       2.324   4.121  18.245  0.00  0.00    +0.000 A 
ATOM     18  C   UNL     1       1.315   3.172  18.059  0.00  0.00    +0.000 A 
ATOM     19  C   UNL     1       0.627   2.651  19.154  0.00  0.00    +0.000 A 
ATOM     20  C   UNL     1       0.954   3.084  20.439  0.00  0.00    +0.000 A 
ATOM     21  C   UNL     1       1.959   4.031  20.618  0.00  0.00    +0.000 A 
ATOM     22  F   UNL     1       2.218   4.401  21.881  0.00  0.00    +0.000 F 
ENDBRANCH  15  16
ENDBRANCH  14  15
ENDBRANCH  13  14
ENDBRANCH   1  13
TORSDOF 8
ENDMDL
