MODEL 1
REMARK VINA RESULT:      -7.5      0.000      0.000
REMARK  Name = 
REMARK  6 active torsions:
REMARK  status: ('A' for Active; 'I' for Inactive)
REMARK    1  A    between atoms: C_2  and  O_3
REMARK    2  A    between atoms: C_2  and  C_4
REMARK    3  A    between atoms: C_6  and  N_7
REMARK    4  A    between atoms: C_8  and  C_9
REMARK    5  A    between atoms: C_14  and  O_15
REMARK    6  A    between atoms: C_18  and  O_19
REMARK                            x       y       z     vdW  Elec       q    Type
REMARK                         _______ _______ _______ _____ _____    ______ ____
ROOT
ATOM      1  C   UNL     1       3.714   4.107  19.469  0.00  0.00    +0.000 A 
ATOM      2  C   UNL     1       4.329   4.192  18.210  0.00  0.00    +0.000 A 
ATOM      3  C   UNL     1       4.237   5.355  17.434  0.00  0.00    +0.000 A 
ATOM      4  C   UNL     1       3.470   6.419  17.921  0.00  0.00    +0.000 A 
ATOM      5  C   UNL     1       2.856   6.354  19.178  0.00  0.00    +0.000 A 
ATOM      6  C   UNL     1       2.994   5.205  19.952  0.00  0.00    +0.000 A 
ENDROOT
BRANCH   1   8
ATOM      7  O   UNL     1       3.009   2.463  21.045  0.00  0.00    +0.000 OA
ATOM      8  C   UNL     1       3.830   2.826  20.217  0.00  0.00    +0.000 C 
BRANCH   8   9
ATOM      9  O   UNL     1       4.893   2.071  19.862  0.00  0.00    +0.000 OA
ATOM     10  H   UNL     1       5.065   2.112  18.897  0.00  0.00    +0.000 HD
ENDBRANCH   8   9
ENDBRANCH   1   8
BRANCH   3  11
ATOM     11  N   UNL     1       4.866   5.356  16.179  0.00  0.00    +0.000 NA
ATOM     12  C   UNL     1       5.385   4.271  15.690  0.00  0.00    +0.000 C 
BRANCH  12  13
ATOM     13  C   UNL     1       6.041   4.263  14.360  0.00  0.00    +0.000 A 
ATOM     14  C   UNL     1       5.500   3.487  13.328  0.00  0.00    +0.000 A 
ATOM     15  C   UNL     1       6.105   3.465  12.072  0.00  0.00    +0.000 A 
ATOM     16  C   UNL     1       7.254   4.218  11.838  0.00  0.00    +0.000 A 
ATOM     17  C   UNL     1       7.803   4.995  12.860  0.00  0.00    +0.000 A 
ATOM     18  C   UNL     1       7.199   5.014  14.120  0.00  0.00    +0.000 A 
BRANCH  18  19
ATOM     19  O   UNL     1       7.751   5.777  15.115  0.00  0.00    +0.000 OA
ATOM     20  H   UNL     1       7.044   6.090  15.699  0.00  0.00    +0.000 HD
ENDBRANCH  18  19
ENDBRANCH  12  13
ENDBRANCH   3  11
BRANCH   6  21
ATOM     21  O   UNL     1       2.424   5.155  21.197  0.00  0.00    +0.000 OA
ATOM     22  H   UNL     1       3.055   4.742  21.815  0.00  0.00    +0.000 HD
ENDBRANCH   6  21
TORSDOF 6
ENDMDL
MODEL 2
REMARK VINA RESULT:      -7.4      1.978      7.163
REMARK  Name = 
REMARK  6 active torsions:
REMARK  status: ('A' for Active; 'I' for Inactive)
REMARK    1  A    between atoms: C_2  and  O_3
REMARK    2  A    between atoms: C_2  and  C_4
REMARK    3  A    between atoms: C_6  and  N_7
REMARK    4  A    between atoms: C_8  and  C_9
REMARK    5  A    between atoms: C_14  and  O_15
REMARK    6  A    between atoms: C_18  and  O_19
REMARK                            x       y       z     vdW  Elec       q    Type
REMARK                         _______ _______ _______ _____ _____    ______ ____
ROOT
ATOM      1  C   UNL     1       6.018   4.007  13.890  0.00  0.00    +0.000 A 
ATOM      2  C   UNL     1       5.190   3.598  14.947  0.00  0.00    +0.000 A 
ATOM      3  C   UNL     1       5.367   4.100  16.244  0.00  0.00    +0.000 A 
ATOM      4  C   UNL     1       6.428   4.982  16.475  0.00  0.00    +0.000 A 
ATOM      5  C   UNL     1       7.259   5.406  15.431  0.00  0.00    +0.000 A 
ATOM      6  C   UNL     1       7.041   4.928  14.141  0.00  0.00    +0.000 A 
ENDROOT
BRANCH   1   8
ATOM      7  O   UNL     1       4.718   3.474  11.965  0.00  0.00    +0.000 OA
ATOM      8  C   UNL     1       5.787   3.404  12.549  0.00  0.00    +0.000 C 
BRANCH   8   9
ATOM      9  O   UNL     1       6.878   2.819  12.009  0.00  0.00    +0.000 OA
ATOM     10  H   UNL     1       6.854   1.842  12.100  0.00  0.00    +0.000 HD
ENDBRANCH   8   9
ENDBRANCH   1   8
BRANCH   3  11
ATOM     11  N   UNL     1       4.508   3.630  17.250  0.00  0.00    +0.000 NA
ATOM     12  C   UNL     1       4.171   4.386  18.249  0.00  0.00    +0.000 C 
BRANCH  12  13
ATOM     13  C   UNL     1       3.255   3.899  19.309  0.00  0.00    +0.000 A 
ATOM     14  C   UNL     1       1.990   4.481  19.449  0.00  0.00    +0.000 A 
ATOM     15  C   UNL     1       1.116   4.037  20.442  0.00  0.00    +0.000 A 
ATOM     16  C   UNL     1       1.501   3.009  21.301  0.00  0.00    +0.000 A 
ATOM     17  C   UNL     1       2.762   2.422  21.172  0.00  0.00    +0.000 A 
ATOM     18  C   UNL     1       3.638   2.869  20.179  0.00  0.00    +0.000 A 
BRANCH  18  19
ATOM     19  O   UNL     1       4.873   2.288  20.066  0.00  0.00    +0.000 OA
ATOM     20  H   UNL     1       5.226   2.470  19.182  0.00  0.00    +0.000 HD
ENDBRANCH  18  19
ENDBRANCH  12  13
ENDBRANCH   3  11
BRANCH   6  21
ATOM     21  O   UNL     1       7.831   5.370  13.113  0.00  0.00    +0.000 OA
ATOM     22  H   UNL     1       8.009   4.624  12.510  0.00  0.00    +0.000 HD
ENDBRANCH   6  21
TORSDOF 6
ENDMDL
MODEL 3
REMARK VINA RESULT:      -7.3      1.259      1.275
REMARK  Name = 
REMARK  6 active torsions:
REMARK  status: ('A' for Active; 'I' for Inactive)
REMARK    1  A    between atoms: C_2  and  O_3
REMARK    2  A    between atoms: C_2  and  C_4
REMARK    3  A    between atoms: C_6  and  N_7
REMARK    4  A    between atoms: C_8  and  C_9
REMARK    5  A    between atoms: C_14  and  O_15
REMARK    6  A    between atoms: C_18  and  O_19
REMARK                            x       y       z     vdW  Elec       q    Type
REMARK                         _______ _______ _______ _____ _____    ______ ____
ROOT
ATOM      1  C   UNL     1       2.456   3.819  18.762  0.00  0.00    +0.000 A 
ATOM      2  C   UNL     1       3.267   3.973  17.627  0.00  0.00    +0.000 A 
ATOM      3  C   UNL     1       4.002   5.147  17.414  0.00  0.00    +0.000 A 
ATOM      4  C   UNL     1       3.869   6.190  18.337  0.00  0.00    +0.000 A 
ATOM      5  C   UNL     1       3.070   6.051  19.478  0.00  0.00    +0.000 A 
ATOM      6  C   UNL     1       2.379   4.860  19.693  0.00  0.00    +0.000 A 
ENDROOT
BRANCH   1   8
ATOM      7  O   UNL     1       0.531   2.523  19.308  0.00  0.00    +0.000 OA
ATOM      8  C   UNL     1       1.680   2.556  18.899  0.00  0.00    +0.000 C 
BRANCH   8   9
ATOM      9  O   UNL     1       2.339   1.454  18.480  0.00  0.00    +0.000 OA
ATOM     10  H   UNL     1       2.824   1.015  19.212  0.00  0.00    +0.000 HD
ENDBRANCH   8   9
ENDBRANCH   1   8
BRANCH   3  11
ATOM     11  N   UNL     1       4.777   5.231  16.246  0.00  0.00    +0.000 NA
ATOM     12  C   UNL     1       5.135   4.163  15.603  0.00  0.00    +0.000 C 
BRANCH  12  13
ATOM     13  C   UNL     1       5.944   4.245  14.362  0.00  0.00    +0.000 A 
ATOM     14  C   UNL     1       5.566   3.499  13.241  0.00  0.00    +0.000 A 
ATOM     15  C   UNL     1       6.317   3.562  12.066  0.00  0.00    +0.000 A 
ATOM     16  C   UNL     1       7.450   4.372  12.006  0.00  0.00    +0.000 A 
ATOM     17  C   UNL     1       7.838   5.120  13.120  0.00  0.00    +0.000 A 
ATOM     18  C   UNL     1       7.087   5.053  14.298  0.00  0.00    +0.000 A 
BRANCH  18  19
ATOM     19  O   UNL     1       7.481   5.788  15.384  0.00  0.00    +0.000 OA
ATOM     20  H   UNL     1       7.219   5.320  16.191  0.00  0.00    +0.000 HD
ENDBRANCH  18  19
ENDBRANCH  12  13
ENDBRANCH   3  11
BRANCH   6  21
ATOM     21  O   UNL     1       1.627   4.710  20.828  0.00  0.00    +0.000 OA
ATOM     22  H   UNL     1       2.192   4.880  21.604  0.00  0.00    +0.000 HD
ENDBRANCH   6  21
TORSDOF 6
ENDMDL
MODEL 4
REMARK VINA RESULT:      -7.2      2.308      7.183
REMARK  Name = 
REMARK  6 active torsions:
REMARK  status: ('A' for Active; 'I' for Inactive)
REMARK    1  A    between atoms: C_2  and  O_3
REMARK    2  A    between atoms: C_2  and  C_4
REMARK    3  A    between atoms: C_6  and  N_7
REMARK    4  A    between atoms: C_8  and  C_9
REMARK    5  A    between atoms: C_14  and  O_15
REMARK    6  A    between atoms: C_18  and  O_19
REMARK                            x       y       z     vdW  Elec       q    Type
REMARK                         _______ _______ _______ _____ _____    ______ ____
ROOT
ATOM      1  C   UNL     1       6.037   3.933  13.688  0.00  0.00    +0.000 A 
ATOM      2  C   UNL     1       5.227   3.618  14.791  0.00  0.00    +0.000 A 
ATOM      3  C   UNL     1       5.475   4.171  16.055  0.00  0.00    +0.000 A 
ATOM      4  C   UNL     1       6.586   5.009  16.206  0.00  0.00    +0.000 A 
ATOM      5  C   UNL     1       7.399   5.339  15.115  0.00  0.00    +0.000 A 
ATOM      6  C   UNL     1       7.111   4.811  13.858  0.00  0.00    +0.000 A 
ENDROOT
BRANCH   1   8
ATOM      7  O   UNL     1       4.669   3.432  11.801  0.00  0.00    +0.000 OA
ATOM      8  C   UNL     1       5.728   3.278  12.388  0.00  0.00    +0.000 C 
BRANCH   8   9
ATOM      9  O   UNL     1       6.742   2.542  11.883  0.00  0.00    +0.000 OA
ATOM     10  H   UNL     1       6.679   1.599  12.149  0.00  0.00    +0.000 HD
ENDBRANCH   8   9
ENDBRANCH   1   8
BRANCH   3  11
ATOM     11  N   UNL     1       4.631   3.795  17.111  0.00  0.00    +0.000 NA
ATOM     12  C   UNL     1       3.547   4.459  17.371  0.00  0.00    +0.000 C 
BRANCH  12  13
ATOM     13  C   UNL     1       2.645   4.059  18.478  0.00  0.00    +0.000 A 
ATOM     14  C   UNL     1       2.301   4.995  19.461  0.00  0.00    +0.000 A 
ATOM     15  C   UNL     1       1.456   4.635  20.511  0.00  0.00    +0.000 A 
ATOM     16  C   UNL     1       0.950   3.338  20.586  0.00  0.00    +0.000 A 
ATOM     17  C   UNL     1       1.287   2.397  19.612  0.00  0.00    +0.000 A 
ATOM     18  C   UNL     1       2.137   2.756  18.561  0.00  0.00    +0.000 A 
BRANCH  18  19
ATOM     19  O   UNL     1       2.463   1.821  17.616  0.00  0.00    +0.000 OA
ATOM     20  H   UNL     1       2.657   2.273  16.781  0.00  0.00    +0.000 HD
ENDBRANCH  18  19
ENDBRANCH  12  13
ENDBRANCH   3  11
BRANCH   6  21
ATOM     21  O   UNL     1       7.885   5.163  12.784  0.00  0.00    +0.000 OA
ATOM     22  H   UNL     1       7.302   5.350  12.025  0.00  0.00    +0.000 HD
ENDBRANCH   6  21
TORSDOF 6
ENDMDL
MODEL 5
REMARK VINA RESULT:      -7.1      2.230      7.009
REMARK  Name = 
REMARK  6 active torsions:
REMARK  status: ('A' for Active; 'I' for Inactive)
REMARK    1  A    between atoms: C_2  and  O_3
REMARK    2  A    between atoms: C_2  and  C_4
REMARK    3  A    between atoms: C_6  and  N_7
REMARK    4  A    between atoms: C_8  and  C_9
REMARK    5  A    between atoms: C_14  and  O_15
REMARK    6  A    between atoms: C_18  and  O_19
REMARK                            x       y       z     vdW  Elec       q    Type
REMARK                         _______ _______ _______ _____ _____    ______ ____
ROOT
ATOM      1  C   UNL     1       6.037   4.047  13.838  0.00  0.00    +0.000 A 
ATOM      2  C   UNL     1       5.274   3.819  14.995  0.00  0.00    +0.000 A 
ATOM      3  C   UNL     1       5.610   4.419  16.216  0.00  0.00    +0.000 A 
ATOM      4  C   UNL     1       6.760   5.214  16.271  0.00  0.00    +0.000 A 
ATOM      5  C   UNL     1       7.528   5.457  15.126  0.00  0.00    +0.000 A 
ATOM      6  C   UNL     1       7.154   4.885  13.912  0.00  0.00    +0.000 A 
ENDROOT
BRANCH   1   8
ATOM      7  O   UNL     1       4.562   3.537  12.037  0.00  0.00    +0.000 OA
ATOM      8  C   UNL     1       5.634   3.347  12.588  0.00  0.00    +0.000 C 
BRANCH   8   9
ATOM      9  O   UNL     1       6.579   2.524  12.085  0.00  0.00    +0.000 OA
ATOM     10  H   UNL     1       6.792   1.790  12.701  0.00  0.00    +0.000 HD
ENDBRANCH   8   9
ENDBRANCH   1   8
BRANCH   3  11
ATOM     11  N   UNL     1       4.807   4.129  17.330  0.00  0.00    +0.000 NA
ATOM     12  C   UNL     1       3.535   4.388  17.325  0.00  0.00    +0.000 C 
BRANCH  12  13
ATOM     13  C   UNL     1       2.680   4.073  18.495  0.00  0.00    +0.000 A 
ATOM     14  C   UNL     1       1.639   3.146  18.359  0.00  0.00    +0.000 A 
ATOM     15  C   UNL     1       0.823   2.840  19.448  0.00  0.00    +0.000 A 
ATOM     16  C   UNL     1       1.041   3.458  20.679  0.00  0.00    +0.000 A 
ATOM     17  C   UNL     1       2.075   4.384  20.825  0.00  0.00    +0.000 A 
ATOM     18  C   UNL     1       2.891   4.694  19.732  0.00  0.00    +0.000 A 
BRANCH  18  19
ATOM     19  O   UNL     1       3.898   5.608  19.888  0.00  0.00    +0.000 OA
ATOM     20  H   UNL     1       4.736   5.136  20.006  0.00  0.00    +0.000 HD
ENDBRANCH  18  19
ENDBRANCH  12  13
ENDBRANCH   3  11
BRANCH   6  21
ATOM     21  O   UNL     1       7.884   5.153  12.784  0.00  0.00    +0.000 OA
ATOM     22  H   UNL     1       8.035   6.115  12.729  0.00  0.00    +0.000 HD
ENDBRANCH   6  21
TORSDOF 6
ENDMDL
MODEL 6
REMARK VINA RESULT:      -7.0      2.239      7.114
REMARK  Name = 
REMARK  6 active torsions:
REMARK  status: ('A' for Active; 'I' for Inactive)
REMARK    1  A    between atoms: C_2  and  O_3
REMARK    2  A    between atoms: C_2  and  C_4
REMARK    3  A    between atoms: C_6  and  N_7
REMARK    4  A    between atoms: C_8  and  C_9
REMARK    5  A    between atoms: C_14  and  O_15
REMARK    6  A    between atoms: C_18  and  O_19
REMARK                            x       y       z     vdW  Elec       q    Type
REMARK                         _______ _______ _______ _____ _____    ______ ____
ROOT
ATOM      1  C   UNL     1       5.968   4.277  14.166  0.00  0.00    +0.000 A 
ATOM      2  C   UNL     1       4.986   4.105  15.155  0.00  0.00    +0.000 A 
ATOM      3  C   UNL     1       5.111   4.709  16.414  0.00  0.00    +0.000 A 
ATOM      4  C   UNL     1       6.267   5.449  16.683  0.00  0.00    +0.000 A 
ATOM      5  C   UNL     1       7.252   5.636  15.706  0.00  0.00    +0.000 A 
ATOM      6  C   UNL     1       7.091   5.062  14.448  0.00  0.00    +0.000 A 
ENDROOT
BRANCH   1   8
ATOM      7  O   UNL     1       4.731   3.608  12.241  0.00  0.00    +0.000 OA
ATOM      8  C   UNL     1       5.779   3.576  12.867  0.00  0.00    +0.000 C 
BRANCH   8   9
ATOM      9  O   UNL     1       6.884   2.947  12.410  0.00  0.00    +0.000 OA
ATOM     10  H   UNL     1       7.029   3.108  11.453  0.00  0.00    +0.000 HD
ENDBRANCH   8   9
ENDBRANCH   1   8
BRANCH   3  11
ATOM     11  N   UNL     1       4.095   4.476  17.354  0.00  0.00    +0.000 NA
ATOM     12  C   UNL     1       4.183   3.501  18.206  0.00  0.00    +0.000 C 
BRANCH  12  13
ATOM     13  C   UNL     1       3.118   3.257  19.210  0.00  0.00    +0.000 A 
ATOM     14  C   UNL     1       3.470   2.929  20.524  0.00  0.00    +0.000 A 
ATOM     15  C   UNL     1       2.481   2.693  21.480  0.00  0.00    +0.000 A 
ATOM     16  C   UNL     1       1.136   2.784  21.128  0.00  0.00    +0.000 A 
ATOM     17  C   UNL     1       0.773   3.109  19.820  0.00  0.00    +0.000 A 
ATOM     18  C   UNL     1       1.764   3.342  18.861  0.00  0.00    +0.000 A 
BRANCH  18  19
ATOM     19  O   UNL     1       1.394   3.655  17.581  0.00  0.00    +0.000 OA
ATOM     20  H   UNL     1       1.139   2.842  17.119  0.00  0.00    +0.000 HD
ENDBRANCH  18  19
ENDBRANCH  12  13
ENDBRANCH   3  11
BRANCH   6  21
ATOM     21  O   UNL     1       8.037   5.276  13.480  0.00  0.00    +0.000 OA
ATOM     22  H   UNL     1       7.589   5.370  12.618  0.00  0.00    +0.000 HD
ENDBRANCH   6  21
TORSDOF 6
ENDMDL
MODEL 7
REMARK VINA RESULT:      -6.9      0.888      1.006
REMARK  Name = 
REMARK  6 active torsions:
REMARK  status: ('A' for Active; 'I' for Inactive)
REMARK    1  A    between atoms: C_2  and  O_3
REMARK    2  A    between atoms: C_2  and  C_4
REMARK    3  A    between atoms: C_6  and  N_7
REMARK    4  A    between atoms: C_8  and  C_9
REMARK    5  A    between atoms: C_14  and  O_15
REMARK    6  A    between atoms: C_18  and  O_19
REMARK                            x       y       z     vdW  Elec       q    Type
REMARK                         _______ _______ _______ _____ _____    ______ ____
ROOT
ATOM      1  C   UNL     1       4.096   3.088  19.349  0.00  0.00    +0.000 A 
ATOM      2  C   UNL     1       4.722   3.438  18.142  0.00  0.00    +0.000 A 
ATOM      3  C   UNL     1       4.293   4.545  17.396  0.00  0.00    +0.000 A 
ATOM      4  C   UNL     1       3.188   5.267  17.858  0.00  0.00    +0.000 A 
ATOM      5  C   UNL     1       2.557   4.937  19.063  0.00  0.00    +0.000 A 
ATOM      6  C   UNL     1       3.024   3.858  19.810  0.00  0.00    +0.000 A 
ENDROOT
BRANCH   1   8
ATOM      7  O   UNL     1       4.849   1.874  21.257  0.00  0.00    +0.000 OA
ATOM      8  C   UNL     1       4.589   1.879  20.065  0.00  0.00    +0.000 C 
BRANCH   8   9
ATOM      9  O   UNL     1       4.670   0.773  19.293  0.00  0.00    +0.000 OA
ATOM     10  H   UNL     1       4.937   0.987  18.373  0.00  0.00    +0.000 HD
ENDBRANCH   8   9
ENDBRANCH   1   8
BRANCH   3  11
ATOM     11  N   UNL     1       4.959   4.820  16.191  0.00  0.00    +0.000 NA
ATOM     12  C   UNL     1       5.492   3.868  15.489  0.00  0.00    +0.000 C 
BRANCH  12  13
ATOM     13  C   UNL     1       6.187   4.151  14.210  0.00  0.00    +0.000 A 
ATOM     14  C   UNL     1       5.773   3.501  13.041  0.00  0.00    +0.000 A 
ATOM     15  C   UNL     1       6.418   3.753  11.829  0.00  0.00    +0.000 A 
ATOM     16  C   UNL     1       7.479   4.655  11.779  0.00  0.00    +0.000 A 
ATOM     17  C   UNL     1       7.901   5.307  12.939  0.00  0.00    +0.000 A 
ATOM     18  C   UNL     1       7.258   5.052  14.153  0.00  0.00    +0.000 A 
BRANCH  18  19
ATOM     19  O   UNL     1       7.685   5.695  15.284  0.00  0.00    +0.000 OA
ATOM     20  H   UNL     1       8.245   6.443  15.028  0.00  0.00    +0.000 HD
ENDBRANCH  18  19
ENDBRANCH  12  13
ENDBRANCH   3  11
BRANCH   6  21
ATOM     21  O   UNL     1       2.430   3.557  21.008  0.00  0.00    +0.000 OA
ATOM     22  H   UNL     1       2.837   4.103  21.706  0.00  0.00    +0.000 HD
ENDBRANCH   6  21
TORSDOF 6
ENDMDL
MODEL 8
REMARK VINA RESULT:      -6.9      1.216      2.619
REMARK  Name = 
REMARK  6 active torsions:
REMARK  status: ('A' for Active; 'I' for Inactive)
REMARK    1  A    between atoms: C_2  and  O_3
REMARK    2  A    between atoms: C_2  and  C_4
REMARK    3  A    between atoms: C_6  and  N_7
REMARK    4  A    between atoms: C_8  and  C_9
REMARK    5  A    between atoms: C_14  and  O_15
REMARK    6  A    between atoms: C_18  and  O_19
REMARK                            x       y       z     vdW  Elec       q    Type
REMARK                         _______ _______ _______ _____ _____    ______ ____
ROOT
ATOM      1  C   UNL     1       2.942   6.271  19.233  0.00  0.00    +0.000 A 
ATOM      2  C   UNL     1       3.655   6.263  18.023  0.00  0.00    +0.000 A 
ATOM      3  C   UNL     1       4.375   5.132  17.612  0.00  0.00    +0.000 A 
ATOM      4  C   UNL     1       4.412   4.024  18.464  0.00  0.00    +0.000 A 
ATOM      5  C   UNL     1       3.702   4.012  19.671  0.00  0.00    +0.000 A 
ATOM      6  C   UNL     1       2.958   5.130  20.042  0.00  0.00    +0.000 A 
ENDROOT
BRANCH   1   8
ATOM      7  O   UNL     1       1.817   8.326  18.795  0.00  0.00    +0.000 OA
ATOM      8  C   UNL     1       2.230   7.521  19.614  0.00  0.00    +0.000 C 
BRANCH   8   9
ATOM      9  O   UNL     1       2.031   7.662  20.943  0.00  0.00    +0.000 OA
ATOM     10  H   UNL     1       1.084   7.572  21.183  0.00  0.00    +0.000 HD
ENDBRANCH   8   9
ENDBRANCH   1   8
BRANCH   3  11
ATOM     11  N   UNL     1       5.074   5.208  16.397  0.00  0.00    +0.000 NA
ATOM     12  C   UNL     1       5.263   4.153  15.666  0.00  0.00    +0.000 C 
BRANCH  12  13
ATOM     13  C   UNL     1       5.991   4.229  14.377  0.00  0.00    +0.000 A 
ATOM     14  C   UNL     1       5.533   3.488  13.281  0.00  0.00    +0.000 A 
ATOM     15  C   UNL     1       6.207   3.546  12.061  0.00  0.00    +0.000 A 
ATOM     16  C   UNL     1       7.343   4.343  11.929  0.00  0.00    +0.000 A 
ATOM     17  C   UNL     1       7.810   5.085  13.016  0.00  0.00    +0.000 A 
ATOM     18  C   UNL     1       7.136   5.024  14.239  0.00  0.00    +0.000 A 
BRANCH  18  19
ATOM     19  O   UNL     1       7.607   5.753  15.299  0.00  0.00    +0.000 OA
ATOM     20  H   UNL     1       7.424   5.270  16.119  0.00  0.00    +0.000 HD
ENDBRANCH  18  19
ENDBRANCH  12  13
ENDBRANCH   3  11
BRANCH   6  21
ATOM     21  O   UNL     1       2.234   5.106  21.204  0.00  0.00    +0.000 OA
ATOM     22  H   UNL     1       2.627   5.739  21.833  0.00  0.00    +0.000 HD
ENDBRANCH   6  21
TORSDOF 6
ENDMDL
MODEL 9
REMARK VINA RESULT:      -6.8      3.215      7.310
REMARK  Name = 
REMARK  6 active torsions:
REMARK  status: ('A' for Active; 'I' for Inactive)
REMARK    1  A    between atoms: C_2  and  O_3
REMARK    2  A    between atoms: C_2  and  C_4
REMARK    3  A    between atoms: C_6  and  N_7
REMARK    4  A    between atoms: C_8  and  C_9
REMARK    5  A    between atoms: C_14  and  O_15
REMARK    6  A    between atoms: C_18  and  O_19
REMARK                            x       y       z     vdW  Elec       q    Type
REMARK                         _______ _______ _______ _____ _____    ______ ____
ROOT
ATOM      1  C   UNL     1       5.434   5.320  17.152  0.00  0.00    +0.000 A 
ATOM      2  C   UNL     1       4.517   6.165  17.798  0.00  0.00    +0.000 A 
ATOM      3  C   UNL     1       3.205   5.749  18.058  0.00  0.00    +0.000 A 
ATOM      4  C   UNL     1       2.808   4.484  17.610  0.00  0.00    +0.000 A 
ATOM      5  C   UNL     1       3.711   3.626  16.970  0.00  0.00    +0.000 A 
ATOM      6  C   UNL     1       5.023   4.042  16.758  0.00  0.00    +0.000 A 
ENDROOT
BRANCH   1   8
ATOM      7  O   UNL     1       7.013   7.010  16.578  0.00  0.00    +0.000 OA
ATOM      8  C   UNL     1       6.799   5.848  16.882  0.00  0.00    +0.000 C 
BRANCH   8   9
ATOM      9  O   UNL     1       7.787   4.943  17.057  0.00  0.00    +0.000 OA
ATOM     10  H   UNL     1       7.558   4.277  17.741  0.00  0.00    +0.000 HD
ENDBRANCH   8   9
ENDBRANCH   1   8
BRANCH   3  11
ATOM     11  N   UNL     1       2.344   6.658  18.694  0.00  0.00    +0.000 NA
ATOM     12  C   UNL     1       2.359   7.919  18.389  0.00  0.00    +0.000 C 
BRANCH  12  13
ATOM     13  C   UNL     1       1.445   8.882  19.050  0.00  0.00    +0.000 A 
ATOM     14  C   UNL     1       0.791   9.852  18.280  0.00  0.00    +0.000 A 
ATOM     15  C   UNL     1      -0.070  10.767  18.886  0.00  0.00    +0.000 A 
ATOM     16  C   UNL     1      -0.284  10.719  20.262  0.00  0.00    +0.000 A 
ATOM     17  C   UNL     1       0.364   9.758  21.039  0.00  0.00    +0.000 A 
ATOM     18  C   UNL     1       1.230   8.842  20.433  0.00  0.00    +0.000 A 
BRANCH  18  19
ATOM     19  O   UNL     1       1.863   7.907  21.208  0.00  0.00    +0.000 OA
ATOM     20  H   UNL     1       1.656   7.024  20.867  0.00  0.00    +0.000 HD
ENDBRANCH  18  19
ENDBRANCH  12  13
ENDBRANCH   3  11
BRANCH   6  21
ATOM     21  O   UNL     1       5.916   3.189  16.165  0.00  0.00    +0.000 OA
ATOM     22  H   UNL     1       5.756   3.186  15.203  0.00  0.00    +0.000 HD
ENDBRANCH   6  21
TORSDOF 6
ENDMDL
