MODEL 1
REMARK VINA RESULT:      -7.0      0.000      0.000
REMARK  Name = 
REMARK  5 active torsions:
REMARK  status: ('A' for Active; 'I' for Inactive)
REMARK    1  A    between atoms: C_1  and  O_2
REMARK    2  A    between atoms: O_2  and  C_3
REMARK    3  A    between atoms: C_7  and  C_8
REMARK    4  A    between atoms: N_9  and  C_10
REMARK    5  A    between atoms: C_15  and  C_16
REMARK                            x       y       z     vdW  Elec       q    Type
REMARK                         _______ _______ _______ _____ _____    ______ ____
ROOT
ATOM      1  C   UNL     1       4.663   4.203  17.866  0.00  0.00    +0.000 C 
ATOM      2  N   UNL     1       3.901   3.163  18.003  0.00  0.00    +0.000 NA
ENDROOT
BRANCH   2   3
ATOM      3  C   UNL     1       3.060   3.112  19.137  0.00  0.00    +0.000 A 
ATOM      4  C   UNL     1       3.529   2.617  20.366  0.00  0.00    +0.000 A 
ATOM      5  C   UNL     1       2.708   2.569  21.491  0.00  0.00    +0.000 A 
ATOM      6  C   UNL     1       1.409   3.059  21.418  0.00  0.00    +0.000 A 
ATOM      7  C   UNL     1       0.938   3.594  20.221  0.00  0.00    +0.000 A 
ATOM      8  C   UNL     1       1.750   3.621  19.072  0.00  0.00    +0.000 A 
ATOM      9  C   UNL     1       1.215   4.238  17.810  0.00  0.00    +0.000 C 
ENDBRANCH   2   3
BRANCH   1  14
ATOM     10  C   UNL     1       5.898   4.095  14.322  0.00  0.00    +0.000 A 
ATOM     11  C   UNL     1       7.143   4.721  14.453  0.00  0.00    +0.000 A 
ATOM     12  C   UNL     1       7.581   5.188  15.696  0.00  0.00    +0.000 A 
ATOM     13  C   UNL     1       6.779   5.028  16.822  0.00  0.00    +0.000 A 
ATOM     14  C   UNL     1       5.534   4.411  16.691  0.00  0.00    +0.000 A 
ATOM     15  C   UNL     1       5.088   3.947  15.447  0.00  0.00    +0.000 A 
BRANCH  10  17
ATOM     16  C   UNL     1       6.682   3.580  12.134  0.00  0.00    +0.000 C 
ATOM     17  O   UNL     1       5.603   3.670  13.056  0.00  0.00    +0.000 OA
ENDBRANCH  10  17
ENDBRANCH   1  14
TORSDOF 3
ENDMDL
MODEL 2
REMARK VINA RESULT:      -6.8      1.343      1.592
REMARK  Name = 
REMARK  5 active torsions:
REMARK  status: ('A' for Active; 'I' for Inactive)
REMARK    1  A    between atoms: C_1  and  O_2
REMARK    2  A    between atoms: O_2  and  C_3
REMARK    3  A    between atoms: C_7  and  C_8
REMARK    4  A    between atoms: N_9  and  C_10
REMARK    5  A    between atoms: C_15  and  C_16
REMARK                            x       y       z     vdW  Elec       q    Type
REMARK                         _______ _______ _______ _____ _____    ______ ____
ROOT
ATOM      1  C   UNL     1       4.244   3.813  16.940  0.00  0.00    +0.000 C 
ATOM      2  N   UNL     1       3.343   4.643  17.364  0.00  0.00    +0.000 NA
ENDROOT
BRANCH   2   3
ATOM      3  C   UNL     1       2.427   4.177  18.333  0.00  0.00    +0.000 A 
ATOM      4  C   UNL     1       1.857   2.895  18.235  0.00  0.00    +0.000 A 
ATOM      5  C   UNL     1       0.957   2.425  19.190  0.00  0.00    +0.000 A 
ATOM      6  C   UNL     1       0.644   3.216  20.289  0.00  0.00    +0.000 A 
ATOM      7  C   UNL     1       1.231   4.472  20.429  0.00  0.00    +0.000 A 
ATOM      8  C   UNL     1       2.119   4.967  19.456  0.00  0.00    +0.000 A 
ATOM      9  C   UNL     1       2.757   6.312  19.661  0.00  0.00    +0.000 C 
ENDBRANCH   2   3
BRANCH   1  14
ATOM     10  C   UNL     1       6.224   4.012  13.756  0.00  0.00    +0.000 A 
ATOM     11  C   UNL     1       7.286   4.833  14.152  0.00  0.00    +0.000 A 
ATOM     12  C   UNL     1       7.356   5.332  15.456  0.00  0.00    +0.000 A 
ATOM     13  C   UNL     1       6.366   5.010  16.379  0.00  0.00    +0.000 A 
ATOM     14  C   UNL     1       5.302   4.197  15.983  0.00  0.00    +0.000 A 
ATOM     15  C   UNL     1       5.225   3.700  14.676  0.00  0.00    +0.000 A 
BRANCH  10  17
ATOM     16  C   UNL     1       5.070   3.169  11.851  0.00  0.00    +0.000 C 
ATOM     17  O   UNL     1       6.289   3.579  12.460  0.00  0.00    +0.000 OA
ENDBRANCH  10  17
ENDBRANCH   1  14
TORSDOF 3
ENDMDL
MODEL 3
REMARK VINA RESULT:      -6.6      0.457      1.719
REMARK  Name = 
REMARK  5 active torsions:
REMARK  status: ('A' for Active; 'I' for Inactive)
REMARK    1  A    between atoms: C_1  and  O_2
REMARK    2  A    between atoms: O_2  and  C_3
REMARK    3  A    between atoms: C_7  and  C_8
REMARK    4  A    between atoms: N_9  and  C_10
REMARK    5  A    between atoms: C_15  and  C_16
REMARK                            x       y       z     vdW  Elec       q    Type
REMARK                         _______ _______ _______ _____ _____    ______ ____
ROOT
ATOM      1  C   UNL     1       4.355   4.451  17.642  0.00  0.00    +0.000 C 
ATOM      2  N   UNL     1       4.114   3.315  18.218  0.00  0.00    +0.000 NA
ENDROOT
BRANCH   2   3
ATOM      3  C   UNL     1       3.153   3.297  19.253  0.00  0.00    +0.000 A 
ATOM      4  C   UNL     1       1.895   3.902  19.086  0.00  0.00    +0.000 A 
ATOM      5  C   UNL     1       0.939   3.883  20.101  0.00  0.00    +0.000 A 
ATOM      6  C   UNL     1       1.209   3.217  21.290  0.00  0.00    +0.000 A 
ATOM      7  C   UNL     1       2.433   2.572  21.460  0.00  0.00    +0.000 A 
ATOM      8  C   UNL     1       3.416   2.610  20.453  0.00  0.00    +0.000 A 
ATOM      9  C   UNL     1       4.709   1.874  20.662  0.00  0.00    +0.000 C 
ENDBRANCH   2   3
BRANCH   1  14
ATOM     10  C   UNL     1       5.736   4.186  14.161  0.00  0.00    +0.000 A 
ATOM     11  C   UNL     1       6.996   4.772  14.327  0.00  0.00    +0.000 A 
ATOM     12  C   UNL     1       7.397   5.264  15.573  0.00  0.00    +0.000 A 
ATOM     13  C   UNL     1       6.542   5.169  16.666  0.00  0.00    +0.000 A 
ATOM     14  C   UNL     1       5.282   4.591  16.500  0.00  0.00    +0.000 A 
ATOM     15  C   UNL     1       4.874   4.102  15.253  0.00  0.00    +0.000 A 
BRANCH  10  17
ATOM     16  C   UNL     1       6.601   3.373  12.097  0.00  0.00    +0.000 C 
ATOM     17  O   UNL     1       5.481   3.730  12.897  0.00  0.00    +0.000 OA
ENDBRANCH  10  17
ENDBRANCH   1  14
TORSDOF 3
ENDMDL
MODEL 4
REMARK VINA RESULT:      -6.5      4.454      5.526
REMARK  Name = 
REMARK  5 active torsions:
REMARK  status: ('A' for Active; 'I' for Inactive)
REMARK    1  A    between atoms: C_1  and  O_2
REMARK    2  A    between atoms: O_2  and  C_3
REMARK    3  A    between atoms: C_7  and  C_8
REMARK    4  A    between atoms: N_9  and  C_10
REMARK    5  A    between atoms: C_15  and  C_16
REMARK                            x       y       z     vdW  Elec       q    Type
REMARK                         _______ _______ _______ _____ _____    ______ ____
ROOT
ATOM      1  C   UNL     1       2.160   6.489  19.738  0.00  0.00    +0.000 C 
ATOM      2  N   UNL     1       2.133   7.753  19.453  0.00  0.00    +0.000 NA
ENDROOT
BRANCH   2   3
ATOM      3  C   UNL     1       1.363   8.596  20.286  0.00  0.00    +0.000 A 
ATOM      4  C   UNL     1       1.405   8.468  21.685  0.00  0.00    +0.000 A 
ATOM      5  C   UNL     1       0.654   9.300  22.514  0.00  0.00    +0.000 A 
ATOM      6  C   UNL     1      -0.122  10.309  21.957  0.00  0.00    +0.000 A 
ATOM      7  C   UNL     1      -0.144  10.482  20.574  0.00  0.00    +0.000 A 
ATOM      8  C   UNL     1       0.589   9.630  19.727  0.00  0.00    +0.000 A 
ATOM      9  C   UNL     1       0.566   9.872  18.244  0.00  0.00    +0.000 C 
ENDBRANCH   2   3
BRANCH   1  14
ATOM     10  C   UNL     1       5.153   4.523  18.611  0.00  0.00    +0.000 A 
ATOM     11  C   UNL     1       4.594   3.745  17.590  0.00  0.00    +0.000 A 
ATOM     12  C   UNL     1       3.237   3.853  17.271  0.00  0.00    +0.000 A 
ATOM     13  C   UNL     1       2.427   4.744  17.968  0.00  0.00    +0.000 A 
ATOM     14  C   UNL     1       2.982   5.515  18.991  0.00  0.00    +0.000 A 
ATOM     15  C   UNL     1       4.339   5.406  19.318  0.00  0.00    +0.000 A 
BRANCH  10  17
ATOM     16  C   UNL     1       7.365   4.736  17.756  0.00  0.00    +0.000 C 
ATOM     17  O   UNL     1       6.493   4.333  18.805  0.00  0.00    +0.000 OA
ENDBRANCH  10  17
ENDBRANCH   1  14
TORSDOF 3
ENDMDL
MODEL 5
REMARK VINA RESULT:      -6.5      1.866      2.830
REMARK  Name = 
REMARK  5 active torsions:
REMARK  status: ('A' for Active; 'I' for Inactive)
REMARK    1  A    between atoms: C_1  and  O_2
REMARK    2  A    between atoms: O_2  and  C_3
REMARK    3  A    between atoms: C_7  and  C_8
REMARK    4  A    between atoms: N_9  and  C_10
REMARK    5  A    between atoms: C_15  and  C_16
REMARK                            x       y       z     vdW  Elec       q    Type
REMARK                         _______ _______ _______ _____ _____    ______ ____
ROOT
ATOM      1  C   UNL     1       4.077   3.829  17.041  0.00  0.00    +0.000 C 
ATOM      2  N   UNL     1       3.313   4.613  17.733  0.00  0.00    +0.000 NA
ENDROOT
BRANCH   2   3
ATOM      3  C   UNL     1       2.292   4.016  18.508  0.00  0.00    +0.000 A 
ATOM      4  C   UNL     1       1.753   2.766  18.158  0.00  0.00    +0.000 A 
ATOM      5  C   UNL     1       0.751   2.168  18.920  0.00  0.00    +0.000 A 
ATOM      6  C   UNL     1       0.300   2.791  20.077  0.00  0.00    +0.000 A 
ATOM      7  C   UNL     1       0.852   4.010  20.467  0.00  0.00    +0.000 A 
ATOM      8  C   UNL     1       1.844   4.636  19.689  0.00  0.00    +0.000 A 
ATOM      9  C   UNL     1       2.438   5.933  20.162  0.00  0.00    +0.000 C 
ENDBRANCH   2   3
BRANCH   1  14
ATOM     10  C   UNL     1       7.062   5.876  16.040  0.00  0.00    +0.000 A 
ATOM     11  C   UNL     1       7.355   5.327  14.786  0.00  0.00    +0.000 A 
ATOM     12  C   UNL     1       6.586   4.283  14.266  0.00  0.00    +0.000 A 
ATOM     13  C   UNL     1       5.512   3.779  14.993  0.00  0.00    +0.000 A 
ATOM     14  C   UNL     1       5.223   4.320  16.248  0.00  0.00    +0.000 A 
ATOM     15  C   UNL     1       5.994   5.363  16.776  0.00  0.00    +0.000 A 
BRANCH  10  17
ATOM     16  C   UNL     1       7.719   7.408  17.740  0.00  0.00    +0.000 C 
ATOM     17  O   UNL     1       7.880   6.903  16.420  0.00  0.00    +0.000 OA
ENDBRANCH  10  17
ENDBRANCH   1  14
TORSDOF 3
ENDMDL
MODEL 6
REMARK VINA RESULT:      -6.5      1.179      1.594
REMARK  Name = 
REMARK  5 active torsions:
REMARK  status: ('A' for Active; 'I' for Inactive)
REMARK    1  A    between atoms: C_1  and  O_2
REMARK    2  A    between atoms: O_2  and  C_3
REMARK    3  A    between atoms: C_7  and  C_8
REMARK    4  A    between atoms: N_9  and  C_10
REMARK    5  A    between atoms: C_15  and  C_16
REMARK                            x       y       z     vdW  Elec       q    Type
REMARK                         _______ _______ _______ _____ _____    ______ ____
ROOT
ATOM      1  C   UNL     1       4.232   4.480  16.918  0.00  0.00    +0.000 C 
ATOM      2  N   UNL     1       4.476   4.109  18.136  0.00  0.00    +0.000 NA
ENDROOT
BRANCH   2   3
ATOM      3  C   UNL     1       3.374   3.954  19.007  0.00  0.00    +0.000 A 
ATOM      4  C   UNL     1       2.766   5.067  19.613  0.00  0.00    +0.000 A 
ATOM      5  C   UNL     1       1.674   4.923  20.468  0.00  0.00    +0.000 A 
ATOM      6  C   UNL     1       1.141   3.661  20.699  0.00  0.00    +0.000 A 
ATOM      7  C   UNL     1       1.701   2.548  20.073  0.00  0.00    +0.000 A 
ATOM      8  C   UNL     1       2.821   2.679  19.231  0.00  0.00    +0.000 A 
ATOM      9  C   UNL     1       3.373   1.459  18.549  0.00  0.00    +0.000 C 
ENDBRANCH   2   3
BRANCH   1  14
ATOM     10  C   UNL     1       6.094   4.019  13.691  0.00  0.00    +0.000 A 
ATOM     11  C   UNL     1       7.253   4.764  13.942  0.00  0.00    +0.000 A 
ATOM     12  C   UNL     1       7.428   5.425  15.160  0.00  0.00    +0.000 A 
ATOM     13  C   UNL     1       6.446   5.345  16.143  0.00  0.00    +0.000 A 
ATOM     14  C   UNL     1       5.287   4.609  15.892  0.00  0.00    +0.000 A 
ATOM     15  C   UNL     1       5.104   3.949  14.670  0.00  0.00    +0.000 A 
BRANCH  10  17
ATOM     16  C   UNL     1       4.786   3.245  11.859  0.00  0.00    +0.000 C 
ATOM     17  O   UNL     1       6.060   3.409  12.468  0.00  0.00    +0.000 OA
ENDBRANCH  10  17
ENDBRANCH   1  14
TORSDOF 3
ENDMDL
MODEL 7
REMARK VINA RESULT:      -6.5      1.713      2.572
REMARK  Name = 
REMARK  5 active torsions:
REMARK  status: ('A' for Active; 'I' for Inactive)
REMARK    1  A    between atoms: C_1  and  O_2
REMARK    2  A    between atoms: O_2  and  C_3
REMARK    3  A    between atoms: C_7  and  C_8
REMARK    4  A    between atoms: N_9  and  C_10
REMARK    5  A    between atoms: C_15  and  C_16
REMARK                            x       y       z     vdW  Elec       q    Type
REMARK                         _______ _______ _______ _____ _____    ______ ____
ROOT
ATOM      1  C   UNL     1       4.459   4.361  18.415  0.00  0.00    +0.000 C 
ATOM      2  N   UNL     1       3.944   3.181  18.564  0.00  0.00    +0.000 NA
ENDROOT
BRANCH   2   3
ATOM      3  C   UNL     1       2.977   3.011  19.579  0.00  0.00    +0.000 A 
ATOM      4  C   UNL     1       3.349   2.623  20.878  0.00  0.00    +0.000 A 
ATOM      5  C   UNL     1       2.402   2.460  21.888  0.00  0.00    +0.000 A 
ATOM      6  C   UNL     1       1.063   2.726  21.626  0.00  0.00    +0.000 A 
ATOM      7  C   UNL     1       0.678   3.155  20.357  0.00  0.00    +0.000 A 
ATOM      8  C   UNL     1       1.622   3.296  19.324  0.00  0.00    +0.000 A 
ATOM      9  C   UNL     1       1.171   3.793  17.979  0.00  0.00    +0.000 C 
ENDBRANCH   2   3
BRANCH   1  14
ATOM     10  C   UNL     1       7.162   6.152  16.523  0.00  0.00    +0.000 A 
ATOM     11  C   UNL     1       7.224   5.385  15.354  0.00  0.00    +0.000 A 
ATOM     12  C   UNL     1       6.391   4.277  15.181  0.00  0.00    +0.000 A 
ATOM     13  C   UNL     1       5.483   3.927  16.176  0.00  0.00    +0.000 A 
ATOM     14  C   UNL     1       5.426   4.686  17.346  0.00  0.00    +0.000 A 
ATOM     15  C   UNL     1       6.263   5.794  17.526  0.00  0.00    +0.000 A 
BRANCH  10  17
ATOM     16  C   UNL     1       7.788   8.207  17.550  0.00  0.00    +0.000 C 
ATOM     17  O   UNL     1       8.018   7.219  16.553  0.00  0.00    +0.000 OA
ENDBRANCH  10  17
ENDBRANCH   1  14
TORSDOF 3
ENDMDL
MODEL 8
REMARK VINA RESULT:      -6.5      1.612      2.928
REMARK  Name = 
REMARK  5 active torsions:
REMARK  status: ('A' for Active; 'I' for Inactive)
REMARK    1  A    between atoms: C_1  and  O_2
REMARK    2  A    between atoms: O_2  and  C_3
REMARK    3  A    between atoms: C_7  and  C_8
REMARK    4  A    between atoms: N_9  and  C_10
REMARK    5  A    between atoms: C_15  and  C_16
REMARK                            x       y       z     vdW  Elec       q    Type
REMARK                         _______ _______ _______ _____ _____    ______ ____
ROOT
ATOM      1  C   UNL     1       4.154   3.859  17.672  0.00  0.00    +0.000 C 
ATOM      2  N   UNL     1       4.014   4.417  18.833  0.00  0.00    +0.000 NA
ENDROOT
BRANCH   2   3
ATOM      3  C   UNL     1       3.027   3.892  19.698  0.00  0.00    +0.000 A 
ATOM      4  C   UNL     1       1.733   4.440  19.739  0.00  0.00    +0.000 A 
ATOM      5  C   UNL     1       0.752   3.924  20.585  0.00  0.00    +0.000 A 
ATOM      6  C   UNL     1       1.037   2.817  21.376  0.00  0.00    +0.000 A 
ATOM      7  C   UNL     1       2.300   2.231  21.318  0.00  0.00    +0.000 A 
ATOM      8  C   UNL     1       3.306   2.762  20.489  0.00  0.00    +0.000 A 
ATOM      9  C   UNL     1       4.644   2.080  20.430  0.00  0.00    +0.000 C 
ENDBRANCH   2   3
BRANCH   1  14
ATOM     10  C   UNL     1       7.013   5.760  16.153  0.00  0.00    +0.000 A 
ATOM     11  C   UNL     1       7.135   5.116  14.916  0.00  0.00    +0.000 A 
ATOM     12  C   UNL     1       6.292   4.054  14.576  0.00  0.00    +0.000 A 
ATOM     13  C   UNL     1       5.313   3.629  15.469  0.00  0.00    +0.000 A 
ATOM     14  C   UNL     1       5.195   4.265  16.706  0.00  0.00    +0.000 A 
ATOM     15  C   UNL     1       6.042   5.326  17.053  0.00  0.00    +0.000 A 
BRANCH  10  17
ATOM     16  C   UNL     1       7.663   7.627  17.478  0.00  0.00    +0.000 C 
ATOM     17  O   UNL     1       7.887   6.793  16.348  0.00  0.00    +0.000 OA
ENDBRANCH  10  17
ENDBRANCH   1  14
TORSDOF 3
ENDMDL
MODEL 9
REMARK VINA RESULT:      -6.4      4.434      7.537
REMARK  Name = 
REMARK  5 active torsions:
REMARK  status: ('A' for Active; 'I' for Inactive)
REMARK    1  A    between atoms: C_1  and  O_2
REMARK    2  A    between atoms: O_2  and  C_3
REMARK    3  A    between atoms: C_7  and  C_8
REMARK    4  A    between atoms: N_9  and  C_10
REMARK    5  A    between atoms: C_15  and  C_16
REMARK                            x       y       z     vdW  Elec       q    Type
REMARK                         _______ _______ _______ _____ _____    ______ ____
ROOT
ATOM      1  C   UNL     1       3.427   6.849  17.792  0.00  0.00    +0.000 C 
ATOM      2  N   UNL     1       4.664   7.125  17.520  0.00  0.00    +0.000 NA
ENDROOT
BRANCH   2   3
ATOM      3  C   UNL     1       5.414   6.151  16.822  0.00  0.00    +0.000 A 
ATOM      4  C   UNL     1       5.232   5.946  15.444  0.00  0.00    +0.000 A 
ATOM      5  C   UNL     1       5.972   4.992  14.747  0.00  0.00    +0.000 A 
ATOM      6  C   UNL     1       6.944   4.254  15.412  0.00  0.00    +0.000 A 
ATOM      7  C   UNL     1       7.171   4.472  16.769  0.00  0.00    +0.000 A 
ATOM      8  C   UNL     1       6.410   5.413  17.488  0.00  0.00    +0.000 A 
ATOM      9  C   UNL     1       6.710   5.643  18.942  0.00  0.00    +0.000 C 
ENDBRANCH   2   3
BRANCH   1  14
ATOM     10  C   UNL     1       1.303   8.455  20.440  0.00  0.00    +0.000 A 
ATOM     11  C   UNL     1       0.771   9.541  19.734  0.00  0.00    +0.000 A 
ATOM     12  C   UNL     1       1.109   9.758  18.395  0.00  0.00    +0.000 A 
ATOM     13  C   UNL     1       1.980   8.888  17.747  0.00  0.00    +0.000 A 
ATOM     14  C   UNL     1       2.517   7.809  18.452  0.00  0.00    +0.000 A 
ATOM     15  C   UNL     1       2.186   7.590  19.795  0.00  0.00    +0.000 A 
BRANCH  10  17
ATOM     16  C   UNL     1      -0.330   9.024  22.075  0.00  0.00    +0.000 C 
ATOM     17  O   UNL     1       0.875   8.349  21.734  0.00  0.00    +0.000 OA
ENDBRANCH  10  17
ENDBRANCH   1  14
TORSDOF 3
ENDMDL
