MODEL 1
REMARK VINA RESULT:      -7.7      0.000      0.000
REMARK  Name = 
REMARK  10 active torsions:
REMARK  status: ('A' for Active; 'I' for Inactive)
REMARK    1  A    between atoms: C_1  and  O_2
REMARK    2  A    between atoms: O_2  and  C_3
REMARK    3  A    between atoms: C_6  and  C_7
REMARK    4  A    between atoms: C_12  and  O_13
REMARK    5  A    between atoms: O_13  and  C_14
REMARK    6  A    between atoms: C_14  and  C_15
REMARK    7  A    between atoms: C_15  and  C_16
REMARK    8  A    between atoms: C_16  and  N_17
REMARK    9  A    between atoms: C_29  and  O_30
REMARK   10  A    between atoms: O_30  and  C_31
REMARK                            x       y       z     vdW  Elec       q    Type
REMARK                         _______ _______ _______ _____ _____    ______ ____
ROOT
ATOM      1  C   UNL     1       3.918   4.397  18.694  0.00  0.00    +0.000 C 
ATOM      2  C   UNL     1       2.951   5.282  18.981  0.00  0.00    +0.000 C 
ATOM      3  O   UNL     1       2.619   6.336  18.136  0.00  0.00    +0.000 OA
ATOM      4  C   UNL     1       2.015   7.273  18.924  0.00  0.00    +0.000 A 
ATOM      5  C   UNL     1       1.702   8.540  18.497  0.00  0.00    +0.000 A 
ATOM      6  C   UNL     1       1.195   9.439  19.434  0.00  0.00    +0.000 A 
ATOM      7  C   UNL     1       1.008   9.043  20.775  0.00  0.00    +0.000 A 
ATOM      8  C   UNL     1       1.317   7.727  21.185  0.00  0.00    +0.000 A 
ATOM      9  C   UNL     1       1.814   6.857  20.235  0.00  0.00    +0.000 A 
ATOM     10  C   UNL     1       2.325   5.477  20.327  0.00  0.00    +0.000 C 
ATOM     11  O   UNL     1       2.325   4.743  21.284  0.00  0.00    +0.000 OA
ENDROOT
BRANCH   1  15
ATOM     12  C   UNL     1       6.818   5.200  15.599  0.00  0.00    +0.000 A 
ATOM     13  C   UNL     1       5.723   4.348  15.347  0.00  0.00    +0.000 A 
ATOM     14  C   UNL     1       4.744   4.093  16.326  0.00  0.00    +0.000 A 
ATOM     15  C   UNL     1       4.862   4.667  17.586  0.00  0.00    +0.000 A 
ATOM     16  C   UNL     1       5.998   5.454  17.844  0.00  0.00    +0.000 A 
ATOM     17  C   UNL     1       6.959   5.753  16.872  0.00  0.00    +0.000 A 
BRANCH  12  19
ATOM     18  C   UNL     1       7.519   4.982  13.346  0.00  0.00    +0.000 C 
ATOM     19  O   UNL     1       7.779   5.459  14.661  0.00  0.00    +0.000 OA
ENDBRANCH  12  19
BRANCH  17  20
ATOM     20  O   UNL     1       7.926   6.582  17.373  0.00  0.00    +0.000 OA
ATOM     21  C   UNL     1       7.660   7.964  17.518  0.00  0.00    +0.000 C 
ENDBRANCH  17  20
ENDBRANCH   1  15
BRANCH   6  22
ATOM     22  O   UNL     1       0.836  10.638  18.896  0.00  0.00    +0.000 OA
BRANCH  22  23
ATOM     23  C   UNL     1      -0.270  10.662  17.993  0.00  0.00    +0.000 C 
BRANCH  23  24
ATOM     24  C   UNL     1      -1.412  11.309  18.779  0.00  0.00    +0.000 C 
BRANCH  24  25
ATOM     25  C   UNL     1      -1.073  12.684  19.354  0.00  0.00    +0.000 C 
BRANCH  25  26
ATOM     26  N   UNL     1      -1.626  12.942  20.694  0.00  0.00    +0.000 NA
ATOM     27  C   UNL     1      -3.058  12.602  20.775  0.00  0.00    +0.000 C 
ATOM     28  C   UNL     1      -3.624  12.907  22.162  0.00  0.00    +0.000 C 
ATOM     29  C   UNL     1      -2.848  12.175  23.249  0.00  0.00    +0.000 C 
ATOM     30  C   UNL     1      -1.359  12.465  23.117  0.00  0.00    +0.000 C 
ATOM     31  C   UNL     1      -0.860  12.184  21.699  0.00  0.00    +0.000 C 
ENDBRANCH  25  26
ENDBRANCH  24  25
ENDBRANCH  23  24
ENDBRANCH  22  23
ENDBRANCH   6  22
TORSDOF 8
ENDMDL
MODEL 2
REMARK VINA RESULT:      -7.6      1.448      1.990
REMARK  Name = 
REMARK  10 active torsions:
REMARK  status: ('A' for Active; 'I' for Inactive)
REMARK    1  A    between atoms: C_1  and  O_2
REMARK    2  A    between atoms: O_2  and  C_3
REMARK    3  A    between atoms: C_6  and  C_7
REMARK    4  A    between atoms: C_12  and  O_13
REMARK    5  A    between atoms: O_13  and  C_14
REMARK    6  A    between atoms: C_14  and  C_15
REMARK    7  A    between atoms: C_15  and  C_16
REMARK    8  A    between atoms: C_16  and  N_17
REMARK    9  A    between atoms: C_29  and  O_30
REMARK   10  A    between atoms: O_30  and  C_31
REMARK                            x       y       z     vdW  Elec       q    Type
REMARK                         _______ _______ _______ _____ _____    ______ ____
ROOT
ATOM      1  C   UNL     1       3.907   4.421  18.536  0.00  0.00    +0.000 C 
ATOM      2  C   UNL     1       2.961   5.325  18.832  0.00  0.00    +0.000 C 
ATOM      3  O   UNL     1       2.656   6.398  18.001  0.00  0.00    +0.000 OA
ATOM      4  C   UNL     1       2.074   7.339  18.799  0.00  0.00    +0.000 A 
ATOM      5  C   UNL     1       1.792   8.619  18.389  0.00  0.00    +0.000 A 
ATOM      6  C   UNL     1       1.306   9.518  19.336  0.00  0.00    +0.000 A 
ATOM      7  C   UNL     1       1.107   9.110  20.671  0.00  0.00    +0.000 A 
ATOM      8  C   UNL     1       1.383   7.782  21.065  0.00  0.00    +0.000 A 
ATOM      9  C   UNL     1       1.860   6.911  20.104  0.00  0.00    +0.000 A 
ATOM     10  C   UNL     1       2.338   5.518  20.180  0.00  0.00    +0.000 C 
ATOM     11  O   UNL     1       2.318   4.772  21.128  0.00  0.00    +0.000 OA
ENDROOT
BRANCH   1  15
ATOM     12  C   UNL     1       6.831   5.192  15.457  0.00  0.00    +0.000 A 
ATOM     13  C   UNL     1       5.716   4.370  15.192  0.00  0.00    +0.000 A 
ATOM     14  C   UNL     1       4.730   4.126  16.165  0.00  0.00    +0.000 A 
ATOM     15  C   UNL     1       4.859   4.682  17.433  0.00  0.00    +0.000 A 
ATOM     16  C   UNL     1       6.013   5.438  17.703  0.00  0.00    +0.000 A 
ATOM     17  C   UNL     1       6.983   5.725  16.737  0.00  0.00    +0.000 A 
BRANCH  12  19
ATOM     18  C   UNL     1       7.528   4.993  13.200  0.00  0.00    +0.000 C 
ATOM     19  O   UNL     1       7.800   5.440  14.523  0.00  0.00    +0.000 OA
ENDBRANCH  12  19
BRANCH  17  20
ATOM     20  O   UNL     1       7.969   6.524  17.249  0.00  0.00    +0.000 OA
ATOM     21  C   UNL     1       7.684   7.872  17.573  0.00  0.00    +0.000 C 
ENDBRANCH  17  20
ENDBRANCH   1  15
BRANCH   6  22
ATOM     22  O   UNL     1       0.977  10.731  18.813  0.00  0.00    +0.000 OA
BRANCH  22  23
ATOM     23  C   UNL     1      -0.112  11.441  19.402  0.00  0.00    +0.000 C 
BRANCH  23  24
ATOM     24  C   UNL     1      -0.919  11.985  18.221  0.00  0.00    +0.000 C 
BRANCH  24  25
ATOM     25  C   UNL     1      -2.067  11.079  17.779  0.00  0.00    +0.000 C 
BRANCH  25  26
ATOM     26  N   UNL     1      -3.411  11.620  18.037  0.00  0.00    +0.000 NA
ATOM     27  C   UNL     1      -4.468  10.630  17.763  0.00  0.00    +0.000 C 
ATOM     28  C   UNL     1      -5.858  11.218  18.005  0.00  0.00    +0.000 C 
ATOM     29  C   UNL     1      -5.993  11.752  19.425  0.00  0.00    +0.000 C 
ATOM     30  C   UNL     1      -4.856  12.717  19.734  0.00  0.00    +0.000 C 
ATOM     31  C   UNL     1      -3.495  12.090  19.432  0.00  0.00    +0.000 C 
ENDBRANCH  25  26
ENDBRANCH  24  25
ENDBRANCH  23  24
ENDBRANCH  22  23
ENDBRANCH   6  22
TORSDOF 8
ENDMDL
MODEL 3
REMARK VINA RESULT:      -7.6      1.000      1.274
REMARK  Name = 
REMARK  10 active torsions:
REMARK  status: ('A' for Active; 'I' for Inactive)
REMARK    1  A    between atoms: C_1  and  O_2
REMARK    2  A    between atoms: O_2  and  C_3
REMARK    3  A    between atoms: C_6  and  C_7
REMARK    4  A    between atoms: C_12  and  O_13
REMARK    5  A    between atoms: O_13  and  C_14
REMARK    6  A    between atoms: C_14  and  C_15
REMARK    7  A    between atoms: C_15  and  C_16
REMARK    8  A    between atoms: C_16  and  N_17
REMARK    9  A    between atoms: C_29  and  O_30
REMARK   10  A    between atoms: O_30  and  C_31
REMARK                            x       y       z     vdW  Elec       q    Type
REMARK                         _______ _______ _______ _____ _____    ______ ____
ROOT
ATOM      1  C   UNL     1       3.969   4.422  18.502  0.00  0.00    +0.000 C 
ATOM      2  C   UNL     1       3.019   5.330  18.772  0.00  0.00    +0.000 C 
ATOM      3  O   UNL     1       2.702   6.371  17.906  0.00  0.00    +0.000 OA
ATOM      4  C   UNL     1       2.119   7.336  18.675  0.00  0.00    +0.000 A 
ATOM      5  C   UNL     1       1.826   8.598  18.222  0.00  0.00    +0.000 A 
ATOM      6  C   UNL     1       1.339   9.527  19.140  0.00  0.00    +0.000 A 
ATOM      7  C   UNL     1       1.151   9.164  20.490  0.00  0.00    +0.000 A 
ATOM      8  C   UNL     1       1.438   7.852  20.928  0.00  0.00    +0.000 A 
ATOM      9  C   UNL     1       1.915   6.952  19.996  0.00  0.00    +0.000 A 
ATOM     10  C   UNL     1       2.402   5.566  20.117  0.00  0.00    +0.000 C 
ATOM     11  O   UNL     1       2.393   4.853  21.090  0.00  0.00    +0.000 OA
ENDROOT
BRANCH   1  15
ATOM     12  C   UNL     1       6.866   5.126  15.381  0.00  0.00    +0.000 A 
ATOM     13  C   UNL     1       5.836   4.180  15.198  0.00  0.00    +0.000 A 
ATOM     14  C   UNL     1       4.859   3.952  16.184  0.00  0.00    +0.000 A 
ATOM     15  C   UNL     1       4.913   4.650  17.385  0.00  0.00    +0.000 A 
ATOM     16  C   UNL     1       5.988   5.535  17.580  0.00  0.00    +0.000 A 
ATOM     17  C   UNL     1       6.945   5.806  16.597  0.00  0.00    +0.000 A 
BRANCH  12  19
ATOM     18  C   UNL     1       7.505   4.969  13.104  0.00  0.00    +0.000 C 
ATOM     19  O   UNL     1       7.825   5.362  14.434  0.00  0.00    +0.000 OA
ENDBRANCH  12  19
BRANCH  17  20
ATOM     20  O   UNL     1       7.843   6.744  17.027  0.00  0.00    +0.000 OA
ATOM     21  C   UNL     1       7.383   8.005  17.474  0.00  0.00    +0.000 C 
ENDBRANCH  17  20
ENDBRANCH   1  15
BRANCH   6  22
ATOM     22  O   UNL     1       1.000  10.719  18.578  0.00  0.00    +0.000 OA
BRANCH  22  23
ATOM     23  C   UNL     1       2.047  11.648  18.296  0.00  0.00    +0.000 C 
BRANCH  23  24
ATOM     24  C   UNL     1       1.591  12.966  18.926  0.00  0.00    +0.000 C 
BRANCH  24  25
ATOM     25  C   UNL     1       0.140  12.957  19.407  0.00  0.00    +0.000 C 
BRANCH  25  26
ATOM     26  N   UNL     1      -0.023  13.037  20.868  0.00  0.00    +0.000 NA
ATOM     27  C   UNL     1      -0.435  14.383  21.305  0.00  0.00    +0.000 C 
ATOM     28  C   UNL     1      -0.569  14.458  22.827  0.00  0.00    +0.000 C 
ATOM     29  C   UNL     1      -1.547  13.413  23.348  0.00  0.00    +0.000 C 
ATOM     30  C   UNL     1      -1.165  12.033  22.832  0.00  0.00    +0.000 C 
ATOM     31  C   UNL     1      -1.004  12.030  21.312  0.00  0.00    +0.000 C 
ENDBRANCH  25  26
ENDBRANCH  24  25
ENDBRANCH  23  24
ENDBRANCH  22  23
ENDBRANCH   6  22
TORSDOF 8
ENDMDL
MODEL 4
REMARK VINA RESULT:      -7.6      2.327      3.295
REMARK  Name = 
REMARK  10 active torsions:
REMARK  status: ('A' for Active; 'I' for Inactive)
REMARK    1  A    between atoms: C_1  and  O_2
REMARK    2  A    between atoms: O_2  and  C_3
REMARK    3  A    between atoms: C_6  and  C_7
REMARK    4  A    between atoms: C_12  and  O_13
REMARK    5  A    between atoms: O_13  and  C_14
REMARK    6  A    between atoms: C_14  and  C_15
REMARK    7  A    between atoms: C_15  and  C_16
REMARK    8  A    between atoms: C_16  and  N_17
REMARK    9  A    between atoms: C_29  and  O_30
REMARK   10  A    between atoms: O_30  and  C_31
REMARK                            x       y       z     vdW  Elec       q    Type
REMARK                         _______ _______ _______ _____ _____    ______ ____
ROOT
ATOM      1  C   UNL     1       3.854   4.424  18.676  0.00  0.00    +0.000 C 
ATOM      2  C   UNL     1       2.908   5.341  18.928  0.00  0.00    +0.000 C 
ATOM      3  O   UNL     1       2.628   6.394  18.063  0.00  0.00    +0.000 OA
ATOM      4  C   UNL     1       2.036   7.359  18.824  0.00  0.00    +0.000 A 
ATOM      5  C   UNL     1       1.772   8.629  18.374  0.00  0.00    +0.000 A 
ATOM      6  C   UNL     1       1.271   9.556  19.286  0.00  0.00    +0.000 A 
ATOM      7  C   UNL     1       1.042   9.184  20.627  0.00  0.00    +0.000 A 
ATOM      8  C   UNL     1       1.300   7.866  21.062  0.00  0.00    +0.000 A 
ATOM      9  C   UNL     1       1.792   6.967  20.135  0.00  0.00    +0.000 A 
ATOM     10  C   UNL     1       2.258   5.574  20.257  0.00  0.00    +0.000 C 
ATOM     11  O   UNL     1       2.213   4.853  21.223  0.00  0.00    +0.000 OA
ENDROOT
BRANCH   1  15
ATOM     12  C   UNL     1       6.848   5.100  15.641  0.00  0.00    +0.000 A 
ATOM     13  C   UNL     1       5.750   4.252  15.385  0.00  0.00    +0.000 A 
ATOM     14  C   UNL     1       4.742   4.038  16.343  0.00  0.00    +0.000 A 
ATOM     15  C   UNL     1       4.832   4.649  17.588  0.00  0.00    +0.000 A 
ATOM     16  C   UNL     1       5.968   5.432  17.853  0.00  0.00    +0.000 A 
ATOM     17  C   UNL     1       6.959   5.691  16.900  0.00  0.00    +0.000 A 
BRANCH  12  19
ATOM     18  C   UNL     1       7.522   5.006  13.371  0.00  0.00    +0.000 C 
ATOM     19  O   UNL     1       7.837   5.320  14.723  0.00  0.00    +0.000 OA
ENDBRANCH  12  19
BRANCH  17  20
ATOM     20  O   UNL     1       7.921   6.524  17.402  0.00  0.00    +0.000 OA
ATOM     21  C   UNL     1       7.670   7.914  17.491  0.00  0.00    +0.000 C 
ENDBRANCH  17  20
ENDBRANCH   1  15
BRANCH   6  22
ATOM     22  O   UNL     1       0.963  10.758  18.725  0.00  0.00    +0.000 OA
BRANCH  22  23
ATOM     23  C   UNL     1       0.085  11.625  19.443  0.00  0.00    +0.000 C 
BRANCH  23  24
ATOM     24  C   UNL     1       0.365  13.023  18.886  0.00  0.00    +0.000 C 
BRANCH  24  25
ATOM     25  C   UNL     1       0.981  13.986  19.901  0.00  0.00    +0.000 C 
BRANCH  25  26
ATOM     26  N   UNL     1       1.914  14.969  19.325  0.00  0.00    +0.000 NA
ATOM     27  C   UNL     1       2.820  14.357  18.336  0.00  0.00    +0.000 C 
ATOM     28  C   UNL     1       3.803  15.384  17.772  0.00  0.00    +0.000 C 
ATOM     29  C   UNL     1       3.071  16.567  17.153  0.00  0.00    +0.000 C 
ATOM     30  C   UNL     1       2.078  17.151  18.148  0.00  0.00    +0.000 C 
ATOM     31  C   UNL     1       1.152  16.072  18.710  0.00  0.00    +0.000 C 
ENDBRANCH  25  26
ENDBRANCH  24  25
ENDBRANCH  23  24
ENDBRANCH  22  23
ENDBRANCH   6  22
TORSDOF 8
ENDMDL
MODEL 5
REMARK VINA RESULT:      -7.5      2.106      3.027
REMARK  Name = 
REMARK  10 active torsions:
REMARK  status: ('A' for Active; 'I' for Inactive)
REMARK    1  A    between atoms: C_1  and  O_2
REMARK    2  A    between atoms: O_2  and  C_3
REMARK    3  A    between atoms: C_6  and  C_7
REMARK    4  A    between atoms: C_12  and  O_13
REMARK    5  A    between atoms: O_13  and  C_14
REMARK    6  A    between atoms: C_14  and  C_15
REMARK    7  A    between atoms: C_15  and  C_16
REMARK    8  A    between atoms: C_16  and  N_17
REMARK    9  A    between atoms: C_29  and  O_30
REMARK   10  A    between atoms: O_30  and  C_31
REMARK                            x       y       z     vdW  Elec       q    Type
REMARK                         _______ _______ _______ _____ _____    ______ ____
ROOT
ATOM      1  C   UNL     1       4.210   3.283  17.283  0.00  0.00    +0.000 C 
ATOM      2  C   UNL     1       3.285   4.050  17.882  0.00  0.00    +0.000 C 
ATOM      3  O   UNL     1       3.016   5.356  17.486  0.00  0.00    +0.000 OA
ATOM      4  C   UNL     1       2.452   5.969  18.567  0.00  0.00    +0.000 A 
ATOM      5  C   UNL     1       2.209   7.318  18.637  0.00  0.00    +0.000 A 
ATOM      6  C   UNL     1       1.738   7.836  19.842  0.00  0.00    +0.000 A 
ATOM      7  C   UNL     1       1.517   6.987  20.946  0.00  0.00    +0.000 A 
ATOM      8  C   UNL     1       1.753   5.598  20.843  0.00  0.00    +0.000 A 
ATOM      9  C   UNL     1       2.216   5.112  19.636  0.00  0.00    +0.000 A 
ATOM     10  C   UNL     1       2.655   3.770  19.212  0.00  0.00    +0.000 C 
ATOM     11  O   UNL     1       2.607   2.737  19.833  0.00  0.00    +0.000 OA
ENDROOT
BRANCH   1  15
ATOM     12  C   UNL     1       7.157   5.090  14.700  0.00  0.00    +0.000 A 
ATOM     13  C   UNL     1       6.342   4.040  14.228  0.00  0.00    +0.000 A 
ATOM     14  C   UNL     1       5.351   3.453  15.036  0.00  0.00    +0.000 A 
ATOM     15  C   UNL     1       5.178   3.891  16.344  0.00  0.00    +0.000 A 
ATOM     16  C   UNL     1       6.047   4.888  16.822  0.00  0.00    +0.000 A 
ATOM     17  C   UNL     1       7.009   5.512  16.022  0.00  0.00    +0.000 A 
BRANCH  12  19
ATOM     18  C   UNL     1       8.038   5.442  12.527  0.00  0.00    +0.000 C 
ATOM     19  O   UNL     1       8.125   5.673  13.929  0.00  0.00    +0.000 OA
ENDBRANCH  12  19
BRANCH  17  20
ATOM     20  O   UNL     1       7.678   6.482  16.718  0.00  0.00    +0.000 OA
ATOM     21  C   UNL     1       7.563   6.538  18.128  0.00  0.00    +0.000 C 
ENDBRANCH  17  20
ENDBRANCH   1  15
BRANCH   6  22
ATOM     22  O   UNL     1       1.446   9.165  19.784  0.00  0.00    +0.000 OA
BRANCH  22  23
ATOM     23  C   UNL     1       0.385   9.654  20.605  0.00  0.00    +0.000 C 
BRANCH  23  24
ATOM     24  C   UNL     1      -0.080  10.944  19.927  0.00  0.00    +0.000 C 
BRANCH  24  25
ATOM     25  C   UNL     1       0.838  11.425  18.804  0.00  0.00    +0.000 C 
BRANCH  25  26
ATOM     26  N   UNL     1       1.456  12.741  19.038  0.00  0.00    +0.000 NA
ATOM     27  C   UNL     1       1.873  12.914  20.441  0.00  0.00    +0.000 C 
ATOM     28  C   UNL     1       2.482  14.297  20.674  0.00  0.00    +0.000 C 
ATOM     29  C   UNL     1       3.660  14.547  19.741  0.00  0.00    +0.000 C 
ATOM     30  C   UNL     1       3.249  14.292  18.297  0.00  0.00    +0.000 C 
ATOM     31  C   UNL     1       2.608  12.914  18.134  0.00  0.00    +0.000 C 
ENDBRANCH  25  26
ENDBRANCH  24  25
ENDBRANCH  23  24
ENDBRANCH  22  23
ENDBRANCH   6  22
TORSDOF 8
ENDMDL
MODEL 6
REMARK VINA RESULT:      -7.5      1.712      2.653
REMARK  Name = 
REMARK  10 active torsions:
REMARK  status: ('A' for Active; 'I' for Inactive)
REMARK    1  A    between atoms: C_1  and  O_2
REMARK    2  A    between atoms: O_2  and  C_3
REMARK    3  A    between atoms: C_6  and  C_7
REMARK    4  A    between atoms: C_12  and  O_13
REMARK    5  A    between atoms: O_13  and  C_14
REMARK    6  A    between atoms: C_14  and  C_15
REMARK    7  A    between atoms: C_15  and  C_16
REMARK    8  A    between atoms: C_16  and  N_17
REMARK    9  A    between atoms: C_29  and  O_30
REMARK   10  A    between atoms: O_30  and  C_31
REMARK                            x       y       z     vdW  Elec       q    Type
REMARK                         _______ _______ _______ _____ _____    ______ ____
ROOT
ATOM      1  C   UNL     1       3.408   5.042  18.652  0.00  0.00    +0.000 C 
ATOM      2  C   UNL     1       2.583   6.081  18.851  0.00  0.00    +0.000 C 
ATOM      3  O   UNL     1       2.492   7.153  17.968  0.00  0.00    +0.000 OA
ATOM      4  C   UNL     1       1.998   8.198  18.693  0.00  0.00    +0.000 A 
ATOM      5  C   UNL     1       1.932   9.486  18.224  0.00  0.00    +0.000 A 
ATOM      6  C   UNL     1       1.516  10.482  19.106  0.00  0.00    +0.000 A 
ATOM      7  C   UNL     1       1.171  10.161  20.435  0.00  0.00    +0.000 A 
ATOM      8  C   UNL     1       1.226   8.824  20.888  0.00  0.00    +0.000 A 
ATOM      9  C   UNL     1       1.637   7.857  19.991  0.00  0.00    +0.000 A 
ATOM     10  C   UNL     1       1.904   6.415  20.144  0.00  0.00    +0.000 C 
ATOM     11  O   UNL     1       1.712   5.718  21.109  0.00  0.00    +0.000 OA
ENDROOT
BRANCH   1  15
ATOM     12  C   UNL     1       6.592   5.373  15.758  0.00  0.00    +0.000 A 
ATOM     13  C   UNL     1       5.749   4.242  15.765  0.00  0.00    +0.000 A 
ATOM     14  C   UNL     1       4.683   4.121  16.675  0.00  0.00    +0.000 A 
ATOM     15  C   UNL     1       4.460   5.121  17.615  0.00  0.00    +0.000 A 
ATOM     16  C   UNL     1       5.353   6.206  17.641  0.00  0.00    +0.000 A 
ATOM     17  C   UNL     1       6.393   6.365  16.719  0.00  0.00    +0.000 A 
BRANCH  12  19
ATOM     18  C   UNL     1       7.423   4.995  13.570  0.00  0.00    +0.000 C 
ATOM     19  O   UNL     1       7.633   5.508  14.881  0.00  0.00    +0.000 OA
ENDBRANCH  12  19
BRANCH  17  20
ATOM     20  O   UNL     1       7.073   7.532  16.937  0.00  0.00    +0.000 OA
ATOM     21  C   UNL     1       7.984   7.623  18.016  0.00  0.00    +0.000 C 
ENDBRANCH  17  20
ENDBRANCH   1  15
BRANCH   6  22
ATOM     22  O   UNL     1       1.402  11.708  18.524  0.00  0.00    +0.000 OA
BRANCH  22  23
ATOM     23  C   UNL     1       0.951  12.794  19.334  0.00  0.00    +0.000 C 
BRANCH  23  24
ATOM     24  C   UNL     1      -0.331  13.288  18.661  0.00  0.00    +0.000 C 
BRANCH  24  25
ATOM     25  C   UNL     1      -1.584  12.508  19.057  0.00  0.00    +0.000 C 
BRANCH  25  26
ATOM     26  N   UNL     1      -2.290  11.870  17.933  0.00  0.00    +0.000 NA
ATOM     27  C   UNL     1      -1.737  10.541  17.617  0.00  0.00    +0.000 C 
ATOM     28  C   UNL     1      -2.459   9.905  16.429  0.00  0.00    +0.000 C 
ATOM     29  C   UNL     1      -3.957   9.804  16.682  0.00  0.00    +0.000 C 
ATOM     30  C   UNL     1      -4.515  11.163  17.085  0.00  0.00    +0.000 C 
ATOM     31  C   UNL     1      -3.727  11.767  18.247  0.00  0.00    +0.000 C 
ENDBRANCH  25  26
ENDBRANCH  24  25
ENDBRANCH  23  24
ENDBRANCH  22  23
ENDBRANCH   6  22
TORSDOF 8
ENDMDL
MODEL 7
REMARK VINA RESULT:      -7.5      1.983      2.772
REMARK  Name = 
REMARK  10 active torsions:
REMARK  status: ('A' for Active; 'I' for Inactive)
REMARK    1  A    between atoms: C_1  and  O_2
REMARK    2  A    between atoms: O_2  and  C_3
REMARK    3  A    between atoms: C_6  and  C_7
REMARK    4  A    between atoms: C_12  and  O_13
REMARK    5  A    between atoms: O_13  and  C_14
REMARK    6  A    between atoms: C_14  and  C_15
REMARK    7  A    between atoms: C_15  and  C_16
REMARK    8  A    between atoms: C_16  and  N_17
REMARK    9  A    between atoms: C_29  and  O_30
REMARK   10  A    between atoms: O_30  and  C_31
REMARK                            x       y       z     vdW  Elec       q    Type
REMARK                         _______ _______ _______ _____ _____    ______ ____
ROOT
ATOM      1  C   UNL     1       4.234   3.179  17.312  0.00  0.00    +0.000 C 
ATOM      2  C   UNL     1       3.298   3.938  17.902  0.00  0.00    +0.000 C 
ATOM      3  O   UNL     1       3.008   5.235  17.489  0.00  0.00    +0.000 OA
ATOM      4  C   UNL     1       2.434   5.852  18.562  0.00  0.00    +0.000 A 
ATOM      5  C   UNL     1       2.169   7.198  18.615  0.00  0.00    +0.000 A 
ATOM      6  C   UNL     1       1.690   7.724  19.813  0.00  0.00    +0.000 A 
ATOM      7  C   UNL     1       1.482   6.885  20.928  0.00  0.00    +0.000 A 
ATOM      8  C   UNL     1       1.741   5.499  20.843  0.00  0.00    +0.000 A 
ATOM      9  C   UNL     1       2.211   5.005  19.641  0.00  0.00    +0.000 A 
ATOM     10  C   UNL     1       2.672   3.665  19.235  0.00  0.00    +0.000 C 
ATOM     11  O   UNL     1       2.640   2.639  19.869  0.00  0.00    +0.000 OA
ENDROOT
BRANCH   1  15
ATOM     12  C   UNL     1       7.155   4.994  14.705  0.00  0.00    +0.000 A 
ATOM     13  C   UNL     1       6.330   3.951  14.235  0.00  0.00    +0.000 A 
ATOM     14  C   UNL     1       5.347   3.361  15.052  0.00  0.00    +0.000 A 
ATOM     15  C   UNL     1       5.193   3.790  16.365  0.00  0.00    +0.000 A 
ATOM     16  C   UNL     1       6.072   4.779  16.839  0.00  0.00    +0.000 A 
ATOM     17  C   UNL     1       7.027   5.406  16.031  0.00  0.00    +0.000 A 
BRANCH  12  19
ATOM     18  C   UNL     1       7.946   5.455  12.518  0.00  0.00    +0.000 C 
ATOM     19  O   UNL     1       8.116   5.579  13.926  0.00  0.00    +0.000 OA
ENDBRANCH  12  19
BRANCH  17  20
ATOM     20  O   UNL     1       7.708   6.367  16.727  0.00  0.00    +0.000 OA
ATOM     21  C   UNL     1       7.478   6.526  18.115  0.00  0.00    +0.000 C 
ENDBRANCH  17  20
ENDBRANCH   1  15
BRANCH   6  22
ATOM     22  O   UNL     1       1.377   9.047  19.739  0.00  0.00    +0.000 OA
BRANCH  22  23
ATOM     23  C   UNL     1       1.860   9.786  18.617  0.00  0.00    +0.000 C 
BRANCH  23  24
ATOM     24  C   UNL     1       0.610  10.163  17.820  0.00  0.00    +0.000 C 
BRANCH  24  25
ATOM     25  C   UNL     1      -0.542  10.687  18.677  0.00  0.00    +0.000 C 
BRANCH  25  26
ATOM     26  N   UNL     1      -1.742  11.079  17.919  0.00  0.00    +0.000 NA
ATOM     27  C   UNL     1      -2.187  10.015  17.001  0.00  0.00    +0.000 C 
ATOM     28  C   UNL     1      -3.414  10.451  16.199  0.00  0.00    +0.000 C 
ATOM     29  C   UNL     1      -4.556  10.864  17.117  0.00  0.00    +0.000 C 
ATOM     30  C   UNL     1      -4.076  11.906  18.118  0.00  0.00    +0.000 C 
ATOM     31  C   UNL     1      -2.823  11.435  18.857  0.00  0.00    +0.000 C 
ENDBRANCH  25  26
ENDBRANCH  24  25
ENDBRANCH  23  24
ENDBRANCH  22  23
ENDBRANCH   6  22
TORSDOF 8
ENDMDL
MODEL 8
REMARK VINA RESULT:      -7.4      1.204      1.691
REMARK  Name = 
REMARK  10 active torsions:
REMARK  status: ('A' for Active; 'I' for Inactive)
REMARK    1  A    between atoms: C_1  and  O_2
REMARK    2  A    between atoms: O_2  and  C_3
REMARK    3  A    between atoms: C_6  and  C_7
REMARK    4  A    between atoms: C_12  and  O_13
REMARK    5  A    between atoms: O_13  and  C_14
REMARK    6  A    between atoms: C_14  and  C_15
REMARK    7  A    between atoms: C_15  and  C_16
REMARK    8  A    between atoms: C_16  and  N_17
REMARK    9  A    between atoms: C_29  and  O_30
REMARK   10  A    between atoms: O_30  and  C_31
REMARK                            x       y       z     vdW  Elec       q    Type
REMARK                         _______ _______ _______ _____ _____    ______ ____
ROOT
ATOM      1  C   UNL     1       4.299   3.392  17.435  0.00  0.00    +0.000 C 
ATOM      2  C   UNL     1       3.357   4.175  17.984  0.00  0.00    +0.000 C 
ATOM      3  O   UNL     1       3.031   5.430  17.480  0.00  0.00    +0.000 OA
ATOM      4  C   UNL     1       2.465   6.116  18.514  0.00  0.00    +0.000 A 
ATOM      5  C   UNL     1       2.172   7.457  18.470  0.00  0.00    +0.000 A 
ATOM      6  C   UNL     1       1.704   8.063  19.634  0.00  0.00    +0.000 A 
ATOM      7  C   UNL     1       1.536   7.308  20.814  0.00  0.00    +0.000 A 
ATOM      8  C   UNL     1       1.824   5.925  20.829  0.00  0.00    +0.000 A 
ATOM      9  C   UNL     1       2.281   5.350  19.660  0.00  0.00    +0.000 A 
ATOM     10  C   UNL     1       2.764   3.992  19.347  0.00  0.00    +0.000 C 
ATOM     11  O   UNL     1       2.766   3.018  20.058  0.00  0.00    +0.000 OA
ENDROOT
BRANCH   1  15
ATOM     12  C   UNL     1       7.131   5.055  14.635  0.00  0.00    +0.000 A 
ATOM     13  C   UNL     1       6.291   3.989  14.252  0.00  0.00    +0.000 A 
ATOM     14  C   UNL     1       5.336   3.447  15.132  0.00  0.00    +0.000 A 
ATOM     15  C   UNL     1       5.225   3.948  16.424  0.00  0.00    +0.000 A 
ATOM     16  C   UNL     1       6.120   4.961  16.813  0.00  0.00    +0.000 A 
ATOM     17  C   UNL     1       7.047   5.540  15.941  0.00  0.00    +0.000 A 
BRANCH  12  19
ATOM     18  C   UNL     1       7.883   5.340  12.405  0.00  0.00    +0.000 C 
ATOM     19  O   UNL     1       8.065   5.594  13.794  0.00  0.00    +0.000 OA
ENDBRANCH  12  19
BRANCH  17  20
ATOM     20  O   UNL     1       7.751   6.537  16.559  0.00  0.00    +0.000 OA
ATOM     21  C   UNL     1       7.349   6.991  17.838  0.00  0.00    +0.000 C 
ENDBRANCH  17  20
ENDBRANCH   1  15
BRANCH   6  22
ATOM     22  O   UNL     1       1.361   9.370  19.465  0.00  0.00    +0.000 OA
BRANCH  22  23
ATOM     23  C   UNL     1       0.257   9.874  20.216  0.00  0.00    +0.000 C 
BRANCH  23  24
ATOM     24  C   UNL     1      -0.712  10.433  19.172  0.00  0.00    +0.000 C 
BRANCH  24  25
ATOM     25  C   UNL     1      -1.261  11.819  19.508  0.00  0.00    +0.000 C 
BRANCH  25  26
ATOM     26  N   UNL     1      -0.840  12.345  20.817  0.00  0.00    +0.000 NA
ATOM     27  C   UNL     1      -0.254  13.693  20.708  0.00  0.00    +0.000 C 
ATOM     28  C   UNL     1       0.208  14.210  22.071  0.00  0.00    +0.000 C 
ATOM     29  C   UNL     1      -0.936  14.214  23.077  0.00  0.00    +0.000 C 
ATOM     30  C   UNL     1      -1.592  12.841  23.132  0.00  0.00    +0.000 C 
ATOM     31  C   UNL     1      -1.991  12.357  21.738  0.00  0.00    +0.000 C 
ENDBRANCH  25  26
ENDBRANCH  24  25
ENDBRANCH  23  24
ENDBRANCH  22  23
ENDBRANCH   6  22
TORSDOF 8
ENDMDL
MODEL 9
REMARK VINA RESULT:      -7.4      1.559      2.324
REMARK  Name = 
REMARK  10 active torsions:
REMARK  status: ('A' for Active; 'I' for Inactive)
REMARK    1  A    between atoms: C_1  and  O_2
REMARK    2  A    between atoms: O_2  and  C_3
REMARK    3  A    between atoms: C_6  and  C_7
REMARK    4  A    between atoms: C_12  and  O_13
REMARK    5  A    between atoms: O_13  and  C_14
REMARK    6  A    between atoms: C_14  and  C_15
REMARK    7  A    between atoms: C_15  and  C_16
REMARK    8  A    between atoms: C_16  and  N_17
REMARK    9  A    between atoms: C_29  and  O_30
REMARK   10  A    between atoms: O_30  and  C_31
REMARK                            x       y       z     vdW  Elec       q    Type
REMARK                         _______ _______ _______ _____ _____    ______ ____
ROOT
ATOM      1  C   UNL     1       3.862   4.348  18.658  0.00  0.00    +0.000 C 
ATOM      2  C   UNL     1       2.926   5.263  18.954  0.00  0.00    +0.000 C 
ATOM      3  O   UNL     1       2.648   6.352  18.133  0.00  0.00    +0.000 OA
ATOM      4  C   UNL     1       2.071   7.291  18.936  0.00  0.00    +0.000 A 
ATOM      5  C   UNL     1       1.814   8.580  18.538  0.00  0.00    +0.000 A 
ATOM      6  C   UNL     1       1.330   9.475  19.490  0.00  0.00    +0.000 A 
ATOM      7  C   UNL     1       1.108   9.053  20.818  0.00  0.00    +0.000 A 
ATOM      8  C   UNL     1       1.359   7.716  21.198  0.00  0.00    +0.000 A 
ATOM      9  C   UNL     1       1.834   6.850  20.233  0.00  0.00    +0.000 A 
ATOM     10  C   UNL     1       2.290   5.449  20.297  0.00  0.00    +0.000 C 
ATOM     11  O   UNL     1       2.246   4.692  21.234  0.00  0.00    +0.000 OA
ENDROOT
BRANCH   1  15
ATOM     12  C   UNL     1       6.834   5.126  15.626  0.00  0.00    +0.000 A 
ATOM     13  C   UNL     1       5.757   4.254  15.363  0.00  0.00    +0.000 A 
ATOM     14  C   UNL     1       4.756   4.006  16.320  0.00  0.00    +0.000 A 
ATOM     15  C   UNL     1       4.832   4.608  17.570  0.00  0.00    +0.000 A 
ATOM     16  C   UNL     1       5.949   5.417  17.842  0.00  0.00    +0.000 A 
ATOM     17  C   UNL     1       6.932   5.708  16.890  0.00  0.00    +0.000 A 
BRANCH  12  19
ATOM     18  C   UNL     1       7.528   5.017  13.362  0.00  0.00    +0.000 C 
ATOM     19  O   UNL     1       7.816   5.380  14.708  0.00  0.00    +0.000 OA
ENDBRANCH  12  19
BRANCH  17  20
ATOM     20  O   UNL     1       7.874   6.561  17.398  0.00  0.00    +0.000 OA
ATOM     21  C   UNL     1       7.590   7.943  17.498  0.00  0.00    +0.000 C 
ENDBRANCH  17  20
ENDBRANCH   1  15
BRANCH   6  22
ATOM     22  O   UNL     1       1.027  10.700  18.979  0.00  0.00    +0.000 OA
BRANCH  22  23
ATOM     23  C   UNL     1      -0.282  10.896  18.443  0.00  0.00    +0.000 C 
BRANCH  23  24
ATOM     24  C   UNL     1      -1.047  11.655  19.529  0.00  0.00    +0.000 C 
BRANCH  24  25
ATOM     25  C   UNL     1      -0.230  12.746  20.221  0.00  0.00    +0.000 C 
BRANCH  25  26
ATOM     26  N   UNL     1       0.184  13.853  19.343  0.00  0.00    +0.000 NA
ATOM     27  C   UNL     1      -0.631  15.062  19.557  0.00  0.00    +0.000 C 
ATOM     28  C   UNL     1      -0.209  16.191  18.615  0.00  0.00    +0.000 C 
ATOM     29  C   UNL     1       1.270  16.519  18.773  0.00  0.00    +0.000 C 
ATOM     30  C   UNL     1       2.107  15.255  18.629  0.00  0.00    +0.000 C 
ATOM     31  C   UNL     1       1.612  14.149  19.562  0.00  0.00    +0.000 C 
ENDBRANCH  25  26
ENDBRANCH  24  25
ENDBRANCH  23  24
ENDBRANCH  22  23
ENDBRANCH   6  22
TORSDOF 8
ENDMDL
