MODEL 1
REMARK VINA RESULT:      -7.8      0.000      0.000
REMARK  Name = 
REMARK  5 active torsions:
REMARK  status: ('A' for Active; 'I' for Inactive)
REMARK    1  A    between atoms: C_1  and  C_2
REMARK    2  A    between atoms: N_6  and  C_7
REMARK    3  A    between atoms: C_7  and  C_8
REMARK    4  A    between atoms: C_8  and  C_9
REMARK    5  A    between atoms: C_19  and  S_20
REMARK                            x       y       z     vdW  Elec       q    Type
REMARK                         _______ _______ _______ _____ _____    ______ ____
ROOT
ATOM      1  C   UNL     1       4.867   4.398  16.198  0.00  0.00    +0.000 A 
ATOM      2  N   UNL     1       4.356   3.355  16.960  0.00  0.00    +0.000 NA
ATOM      3  C   UNL     1       3.534   3.974  17.796  0.00  0.00    +0.000 A 
ATOM      4  C   UNL     1       2.772   3.602  18.985  0.00  0.00    +0.000 A 
ATOM      5  C   UNL     1       1.828   2.585  19.050  0.00  0.00    +0.000 A 
ATOM      6  C   UNL     1       1.050   2.441  20.208  0.00  0.00    +0.000 A 
ATOM      7  C   UNL     1       1.321   3.211  21.347  0.00  0.00    +0.000 A 
ATOM      8  C   UNL     1       2.222   4.261  21.264  0.00  0.00    +0.000 A 
ATOM      9  C   UNL     1       2.796   4.558  20.032  0.00  0.00    +0.000 A 
ATOM     10  N   UNL     1       2.947   5.937  19.727  0.00  0.00    +0.000 NA
ATOM     11  C   UNL     1       3.174   6.268  18.487  0.00  0.00    +0.000 A 
ATOM     12  N   UNL     1       3.593   5.313  17.558  0.00  0.00    +0.000 N 
ATOM     13  N   UNL     1       4.291   5.587  16.442  0.00  0.00    +0.000 NA
ENDROOT
BRANCH  11  14
ATOM     14  S   UNL     1       2.804   7.896  17.975  0.00  0.00    +0.000 S 
ATOM     15  H   UNL     1       4.096   8.274  17.933  0.00  0.00    +0.000 HD
ENDBRANCH  11  14
BRANCH   1  16
ATOM     16  C   UNL     1       6.092   4.374  15.335  0.00  0.00    +0.000 C 
BRANCH  16  17
ATOM     17  C   UNL     1       7.162   5.421  15.590  0.00  0.00    +0.000 C 
BRANCH  17  23
ATOM     18  C   UNL     1       7.257   8.056  17.338  0.00  0.00    +0.000 C 
ATOM     19  C   UNL     1       7.502   6.675  17.803  0.00  0.00    +0.000 A 
ATOM     20  C   UNL     1       7.821   6.217  19.071  0.00  0.00    +0.000 A 
ATOM     21  N   UNL     1       7.972   4.857  19.080  0.00  0.00    +0.000 NA
ATOM     22  C   UNL     1       7.736   4.482  17.843  0.00  0.00    +0.000 A 
ATOM     23  N   UNL     1       7.463   5.536  17.022  0.00  0.00    +0.000 N 
ENDBRANCH  17  23
ENDBRANCH  16  17
ENDBRANCH   1  16
TORSDOF 4
ENDMDL
MODEL 2
REMARK VINA RESULT:      -7.6      3.752      6.861
REMARK  Name = 
REMARK  5 active torsions:
REMARK  status: ('A' for Active; 'I' for Inactive)
REMARK    1  A    between atoms: C_1  and  C_2
REMARK    2  A    between atoms: N_6  and  C_7
REMARK    3  A    between atoms: C_7  and  C_8
REMARK    4  A    between atoms: C_8  and  C_9
REMARK    5  A    between atoms: C_19  and  S_20
REMARK                            x       y       z     vdW  Elec       q    Type
REMARK                         _______ _______ _______ _____ _____    ______ ____
ROOT
ATOM      1  C   UNL     1       2.377   6.597  19.681  0.00  0.00    +0.000 A 
ATOM      2  N   UNL     1       3.110   7.025  18.582  0.00  0.00    +0.000 NA
ATOM      3  C   UNL     1       3.848   5.965  18.286  0.00  0.00    +0.000 A 
ATOM      4  C   UNL     1       4.965   5.683  17.389  0.00  0.00    +0.000 A 
ATOM      5  C   UNL     1       4.962   5.876  16.013  0.00  0.00    +0.000 A 
ATOM      6  C   UNL     1       6.042   5.409  15.250  0.00  0.00    +0.000 A 
ATOM      7  C   UNL     1       7.184   4.891  15.876  0.00  0.00    +0.000 A 
ATOM      8  C   UNL     1       7.164   4.647  17.240  0.00  0.00    +0.000 A 
ATOM      9  C   UNL     1       5.988   4.874  17.947  0.00  0.00    +0.000 A 
ATOM     10  N   UNL     1       5.668   3.922  18.951  0.00  0.00    +0.000 NA
ATOM     11  C   UNL     1       4.448   3.905  19.412  0.00  0.00    +0.000 A 
ATOM     12  N   UNL     1       3.585   4.982  19.190  0.00  0.00    +0.000 N 
ATOM     13  N   UNL     1       2.537   5.294  19.971  0.00  0.00    +0.000 NA
ENDROOT
BRANCH  11  14
ATOM     14  S   UNL     1       3.866   2.451  20.183  0.00  0.00    +0.000 S 
ATOM     15  H   UNL     1       4.461   2.728  21.359  0.00  0.00    +0.000 HD
ENDBRANCH  11  14
BRANCH   1  16
ATOM     16  C   UNL     1       1.637   7.450  20.666  0.00  0.00    +0.000 C 
BRANCH  16  17
ATOM     17  C   UNL     1       1.229   8.847  20.231  0.00  0.00    +0.000 C 
BRANCH  17  23
ATOM     18  C   UNL     1      -0.918  11.153  19.953  0.00  0.00    +0.000 C 
ATOM     19  C   UNL     1      -0.409  10.562  21.208  0.00  0.00    +0.000 A 
ATOM     20  C   UNL     1      -0.738  10.865  22.519  0.00  0.00    +0.000 A 
ATOM     21  N   UNL     1      -0.033  10.087  23.396  0.00  0.00    +0.000 NA
ATOM     22  C   UNL     1       0.706   9.308  22.639  0.00  0.00    +0.000 A 
ATOM     23  N   UNL     1       0.535   9.559  21.310  0.00  0.00    +0.000 N 
ENDBRANCH  17  23
ENDBRANCH  16  17
ENDBRANCH   1  16
TORSDOF 4
ENDMDL
MODEL 3
REMARK VINA RESULT:      -7.4      0.980      1.030
REMARK  Name = 
REMARK  5 active torsions:
REMARK  status: ('A' for Active; 'I' for Inactive)
REMARK    1  A    between atoms: C_1  and  C_2
REMARK    2  A    between atoms: N_6  and  C_7
REMARK    3  A    between atoms: C_7  and  C_8
REMARK    4  A    between atoms: C_8  and  C_9
REMARK    5  A    between atoms: C_19  and  S_20
REMARK                            x       y       z     vdW  Elec       q    Type
REMARK                         _______ _______ _______ _____ _____    ______ ____
ROOT
ATOM      1  C   UNL     1       4.316   5.962  16.661  0.00  0.00    +0.000 A 
ATOM      2  N   UNL     1       4.038   4.663  17.068  0.00  0.00    +0.000 NA
ATOM      3  C   UNL     1       3.186   4.841  18.068  0.00  0.00    +0.000 A 
ATOM      4  C   UNL     1       2.580   3.995  19.093  0.00  0.00    +0.000 A 
ATOM      5  C   UNL     1       1.824   2.855  18.852  0.00  0.00    +0.000 A 
ATOM      6  C   UNL     1       1.163   2.230  19.920  0.00  0.00    +0.000 A 
ATOM      7  C   UNL     1       1.382   2.653  21.237  0.00  0.00    +0.000 A 
ATOM      8  C   UNL     1       2.089   3.821  21.472  0.00  0.00    +0.000 A 
ATOM      9  C   UNL     1       2.520   4.576  20.385  0.00  0.00    +0.000 A 
ATOM     10  N   UNL     1       2.419   5.986  20.523  0.00  0.00    +0.000 NA
ATOM     11  C   UNL     1       2.501   6.714  19.444  0.00  0.00    +0.000 A 
ATOM     12  N   UNL     1       3.006   6.177  18.257  0.00  0.00    +0.000 N 
ATOM     13  N   UNL     1       3.570   6.898  17.272  0.00  0.00    +0.000 NA
ENDROOT
BRANCH  11  14
ATOM     14  S   UNL     1       1.832   8.326  19.471  0.00  0.00    +0.000 S 
ATOM     15  H   UNL     1       2.762   8.824  18.633  0.00  0.00    +0.000 HD
ENDBRANCH  11  14
BRANCH   1  16
ATOM     16  C   UNL     1       5.465   6.420  15.815  0.00  0.00    +0.000 C 
BRANCH  16  17
ATOM     17  C   UNL     1       6.777   5.664  15.928  0.00  0.00    +0.000 C 
BRANCH  17  23
ATOM     18  C   UNL     1       7.675   8.255  17.504  0.00  0.00    +0.000 C 
ATOM     19  C   UNL     1       7.710   6.862  17.995  0.00  0.00    +0.000 A 
ATOM     20  C   UNL     1       8.131   6.372  19.221  0.00  0.00    +0.000 A 
ATOM     21  N   UNL     1       8.008   5.011  19.276  0.00  0.00    +0.000 NA
ATOM     22  C   UNL     1       7.506   4.669  18.111  0.00  0.00    +0.000 A 
ATOM     23  N   UNL     1       7.320   5.741  17.289  0.00  0.00    +0.000 N 
ENDBRANCH  17  23
ENDBRANCH  16  17
ENDBRANCH   1  16
TORSDOF 4
ENDMDL
MODEL 4
REMARK VINA RESULT:      -7.3      1.922      3.071
REMARK  Name = 
REMARK  5 active torsions:
REMARK  status: ('A' for Active; 'I' for Inactive)
REMARK    1  A    between atoms: C_1  and  C_2
REMARK    2  A    between atoms: N_6  and  C_7
REMARK    3  A    between atoms: C_7  and  C_8
REMARK    4  A    between atoms: C_8  and  C_9
REMARK    5  A    between atoms: C_19  and  S_20
REMARK                            x       y       z     vdW  Elec       q    Type
REMARK                         _______ _______ _______ _____ _____    ______ ____
ROOT
ATOM      1  C   UNL     1       4.906   5.838  16.470  0.00  0.00    +0.000 A 
ATOM      2  N   UNL     1       4.443   4.603  16.908  0.00  0.00    +0.000 NA
ATOM      3  C   UNL     1       3.421   4.929  17.686  0.00  0.00    +0.000 A 
ATOM      4  C   UNL     1       2.549   4.223  18.621  0.00  0.00    +0.000 A 
ATOM      5  C   UNL     1       1.767   3.116  18.314  0.00  0.00    +0.000 A 
ATOM      6  C   UNL     1       0.850   2.637  19.262  0.00  0.00    +0.000 A 
ATOM      7  C   UNL     1       0.826   3.166  20.559  0.00  0.00    +0.000 A 
ATOM      8  C   UNL     1       1.564   4.303  20.847  0.00  0.00    +0.000 A 
ATOM      9  C   UNL     1       2.271   4.924  19.823  0.00  0.00    +0.000 A 
ATOM     10  N   UNL     1       2.261   6.344  19.826  0.00  0.00    +0.000 NA
ATOM     11  C   UNL     1       2.624   6.962  18.736  0.00  0.00    +0.000 A 
ATOM     12  N   UNL     1       3.317   6.285  17.729  0.00  0.00    +0.000 N 
ATOM     13  N   UNL     1       4.130   6.873  16.834  0.00  0.00    +0.000 NA
ENDROOT
BRANCH  11  14
ATOM     14  S   UNL     1       2.100   8.609  18.495  0.00  0.00    +0.000 S 
ATOM     15  H   UNL     1       3.294   9.134  18.830  0.00  0.00    +0.000 HD
ENDBRANCH  11  14
BRANCH   1  16
ATOM     16  C   UNL     1       6.238   6.140  15.855  0.00  0.00    +0.000 C 
BRANCH  16  17
ATOM     17  C   UNL     1       7.136   4.970  15.493  0.00  0.00    +0.000 C 
BRANCH  17  23
ATOM     18  C   UNL     1       8.694   5.896  12.900  0.00  0.00    +0.000 C 
ATOM     19  C   UNL     1       7.585   4.922  12.967  0.00  0.00    +0.000 A 
ATOM     20  C   UNL     1       6.981   4.205  11.947  0.00  0.00    +0.000 A 
ATOM     21  N   UNL     1       5.979   3.409  12.431  0.00  0.00    +0.000 NA
ATOM     22  C   UNL     1       5.976   3.619  13.728  0.00  0.00    +0.000 A 
ATOM     23  N   UNL     1       6.911   4.535  14.110  0.00  0.00    +0.000 N 
ENDBRANCH  17  23
ENDBRANCH  16  17
ENDBRANCH   1  16
TORSDOF 4
ENDMDL
MODEL 5
REMARK VINA RESULT:      -7.3      3.697      5.690
REMARK  Name = 
REMARK  5 active torsions:
REMARK  status: ('A' for Active; 'I' for Inactive)
REMARK    1  A    between atoms: C_1  and  C_2
REMARK    2  A    between atoms: N_6  and  C_7
REMARK    3  A    between atoms: C_7  and  C_8
REMARK    4  A    between atoms: C_8  and  C_9
REMARK    5  A    between atoms: C_19  and  S_20
REMARK                            x       y       z     vdW  Elec       q    Type
REMARK                         _______ _______ _______ _____ _____    ______ ____
ROOT
ATOM      1  C   UNL     1       2.584   8.120  18.352  0.00  0.00    +0.000 A 
ATOM      2  N   UNL     1       1.975   7.446  19.403  0.00  0.00    +0.000 NA
ATOM      3  C   UNL     1       2.428   6.208  19.263  0.00  0.00    +0.000 A 
ATOM      4  C   UNL     1       2.129   4.908  19.858  0.00  0.00    +0.000 A 
ATOM      5  C   UNL     1       2.180   4.613  21.215  0.00  0.00    +0.000 A 
ATOM      6  C   UNL     1       2.029   3.283  21.635  0.00  0.00    +0.000 A 
ATOM      7  C   UNL     1       1.678   2.283  20.719  0.00  0.00    +0.000 A 
ATOM      8  C   UNL     1       1.682   2.566  19.363  0.00  0.00    +0.000 A 
ATOM      9  C   UNL     1       2.088   3.828  18.941  0.00  0.00    +0.000 A 
ATOM     10  N   UNL     1       2.886   3.868  17.765  0.00  0.00    +0.000 NA
ATOM     11  C   UNL     1       3.549   4.962  17.513  0.00  0.00    +0.000 A 
ATOM     12  N   UNL     1       3.231   6.156  18.165  0.00  0.00    +0.000 N 
ATOM     13  N   UNL     1       3.484   7.384  17.678  0.00  0.00    +0.000 NA
ENDROOT
BRANCH  11  14
ATOM     14  S   UNL     1       4.933   4.875  16.454  0.00  0.00    +0.000 S 
ATOM     15  H   UNL     1       5.182   6.197  16.519  0.00  0.00    +0.000 HD
ENDBRANCH  11  14
BRANCH   1  16
ATOM     16  C   UNL     1       2.194   9.450  17.781  0.00  0.00    +0.000 C 
BRANCH  16  17
ATOM     17  C   UNL     1       0.873  10.054  18.224  0.00  0.00    +0.000 C 
BRANCH  17  23
ATOM     18  C   UNL     1       2.054  12.987  18.150  0.00  0.00    +0.000 C 
ATOM     19  C   UNL     1       1.566  12.258  19.339  0.00  0.00    +0.000 A 
ATOM     20  C   UNL     1       1.511  12.669  20.661  0.00  0.00    +0.000 A 
ATOM     21  N   UNL     1       0.994  11.686  21.460  0.00  0.00    +0.000 NA
ATOM     22  C   UNL     1       0.721  10.694  20.644  0.00  0.00    +0.000 A 
ATOM     23  N   UNL     1       1.060  10.973  19.353  0.00  0.00    +0.000 N 
ENDBRANCH  17  23
ENDBRANCH  16  17
ENDBRANCH   1  16
TORSDOF 4
ENDMDL
MODEL 6
REMARK VINA RESULT:      -7.2      3.671      5.828
REMARK  Name = 
REMARK  5 active torsions:
REMARK  status: ('A' for Active; 'I' for Inactive)
REMARK    1  A    between atoms: C_1  and  C_2
REMARK    2  A    between atoms: N_6  and  C_7
REMARK    3  A    between atoms: C_7  and  C_8
REMARK    4  A    between atoms: C_8  and  C_9
REMARK    5  A    between atoms: C_19  and  S_20
REMARK                            x       y       z     vdW  Elec       q    Type
REMARK                         _______ _______ _______ _____ _____    ______ ____
ROOT
ATOM      1  C   UNL     1       2.597   8.046  18.328  0.00  0.00    +0.000 A 
ATOM      2  N   UNL     1       1.994   7.382  19.389  0.00  0.00    +0.000 NA
ATOM      3  C   UNL     1       2.451   6.144  19.263  0.00  0.00    +0.000 A 
ATOM      4  C   UNL     1       2.158   4.851  19.874  0.00  0.00    +0.000 A 
ATOM      5  C   UNL     1       2.215   4.572  21.234  0.00  0.00    +0.000 A 
ATOM      6  C   UNL     1       2.070   3.247  21.671  0.00  0.00    +0.000 A 
ATOM      7  C   UNL     1       1.719   2.235  20.768  0.00  0.00    +0.000 A 
ATOM      8  C   UNL     1       1.717   2.502  19.408  0.00  0.00    +0.000 A 
ATOM      9  C   UNL     1       2.118   3.759  18.970  0.00  0.00    +0.000 A 
ATOM     10  N   UNL     1       2.911   3.788  17.791  0.00  0.00    +0.000 NA
ATOM     11  C   UNL     1       3.569   4.882  17.523  0.00  0.00    +0.000 A 
ATOM     12  N   UNL     1       3.250   6.082  18.162  0.00  0.00    +0.000 N 
ATOM     13  N   UNL     1       3.497   7.304  17.659  0.00  0.00    +0.000 NA
ENDROOT
BRANCH  11  14
ATOM     14  S   UNL     1       4.951   4.786  16.460  0.00  0.00    +0.000 S 
ATOM     15  H   UNL     1       4.339   5.444  15.457  0.00  0.00    +0.000 HD
ENDBRANCH  11  14
BRANCH   1  16
ATOM     16  C   UNL     1       2.201   9.367  17.742  0.00  0.00    +0.000 C 
BRANCH  16  17
ATOM     17  C   UNL     1       0.844   9.935  18.122  0.00  0.00    +0.000 C 
BRANCH  17  23
ATOM     18  C   UNL     1      -0.039   9.885  21.159  0.00  0.00    +0.000 C 
ATOM     19  C   UNL     1       0.604  11.006  20.441  0.00  0.00    +0.000 A 
ATOM     20  C   UNL     1       0.961  12.260  20.908  0.00  0.00    +0.000 A 
ATOM     21  N   UNL     1       1.530  13.011  19.916  0.00  0.00    +0.000 NA
ATOM     22  C   UNL     1       1.537  12.228  18.861  0.00  0.00    +0.000 A 
ATOM     23  N   UNL     1       0.976  11.011  19.111  0.00  0.00    +0.000 N 
ENDBRANCH  17  23
ENDBRANCH  16  17
ENDBRANCH   1  16
TORSDOF 4
ENDMDL
MODEL 7
REMARK VINA RESULT:      -7.1      4.015      6.348
REMARK  Name = 
REMARK  5 active torsions:
REMARK  status: ('A' for Active; 'I' for Inactive)
REMARK    1  A    between atoms: C_1  and  C_2
REMARK    2  A    between atoms: N_6  and  C_7
REMARK    3  A    between atoms: C_7  and  C_8
REMARK    4  A    between atoms: C_8  and  C_9
REMARK    5  A    between atoms: C_19  and  S_20
REMARK                            x       y       z     vdW  Elec       q    Type
REMARK                         _______ _______ _______ _____ _____    ______ ____
ROOT
ATOM      1  C   UNL     1       2.430   8.303  18.394  0.00  0.00    +0.000 A 
ATOM      2  N   UNL     1       1.842   7.579  19.423  0.00  0.00    +0.000 NA
ATOM      3  C   UNL     1       2.363   6.370  19.272  0.00  0.00    +0.000 A 
ATOM      4  C   UNL     1       2.124   5.047  19.841  0.00  0.00    +0.000 A 
ATOM      5  C   UNL     1       2.170   4.731  21.193  0.00  0.00    +0.000 A 
ATOM      6  C   UNL     1       2.084   3.388  21.590  0.00  0.00    +0.000 A 
ATOM      7  C   UNL     1       1.801   2.387  20.652  0.00  0.00    +0.000 A 
ATOM      8  C   UNL     1       1.811   2.693  19.300  0.00  0.00    +0.000 A 
ATOM      9  C   UNL     1       2.156   3.981  18.905  0.00  0.00    +0.000 A 
ATOM     10  N   UNL     1       2.968   4.083  17.744  0.00  0.00    +0.000 NA
ATOM     11  C   UNL     1       3.575   5.216  17.520  0.00  0.00    +0.000 A 
ATOM     12  N   UNL     1       3.184   6.380  18.186  0.00  0.00    +0.000 N 
ATOM     13  N   UNL     1       3.378   7.627  17.723  0.00  0.00    +0.000 NA
ENDROOT
BRANCH  11  14
ATOM     14  S   UNL     1       4.979   5.220  16.483  0.00  0.00    +0.000 S 
ATOM     15  H   UNL     1       5.799   4.740  17.437  0.00  0.00    +0.000 HD
ENDBRANCH  11  14
BRANCH   1  16
ATOM     16  C   UNL     1       1.979   9.619  17.838  0.00  0.00    +0.000 C 
BRANCH  16  17
ATOM     17  C   UNL     1       1.254  10.574  18.771  0.00  0.00    +0.000 C 
BRANCH  17  23
ATOM     18  C   UNL     1      -0.439  13.241  18.938  0.00  0.00    +0.000 C 
ATOM     19  C   UNL     1      -0.887  11.939  18.403  0.00  0.00    +0.000 A 
ATOM     20  C   UNL     1      -2.114  11.584  17.865  0.00  0.00    +0.000 A 
ATOM     21  N   UNL     1      -2.125  10.269  17.489  0.00  0.00    +0.000 NA
ATOM     22  C   UNL     1      -0.922   9.825  17.776  0.00  0.00    +0.000 A 
ATOM     23  N   UNL     1      -0.135  10.781  18.345  0.00  0.00    +0.000 N 
ENDBRANCH  17  23
ENDBRANCH  16  17
ENDBRANCH   1  16
TORSDOF 4
ENDMDL
MODEL 8
REMARK VINA RESULT:      -7.0      3.763      6.583
REMARK  Name = 
REMARK  5 active torsions:
REMARK  status: ('A' for Active; 'I' for Inactive)
REMARK    1  A    between atoms: C_1  and  C_2
REMARK    2  A    between atoms: N_6  and  C_7
REMARK    3  A    between atoms: C_7  and  C_8
REMARK    4  A    between atoms: C_8  and  C_9
REMARK    5  A    between atoms: C_19  and  S_20
REMARK                            x       y       z     vdW  Elec       q    Type
REMARK                         _______ _______ _______ _____ _____    ______ ____
ROOT
ATOM      1  C   UNL     1       2.389   7.240  19.110  0.00  0.00    +0.000 A 
ATOM      2  N   UNL     1       3.250   7.459  18.043  0.00  0.00    +0.000 NA
ATOM      3  C   UNL     1       3.891   6.303  17.937  0.00  0.00    +0.000 A 
ATOM      4  C   UNL     1       5.041   5.807  17.186  0.00  0.00    +0.000 A 
ATOM      5  C   UNL     1       5.170   5.831  15.803  0.00  0.00    +0.000 A 
ATOM      6  C   UNL     1       6.252   5.172  15.201  0.00  0.00    +0.000 A 
ATOM      7  C   UNL     1       7.276   4.625  15.985  0.00  0.00    +0.000 A 
ATOM      8  C   UNL     1       7.120   4.551  17.360  0.00  0.00    +0.000 A 
ATOM      9  C   UNL     1       5.921   4.976  17.924  0.00  0.00    +0.000 A 
ATOM     10  N   UNL     1       5.419   4.188  18.995  0.00  0.00    +0.000 NA
ATOM     11  C   UNL     1       4.171   4.346  19.338  0.00  0.00    +0.000 A 
ATOM     12  N   UNL     1       3.451   5.467  18.917  0.00  0.00    +0.000 N 
ATOM     13  N   UNL     1       2.383   5.973  19.558  0.00  0.00    +0.000 NA
ENDROOT
BRANCH  11  14
ATOM     14  S   UNL     1       3.375   3.060  20.209  0.00  0.00    +0.000 S 
ATOM     15  H   UNL     1       4.472   2.742  20.923  0.00  0.00    +0.000 HD
ENDBRANCH  11  14
BRANCH   1  16
ATOM     16  C   UNL     1       1.668   8.275  19.920  0.00  0.00    +0.000 C 
BRANCH  16  17
ATOM     17  C   UNL     1       0.968   9.399  19.175  0.00  0.00    +0.000 C 
BRANCH  17  23
ATOM     18  C   UNL     1       2.106  12.253  18.422  0.00  0.00    +0.000 C 
ATOM     19  C   UNL     1       1.405  11.878  19.668  0.00  0.00    +0.000 A 
ATOM     20  C   UNL     1       1.089  12.660  20.768  0.00  0.00    +0.000 A 
ATOM     21  N   UNL     1       0.438  11.926  21.722  0.00  0.00    +0.000 NA
ATOM     22  C   UNL     1       0.340  10.719  21.213  0.00  0.00    +0.000 A 
ATOM     23  N   UNL     1       0.921  10.623  19.983  0.00  0.00    +0.000 N 
ENDBRANCH  17  23
ENDBRANCH  16  17
ENDBRANCH   1  16
TORSDOF 4
ENDMDL
MODEL 9
REMARK VINA RESULT:      -7.0      3.784      6.156
REMARK  Name = 
REMARK  5 active torsions:
REMARK  status: ('A' for Active; 'I' for Inactive)
REMARK    1  A    between atoms: C_1  and  C_2
REMARK    2  A    between atoms: N_6  and  C_7
REMARK    3  A    between atoms: C_7  and  C_8
REMARK    4  A    between atoms: C_8  and  C_9
REMARK    5  A    between atoms: C_19  and  S_20
REMARK                            x       y       z     vdW  Elec       q    Type
REMARK                         _______ _______ _______ _____ _____    ______ ____
ROOT
ATOM      1  C   UNL     1       2.500   8.121  18.471  0.00  0.00    +0.000 A 
ATOM      2  N   UNL     1       1.921   7.405  19.511  0.00  0.00    +0.000 NA
ATOM      3  C   UNL     1       2.404   6.184  19.336  0.00  0.00    +0.000 A 
ATOM      4  C   UNL     1       2.144   4.863  19.902  0.00  0.00    +0.000 A 
ATOM      5  C   UNL     1       2.218   4.535  21.250  0.00  0.00    +0.000 A 
ATOM      6  C   UNL     1       2.106   3.192  21.639  0.00  0.00    +0.000 A 
ATOM      7  C   UNL     1       1.770   2.206  20.702  0.00  0.00    +0.000 A 
ATOM      8  C   UNL     1       1.751   2.523  19.353  0.00  0.00    +0.000 A 
ATOM      9  C   UNL     1       2.121   3.804  18.958  0.00  0.00    +0.000 A 
ATOM     10  N   UNL     1       2.904   3.894  17.776  0.00  0.00    +0.000 NA
ATOM     11  C   UNL     1       3.535   5.011  17.543  0.00  0.00    +0.000 A 
ATOM     12  N   UNL     1       3.195   6.180  18.229  0.00  0.00    +0.000 N 
ATOM     13  N   UNL     1       3.411   7.424  17.769  0.00  0.00    +0.000 NA
ENDROOT
BRANCH  11  14
ATOM     14  S   UNL     1       4.910   4.985  16.468  0.00  0.00    +0.000 S 
ATOM     15  H   UNL     1       4.636   3.752  16.001  0.00  0.00    +0.000 HD
ENDBRANCH  11  14
BRANCH   1  16
ATOM     16  C   UNL     1       2.071   9.454  17.938  0.00  0.00    +0.000 C 
BRANCH  16  17
ATOM     17  C   UNL     1       0.581   9.723  17.815  0.00  0.00    +0.000 C 
BRANCH  17  23
ATOM     18  C   UNL     1      -2.352  10.820  18.270  0.00  0.00    +0.000 C 
ATOM     19  C   UNL     1      -1.173  11.058  19.129  0.00  0.00    +0.000 A 
ATOM     20  C   UNL     1      -1.072  11.794  20.298  0.00  0.00    +0.000 A 
ATOM     21  N   UNL     1       0.207  11.771  20.785  0.00  0.00    +0.000 NA
ATOM     22  C   UNL     1       0.878  11.021  19.940  0.00  0.00    +0.000 A 
ATOM     23  N   UNL     1       0.103  10.576  18.910  0.00  0.00    +0.000 N 
ENDBRANCH  17  23
ENDBRANCH  16  17
ENDBRANCH   1  16
TORSDOF 4
ENDMDL
