MODEL 1
REMARK VINA RESULT:      -5.9      0.000      0.000
REMARK  Name = 
REMARK  14 active torsions:
REMARK  status: ('A' for Active; 'I' for Inactive)
REMARK    1  A    between atoms: C_1  and  C_2
REMARK    2  A    between atoms: C_2  and  C_4
REMARK    3  A    between atoms: C_5  and  O_6
REMARK    4  A    between atoms: C_7  and  C_8
REMARK    5  A    between atoms: C_10  and  C_11
REMARK    6  A    between atoms: C_11  and  O_12
REMARK    7  A    between atoms: C_13  and  O_14
REMARK    8  A    between atoms: C_15  and  O_16
REMARK    9  A    between atoms: C_17  and  O_18
REMARK   10  A    between atoms: C_19  and  O_20
REMARK   11  A    between atoms: C_27  and  C_28
REMARK   12  A    between atoms: C_28  and  O_29
REMARK   13  A    between atoms: C_30  and  O_31
REMARK   14  A    between atoms: C_32  and  O_33
REMARK                            x       y       z     vdW  Elec       q    Type
REMARK                         _______ _______ _______ _____ _____    ______ ____
ROOT
ATOM      1  C   UNL     1       6.121  14.384  21.575  0.00  0.00    +0.000 A 
ATOM      2  C   UNL     1       5.836  13.912  22.872  0.00  0.00    +0.000 A 
ATOM      3  C   UNL     1       6.776  13.168  23.636  0.00  0.00    +0.000 A 
ATOM      4  C   UNL     1       7.981  12.825  23.012  0.00  0.00    +0.000 A 
ATOM      5  C   UNL     1       8.257  13.289  21.745  0.00  0.00    +0.000 A 
ATOM      6  C   UNL     1       7.358  14.065  21.038  0.00  0.00    +0.000 A 
ATOM      7  O   UNL     1       7.803  14.393  19.790  0.00  0.00    +0.000 OA
ATOM      8  C   UNL     1       9.176  13.916  19.708  0.00  0.00    +0.000 C 
ATOM      9  C   UNL     1       9.463  13.028  20.927  0.00  0.00    +0.000 C 
ATOM     10  O   UNL     1       9.290  13.102  18.532  0.00  0.00    +0.000 OA
ATOM     11  C   UNL     1      10.339  13.592  17.683  0.00  0.00    +0.000 C 
ATOM     12  C   UNL     1      10.969  14.825  18.343  0.00  0.00    +0.000 C 
ATOM     13  C   UNL     1      10.087  15.145  19.540  0.00  0.00    +0.000 C 
ENDROOT
BRANCH   3  14
ATOM     14  C   UNL     1       6.455  12.806  25.074  0.00  0.00    +0.000 C 
ATOM     15  O   UNL     1       5.386  11.828  25.089  0.00  0.00    +0.000 OA
ATOM     16  C   UNL     1       5.198  11.261  26.399  0.00  0.00    +0.000 C 
ATOM     17  C   UNL     1       4.731  12.348  27.374  0.00  0.00    +0.000 C 
ATOM     18  C   UNL     1       5.729  13.517  27.372  0.00  0.00    +0.000 C 
ATOM     19  C   UNL     1       6.045  14.014  25.946  0.00  0.00    +0.000 C 
BRANCH  17  20
ATOM     20  O   UNL     1       4.598  11.784  28.683  0.00  0.00    +0.000 OA
ATOM     21  H   UNL     1       5.330  11.159  28.830  0.00  0.00    +0.000 HD
ENDBRANCH  17  20
BRANCH  18  22
ATOM     22  O   UNL     1       5.225  14.570  28.203  0.00  0.00    +0.000 OA
ATOM     23  H   UNL     1       4.453  14.966  27.760  0.00  0.00    +0.000 HD
ENDBRANCH  18  22
BRANCH  19  24
ATOM     24  O   UNL     1       7.050  15.027  26.034  0.00  0.00    +0.000 OA
ATOM     25  H   UNL     1       7.176  15.414  25.147  0.00  0.00    +0.000 HD
ENDBRANCH  19  24
BRANCH  16  26
ATOM     26  C   UNL     1       4.186  10.109  26.306  0.00  0.00    +0.000 C 
BRANCH  26  27
ATOM     27  O   UNL     1       4.056   9.649  24.965  0.00  0.00    +0.000 OA
ATOM     28  H   UNL     1       4.321   8.714  24.966  0.00  0.00    +0.000 HD
ENDBRANCH  26  27
ENDBRANCH  16  26
ENDBRANCH   3  14
BRANCH   1  30
ATOM     29  C   UNL     1       5.311  16.696  20.704  0.00  0.00    +0.000 C 
ATOM     30  C   UNL     1       5.112  15.210  20.843  0.00  0.00    +0.000 C 
ATOM     31  O   UNL     1       4.094  14.651  20.458  0.00  0.00    +0.000 OA
ENDBRANCH   1  30
BRANCH   2  32
ATOM     32  O   UNL     1       4.610  14.143  23.462  0.00  0.00    +0.000 OA
ATOM     33  H   UNL     1       4.221  14.935  23.018  0.00  0.00    +0.000 HD
ENDBRANCH   2  32
BRANCH   4  34
ATOM     34  O   UNL     1       8.926  12.017  23.585  0.00  0.00    +0.000 OA
ATOM     35  H   UNL     1       9.559  12.598  24.045  0.00  0.00    +0.000 HD
ENDBRANCH   4  34
BRANCH  12  36
ATOM     36  O   UNL     1      12.333  14.688  18.753  0.00  0.00    +0.000 OA
ATOM     37  H   UNL     1      12.901  15.213  18.151  0.00  0.00    +0.000 HD
ENDBRANCH  12  36
BRANCH  13  38
ATOM     38  O   UNL     1      10.846  15.481  20.707  0.00  0.00    +0.000 OA
ATOM     39  H   UNL     1      10.697  16.427  20.877  0.00  0.00    +0.000 HD
ENDBRANCH  13  38
BRANCH  11  40
ATOM     40  C   UNL     1      11.304  12.429  17.447  0.00  0.00    +0.000 C 
BRANCH  40  41
ATOM     41  O   UNL     1      12.318  12.849  16.525  0.00  0.00    +0.000 OA
ATOM     42  H   UNL     1      12.996  13.295  17.070  0.00  0.00    +0.000 HD
ENDBRANCH  40  41
ENDBRANCH  11  40
TORSDOF 13
ENDMDL
MODEL 2
REMARK VINA RESULT:      -5.9      6.727      9.826
REMARK  Name = 
REMARK  14 active torsions:
REMARK  status: ('A' for Active; 'I' for Inactive)
REMARK    1  A    between atoms: C_1  and  C_2
REMARK    2  A    between atoms: C_2  and  C_4
REMARK    3  A    between atoms: C_5  and  O_6
REMARK    4  A    between atoms: C_7  and  C_8
REMARK    5  A    between atoms: C_10  and  C_11
REMARK    6  A    between atoms: C_11  and  O_12
REMARK    7  A    between atoms: C_13  and  O_14
REMARK    8  A    between atoms: C_15  and  O_16
REMARK    9  A    between atoms: C_17  and  O_18
REMARK   10  A    between atoms: C_19  and  O_20
REMARK   11  A    between atoms: C_27  and  C_28
REMARK   12  A    between atoms: C_28  and  O_29
REMARK   13  A    between atoms: C_30  and  O_31
REMARK   14  A    between atoms: C_32  and  O_33
REMARK                            x       y       z     vdW  Elec       q    Type
REMARK                         _______ _______ _______ _____ _____    ______ ____
ROOT
ATOM      1  C   UNL     1       1.209   9.435  21.244  0.00  0.00    +0.000 A 
ATOM      2  C   UNL     1       1.496   8.261  20.518  0.00  0.00    +0.000 A 
ATOM      3  C   UNL     1       1.778   8.277  19.124  0.00  0.00    +0.000 A 
ATOM      4  C   UNL     1       1.661   9.503  18.460  0.00  0.00    +0.000 A 
ATOM      5  C   UNL     1       1.382  10.649  19.173  0.00  0.00    +0.000 A 
ATOM      6  C   UNL     1       1.171  10.627  20.539  0.00  0.00    +0.000 A 
ATOM      7  O   UNL     1       0.873  11.856  21.052  0.00  0.00    +0.000 OA
ATOM      8  C   UNL     1       1.038  12.805  19.960  0.00  0.00    +0.000 C 
ATOM      9  C   UNL     1       1.213  12.023  18.650  0.00  0.00    +0.000 C 
ATOM     10  O   UNL     1      -0.170  13.572  19.857  0.00  0.00    +0.000 OA
ATOM     11  C   UNL     1       0.119  14.976  19.951  0.00  0.00    +0.000 C 
ATOM     12  C   UNL     1       1.631  15.155  20.131  0.00  0.00    +0.000 C 
ATOM     13  C   UNL     1       2.188  13.755  20.336  0.00  0.00    +0.000 C 
ENDROOT
BRANCH   3  14
ATOM     14  C   UNL     1       2.209   6.998  18.432  0.00  0.00    +0.000 C 
ATOM     15  O   UNL     1       1.751   5.862  19.205  0.00  0.00    +0.000 OA
ATOM     16  C   UNL     1       1.911   4.625  18.486  0.00  0.00    +0.000 C 
ATOM     17  C   UNL     1       3.401   4.348  18.254  0.00  0.00    +0.000 C 
ATOM     18  C   UNL     1       4.049   5.541  17.532  0.00  0.00    +0.000 C 
ATOM     19  C   UNL     1       3.737   6.883  18.225  0.00  0.00    +0.000 C 
BRANCH  17  20
ATOM     20  O   UNL     1       3.545   3.144  17.493  0.00  0.00    +0.000 OA
ATOM     21  H   UNL     1       4.123   2.532  17.982  0.00  0.00    +0.000 HD
ENDBRANCH  17  20
BRANCH  18  22
ATOM     22  O   UNL     1       5.460   5.315  17.419  0.00  0.00    +0.000 OA
ATOM     23  H   UNL     1       5.923   6.084  17.799  0.00  0.00    +0.000 HD
ENDBRANCH  18  22
BRANCH  19  24
ATOM     24  O   UNL     1       4.292   7.938  17.436  0.00  0.00    +0.000 OA
ATOM     25  H   UNL     1       3.559   8.470  17.073  0.00  0.00    +0.000 HD
ENDBRANCH  19  24
BRANCH  16  26
ATOM     26  C   UNL     1       1.240   3.494  19.279  0.00  0.00    +0.000 C 
BRANCH  26  27
ATOM     27  O   UNL     1       0.678   3.983  20.492  0.00  0.00    +0.000 OA
ATOM     28  H   UNL     1      -0.192   4.353  20.265  0.00  0.00    +0.000 HD
ENDBRANCH  26  27
ENDBRANCH  16  26
ENDBRANCH   3  14
BRANCH   1  30
ATOM     29  C   UNL     1      -0.423   9.470  23.268  0.00  0.00    +0.000 C 
ATOM     30  C   UNL     1       0.976   9.360  22.719  0.00  0.00    +0.000 C 
ATOM     31  O   UNL     1       1.958   9.307  23.446  0.00  0.00    +0.000 OA
ENDBRANCH   1  30
BRANCH   2  32
ATOM     32  O   UNL     1       1.505   7.026  21.133  0.00  0.00    +0.000 OA
ATOM     33  H   UNL     1       1.705   6.358  20.433  0.00  0.00    +0.000 HD
ENDBRANCH   2  32
BRANCH   4  34
ATOM     34  O   UNL     1       1.790   9.645  17.105  0.00  0.00    +0.000 OA
ATOM     35  H   UNL     1       0.944   9.998  16.772  0.00  0.00    +0.000 HD
ENDBRANCH   4  34
BRANCH  12  36
ATOM     36  O   UNL     1       2.316  15.809  19.058  0.00  0.00    +0.000 OA
ATOM     37  H   UNL     1       2.823  15.141  18.549  0.00  0.00    +0.000 HD
ENDBRANCH  12  36
BRANCH  13  38
ATOM     38  O   UNL     1       3.400  13.533  19.607  0.00  0.00    +0.000 OA
ATOM     39  H   UNL     1       3.343  12.638  19.231  0.00  0.00    +0.000 HD
ENDBRANCH  13  38
BRANCH  11  40
ATOM     40  C   UNL     1      -0.460  15.636  18.699  0.00  0.00    +0.000 C 
BRANCH  40  41
ATOM     41  O   UNL     1      -0.317  17.057  18.817  0.00  0.00    +0.000 OA
ATOM     42  H   UNL     1       0.101  17.347  17.982  0.00  0.00    +0.000 HD
ENDBRANCH  40  41
ENDBRANCH  11  40
TORSDOF 13
ENDMDL
MODEL 3
REMARK VINA RESULT:      -5.8      3.253      6.036
REMARK  Name = 
REMARK  14 active torsions:
REMARK  status: ('A' for Active; 'I' for Inactive)
REMARK    1  A    between atoms: C_1  and  C_2
REMARK    2  A    between atoms: C_2  and  C_4
REMARK    3  A    between atoms: C_5  and  O_6
REMARK    4  A    between atoms: C_7  and  C_8
REMARK    5  A    between atoms: C_10  and  C_11
REMARK    6  A    between atoms: C_11  and  O_12
REMARK    7  A    between atoms: C_13  and  O_14
REMARK    8  A    between atoms: C_15  and  O_16
REMARK    9  A    between atoms: C_17  and  O_18
REMARK   10  A    between atoms: C_19  and  O_20
REMARK   11  A    between atoms: C_27  and  C_28
REMARK   12  A    between atoms: C_28  and  O_29
REMARK   13  A    between atoms: C_30  and  O_31
REMARK   14  A    between atoms: C_32  and  O_33
REMARK                            x       y       z     vdW  Elec       q    Type
REMARK                         _______ _______ _______ _____ _____    ______ ____
ROOT
ATOM      1  C   UNL     1       5.657  14.780  21.586  0.00  0.00    +0.000 A 
ATOM      2  C   UNL     1       4.271  14.616  21.388  0.00  0.00    +0.000 A 
ATOM      3  C   UNL     1       3.693  14.512  20.092  0.00  0.00    +0.000 A 
ATOM      4  C   UNL     1       4.545  14.680  18.995  0.00  0.00    +0.000 A 
ATOM      5  C   UNL     1       5.899  14.838  19.192  0.00  0.00    +0.000 A 
ATOM      6  C   UNL     1       6.455  14.875  20.457  0.00  0.00    +0.000 A 
ATOM      7  O   UNL     1       7.805  15.074  20.441  0.00  0.00    +0.000 OA
ATOM      8  C   UNL     1       8.208  15.024  19.042  0.00  0.00    +0.000 C 
ATOM      9  C   UNL     1       6.947  15.035  18.166  0.00  0.00    +0.000 C 
ATOM     10  O   UNL     1       8.955  16.215  18.756  0.00  0.00    +0.000 OA
ATOM     11  C   UNL     1      10.247  15.881  18.227  0.00  0.00    +0.000 C 
ATOM     12  C   UNL     1      10.370  14.354  18.158  0.00  0.00    +0.000 C 
ATOM     13  C   UNL     1       9.139  13.812  18.868  0.00  0.00    +0.000 C 
ENDROOT
BRANCH   3  14
ATOM     14  C   UNL     1       2.214  14.204  19.954  0.00  0.00    +0.000 C 
ATOM     15  O   UNL     1       2.052  12.986  19.186  0.00  0.00    +0.000 OA
ATOM     16  C   UNL     1       0.697  12.505  19.225  0.00  0.00    +0.000 C 
ATOM     17  C   UNL     1      -0.233  13.512  18.537  0.00  0.00    +0.000 C 
ATOM     18  C   UNL     1      -0.076  14.896  19.187  0.00  0.00    +0.000 C 
ATOM     19  C   UNL     1       1.399  15.333  19.284  0.00  0.00    +0.000 C 
BRANCH  17  20
ATOM     20  O   UNL     1      -1.584  13.048  18.628  0.00  0.00    +0.000 OA
ATOM     21  H   UNL     1      -2.169  13.814  18.763  0.00  0.00    +0.000 HD
ENDBRANCH  17  20
BRANCH  18  22
ATOM     22  O   UNL     1      -0.867  15.849  18.465  0.00  0.00    +0.000 OA
ATOM     23  H   UNL     1      -1.030  16.614  19.047  0.00  0.00    +0.000 HD
ENDBRANCH  18  22
BRANCH  19  24
ATOM     24  O   UNL     1       1.456  16.578  19.986  0.00  0.00    +0.000 OA
ATOM     25  H   UNL     1       1.927  16.435  20.829  0.00  0.00    +0.000 HD
ENDBRANCH  19  24
BRANCH  16  26
ATOM     26  C   UNL     1       0.635  11.125  18.553  0.00  0.00    +0.000 C 
BRANCH  26  27
ATOM     27  O   UNL     1       1.815  10.870  17.799  0.00  0.00    +0.000 OA
ATOM     28  H   UNL     1       1.574  10.218  17.119  0.00  0.00    +0.000 HD
ENDBRANCH  26  27
ENDBRANCH  16  26
ENDBRANCH   3  14
BRANCH   1  30
ATOM     29  C   UNL     1       6.935  13.632  23.538  0.00  0.00    +0.000 C 
ATOM     30  C   UNL     1       6.211  14.827  22.974  0.00  0.00    +0.000 C 
ATOM     31  O   UNL     1       5.970  15.819  23.647  0.00  0.00    +0.000 OA
ENDBRANCH   1  30
BRANCH   2  32
ATOM     32  O   UNL     1       3.399  14.562  22.456  0.00  0.00    +0.000 OA
ATOM     33  H   UNL     1       3.352  13.618  22.742  0.00  0.00    +0.000 HD
ENDBRANCH   2  32
BRANCH   4  34
ATOM     34  O   UNL     1       4.109  14.719  17.699  0.00  0.00    +0.000 OA
ATOM     35  H   UNL     1       4.598  15.436  17.253  0.00  0.00    +0.000 HD
ENDBRANCH   4  34
BRANCH  12  36
ATOM     36  O   UNL     1      10.473  13.793  16.845  0.00  0.00    +0.000 OA
ATOM     37  H   UNL     1       9.603  13.865  16.399  0.00  0.00    +0.000 HD
ENDBRANCH  12  36
BRANCH  13  38
ATOM     38  O   UNL     1       8.547  12.707  18.175  0.00  0.00    +0.000 OA
ATOM     39  H   UNL     1       7.593  12.887  18.122  0.00  0.00    +0.000 HD
ENDBRANCH  13  38
BRANCH  11  40
ATOM     40  C   UNL     1      10.378  16.596  16.882  0.00  0.00    +0.000 C 
BRANCH  40  41
ATOM     41  O   UNL     1      11.667  16.304  16.327  0.00  0.00    +0.000 OA
ATOM     42  H   UNL     1      11.541  15.499  15.786  0.00  0.00    +0.000 HD
ENDBRANCH  40  41
ENDBRANCH  11  40
TORSDOF 13
ENDMDL
MODEL 4
REMARK VINA RESULT:      -5.8      3.649      6.533
REMARK  Name = 
REMARK  14 active torsions:
REMARK  status: ('A' for Active; 'I' for Inactive)
REMARK    1  A    between atoms: C_1  and  C_2
REMARK    2  A    between atoms: C_2  and  C_4
REMARK    3  A    between atoms: C_5  and  O_6
REMARK    4  A    between atoms: C_7  and  C_8
REMARK    5  A    between atoms: C_10  and  C_11
REMARK    6  A    between atoms: C_11  and  O_12
REMARK    7  A    between atoms: C_13  and  O_14
REMARK    8  A    between atoms: C_15  and  O_16
REMARK    9  A    between atoms: C_17  and  O_18
REMARK   10  A    between atoms: C_19  and  O_20
REMARK   11  A    between atoms: C_27  and  C_28
REMARK   12  A    between atoms: C_28  and  O_29
REMARK   13  A    between atoms: C_30  and  O_31
REMARK   14  A    between atoms: C_32  and  O_33
REMARK                            x       y       z     vdW  Elec       q    Type
REMARK                         _______ _______ _______ _____ _____    ______ ____
ROOT
ATOM      1  C   UNL     1       5.159  14.557  21.033  0.00  0.00    +0.000 A 
ATOM      2  C   UNL     1       3.820  14.341  20.651  0.00  0.00    +0.000 A 
ATOM      3  C   UNL     1       3.371  14.512  19.313  0.00  0.00    +0.000 A 
ATOM      4  C   UNL     1       4.294  15.009  18.386  0.00  0.00    +0.000 A 
ATOM      5  C   UNL     1       5.603  15.218  18.762  0.00  0.00    +0.000 A 
ATOM      6  C   UNL     1       6.039  14.987  20.053  0.00  0.00    +0.000 A 
ATOM      7  O   UNL     1       7.359  15.287  20.231  0.00  0.00    +0.000 OA
ATOM      8  C   UNL     1       7.885  15.612  18.913  0.00  0.00    +0.000 C 
ATOM      9  C   UNL     1       6.711  15.740  17.932  0.00  0.00    +0.000 C 
ATOM     10  O   UNL     1       8.530  16.891  18.999  0.00  0.00    +0.000 OA
ATOM     11  C   UNL     1       9.891  16.798  18.551  0.00  0.00    +0.000 C 
ATOM     12  C   UNL     1      10.173  15.348  18.137  0.00  0.00    +0.000 C 
ATOM     13  C   UNL     1       8.946  14.555  18.561  0.00  0.00    +0.000 C 
ENDROOT
BRANCH   3  14
ATOM     14  C   UNL     1       1.948  14.134  18.945  0.00  0.00    +0.000 C 
ATOM     15  O   UNL     1       1.055  14.563  20.001  0.00  0.00    +0.000 OA
ATOM     16  C   UNL     1      -0.326  14.458  19.610  0.00  0.00    +0.000 C 
ATOM     17  C   UNL     1      -0.691  12.986  19.381  0.00  0.00    +0.000 C 
ATOM     18  C   UNL     1       0.266  12.365  18.351  0.00  0.00    +0.000 C 
ATOM     19  C   UNL     1       1.747  12.622  18.698  0.00  0.00    +0.000 C 
BRANCH  17  20
ATOM     20  O   UNL     1      -2.050  12.898  18.942  0.00  0.00    +0.000 OA
ATOM     21  H   UNL     1      -2.540  12.323  19.555  0.00  0.00    +0.000 HD
ENDBRANCH  17  20
BRANCH  18  22
ATOM     22  O   UNL     1      -0.016  10.965  18.229  0.00  0.00    +0.000 OA
ATOM     23  H   UNL     1       0.810  10.472  18.385  0.00  0.00    +0.000 HD
ENDBRANCH  18  22
BRANCH  19  24
ATOM     24  O   UNL     1       2.556  12.098  17.642  0.00  0.00    +0.000 OA
ATOM     25  H   UNL     1       1.977  11.890  16.885  0.00  0.00    +0.000 HD
ENDBRANCH  19  24
BRANCH  16  26
ATOM     26  C   UNL     1      -1.205  15.098  20.695  0.00  0.00    +0.000 C 
BRANCH  26  27
ATOM     27  O   UNL     1      -2.400  15.634  20.136  0.00  0.00    +0.000 OA
ATOM     28  H   UNL     1      -2.521  15.200  19.275  0.00  0.00    +0.000 HD
ENDBRANCH  26  27
ENDBRANCH  16  26
ENDBRANCH   3  14
BRANCH   1  30
ATOM     29  C   UNL     1       6.486  13.144  22.765  0.00  0.00    +0.000 C 
ATOM     30  C   UNL     1       5.582  14.305  22.444  0.00  0.00    +0.000 C 
ATOM     31  O   UNL     1       5.094  15.009  23.317  0.00  0.00    +0.000 OA
ENDBRANCH   1  30
BRANCH   2  32
ATOM     32  O   UNL     1       2.868  13.959  21.575  0.00  0.00    +0.000 OA
ATOM     33  H   UNL     1       2.459  13.125  21.239  0.00  0.00    +0.000 HD
ENDBRANCH   2  32
BRANCH   4  34
ATOM     34  O   UNL     1       3.972  15.331  17.095  0.00  0.00    +0.000 OA
ATOM     35  H   UNL     1       4.550  16.070  16.831  0.00  0.00    +0.000 HD
ENDBRANCH   4  34
BRANCH  12  36
ATOM     36  O   UNL     1      10.447  15.135  16.749  0.00  0.00    +0.000 OA
ATOM     37  H   UNL     1      11.355  15.446  16.552  0.00  0.00    +0.000 HD
ENDBRANCH  12  36
BRANCH  13  38
ATOM     38  O   UNL     1       8.531  13.611  17.566  0.00  0.00    +0.000 OA
ATOM     39  H   UNL     1       7.626  13.340  17.795  0.00  0.00    +0.000 HD
ENDBRANCH  13  38
BRANCH  11  40
ATOM     40  C   UNL     1      10.066  17.828  17.435  0.00  0.00    +0.000 C 
BRANCH  40  41
ATOM     41  O   UNL     1      11.454  17.896  17.082  0.00  0.00    +0.000 OA
ATOM     42  H   UNL     1      11.917  17.337  17.739  0.00  0.00    +0.000 HD
ENDBRANCH  40  41
ENDBRANCH  11  40
TORSDOF 13
ENDMDL
MODEL 5
REMARK VINA RESULT:      -5.7      3.115      5.989
REMARK  Name = 
REMARK  14 active torsions:
REMARK  status: ('A' for Active; 'I' for Inactive)
REMARK    1  A    between atoms: C_1  and  C_2
REMARK    2  A    between atoms: C_2  and  C_4
REMARK    3  A    between atoms: C_5  and  O_6
REMARK    4  A    between atoms: C_7  and  C_8
REMARK    5  A    between atoms: C_10  and  C_11
REMARK    6  A    between atoms: C_11  and  O_12
REMARK    7  A    between atoms: C_13  and  O_14
REMARK    8  A    between atoms: C_15  and  O_16
REMARK    9  A    between atoms: C_17  and  O_18
REMARK   10  A    between atoms: C_19  and  O_20
REMARK   11  A    between atoms: C_27  and  C_28
REMARK   12  A    between atoms: C_28  and  O_29
REMARK   13  A    between atoms: C_30  and  O_31
REMARK   14  A    between atoms: C_32  and  O_33
REMARK                            x       y       z     vdW  Elec       q    Type
REMARK                         _______ _______ _______ _____ _____    ______ ____
ROOT
ATOM      1  C   UNL     1       5.929  14.501  21.153  0.00  0.00    +0.000 A 
ATOM      2  C   UNL     1       4.547  14.522  20.875  0.00  0.00    +0.000 A 
ATOM      3  C   UNL     1       4.037  14.697  19.559  0.00  0.00    +0.000 A 
ATOM      4  C   UNL     1       4.963  14.954  18.542  0.00  0.00    +0.000 A 
ATOM      5  C   UNL     1       6.313  14.931  18.817  0.00  0.00    +0.000 A 
ATOM      6  C   UNL     1       6.796  14.697  20.091  0.00  0.00    +0.000 A 
ATOM      7  O   UNL     1       8.158  14.751  20.162  0.00  0.00    +0.000 OA
ATOM      8  C   UNL     1       8.633  14.892  18.793  0.00  0.00    +0.000 C 
ATOM      9  C   UNL     1       7.432  15.184  17.882  0.00  0.00    +0.000 C 
ATOM     10  O   UNL     1       9.509  16.028  18.746  0.00  0.00    +0.000 OA
ATOM     11  C   UNL     1      10.790  15.651  18.219  0.00  0.00    +0.000 C 
ATOM     12  C   UNL     1      10.766  14.152  17.894  0.00  0.00    +0.000 C 
ATOM     13  C   UNL     1       9.449  13.633  18.451  0.00  0.00    +0.000 C 
ENDROOT
BRANCH   3  14
ATOM     14  C   UNL     1       2.545  14.576  19.311  0.00  0.00    +0.000 C 
ATOM     15  O   UNL     1       1.837  14.815  20.551  0.00  0.00    +0.000 OA
ATOM     16  C   UNL     1       0.420  14.958  20.340  0.00  0.00    +0.000 C 
ATOM     17  C   UNL     1      -0.163  13.639  19.820  0.00  0.00    +0.000 C 
ATOM     18  C   UNL     1       0.585  13.201  18.550  0.00  0.00    +0.000 C 
ATOM     19  C   UNL     1       2.115  13.205  18.741  0.00  0.00    +0.000 C 
BRANCH  17  20
ATOM     20  O   UNL     1      -1.561  13.808  19.563  0.00  0.00    +0.000 OA
ATOM     21  H   UNL     1      -1.977  14.205  20.348  0.00  0.00    +0.000 HD
ENDBRANCH  17  20
BRANCH  18  22
ATOM     22  O   UNL     1       0.103  11.915  18.138  0.00  0.00    +0.000 OA
ATOM     23  H   UNL     1       0.684  11.586  17.428  0.00  0.00    +0.000 HD
ENDBRANCH  18  22
BRANCH  19  24
ATOM     24  O   UNL     1       2.727  12.884  17.490  0.00  0.00    +0.000 OA
ATOM     25  H   UNL     1       3.668  12.682  17.650  0.00  0.00    +0.000 HD
ENDBRANCH  19  24
BRANCH  16  26
ATOM     26  C   UNL     1      -0.242  15.391  21.657  0.00  0.00    +0.000 C 
BRANCH  26  27
ATOM     27  O   UNL     1       0.617  15.148  22.765  0.00  0.00    +0.000 OA
ATOM     28  H   UNL     1       0.928  14.231  22.679  0.00  0.00    +0.000 HD
ENDBRANCH  26  27
ENDBRANCH  16  26
ENDBRANCH   3  14
BRANCH   1  30
ATOM     29  C   UNL     1       7.058  15.367  23.329  0.00  0.00    +0.000 C 
ATOM     30  C   UNL     1       6.404  14.257  22.549  0.00  0.00    +0.000 C 
ATOM     31  O   UNL     1       6.329  13.115  22.983  0.00  0.00    +0.000 OA
ENDBRANCH   1  30
BRANCH   2  32
ATOM     32  O   UNL     1       3.614  14.384  21.882  0.00  0.00    +0.000 OA
ATOM     33  H   UNL     1       2.738  14.633  21.500  0.00  0.00    +0.000 HD
ENDBRANCH   2  32
BRANCH   4  34
ATOM     34  O   UNL     1       4.608  15.255  17.254  0.00  0.00    +0.000 OA
ATOM     35  H   UNL     1       4.053  16.056  17.290  0.00  0.00    +0.000 HD
ENDBRANCH   4  34
BRANCH  12  36
ATOM     36  O   UNL     1      10.889  13.810  16.510  0.00  0.00    +0.000 OA
ATOM     37  H   UNL     1      10.719  14.609  15.968  0.00  0.00    +0.000 HD
ENDBRANCH  12  36
BRANCH  13  38
ATOM     38  O   UNL     1       8.791  12.730  17.555  0.00  0.00    +0.000 OA
ATOM     39  H   UNL     1       8.561  13.239  16.760  0.00  0.00    +0.000 HD
ENDBRANCH  13  38
BRANCH  11  40
ATOM     40  C   UNL     1      11.069  16.561  17.023  0.00  0.00    +0.000 C 
BRANCH  40  41
ATOM     41  O   UNL     1      10.063  16.336  16.027  0.00  0.00    +0.000 OA
ATOM     42  H   UNL     1      10.324  15.507  15.577  0.00  0.00    +0.000 HD
ENDBRANCH  40  41
ENDBRANCH  11  40
TORSDOF 13
ENDMDL
MODEL 6
REMARK VINA RESULT:      -5.7      2.941      5.767
REMARK  Name = 
REMARK  14 active torsions:
REMARK  status: ('A' for Active; 'I' for Inactive)
REMARK    1  A    between atoms: C_1  and  C_2
REMARK    2  A    between atoms: C_2  and  C_4
REMARK    3  A    between atoms: C_5  and  O_6
REMARK    4  A    between atoms: C_7  and  C_8
REMARK    5  A    between atoms: C_10  and  C_11
REMARK    6  A    between atoms: C_11  and  O_12
REMARK    7  A    between atoms: C_13  and  O_14
REMARK    8  A    between atoms: C_15  and  O_16
REMARK    9  A    between atoms: C_17  and  O_18
REMARK   10  A    between atoms: C_19  and  O_20
REMARK   11  A    between atoms: C_27  and  C_28
REMARK   12  A    between atoms: C_28  and  O_29
REMARK   13  A    between atoms: C_30  and  O_31
REMARK   14  A    between atoms: C_32  and  O_33
REMARK                            x       y       z     vdW  Elec       q    Type
REMARK                         _______ _______ _______ _____ _____    ______ ____
ROOT
ATOM      1  C   UNL     1       6.797  14.261  21.588  0.00  0.00    +0.000 A 
ATOM      2  C   UNL     1       5.399  14.443  21.551  0.00  0.00    +0.000 A 
ATOM      3  C   UNL     1       4.717  14.866  20.377  0.00  0.00    +0.000 A 
ATOM      4  C   UNL     1       5.499  15.201  19.266  0.00  0.00    +0.000 A 
ATOM      5  C   UNL     1       6.865  15.021  19.306  0.00  0.00    +0.000 A 
ATOM      6  C   UNL     1       7.508  14.549  20.434  0.00  0.00    +0.000 A 
ATOM      7  O   UNL     1       8.862  14.475  20.284  0.00  0.00    +0.000 OA
ATOM      8  C   UNL     1       9.136  14.789  18.889  0.00  0.00    +0.000 C 
ATOM      9  C   UNL     1       7.849  15.322  18.243  0.00  0.00    +0.000 C 
ATOM     10  O   UNL     1      10.113  15.840  18.858  0.00  0.00    +0.000 OA
ATOM     11  C   UNL     1      11.250  15.443  18.076  0.00  0.00    +0.000 C 
ATOM     12  C   UNL     1      11.013  14.022  17.549  0.00  0.00    +0.000 C 
ATOM     13  C   UNL     1       9.747  13.536  18.240  0.00  0.00    +0.000 C 
ENDROOT
BRANCH   3  14
ATOM     14  C   UNL     1       3.201  14.913  20.368  0.00  0.00    +0.000 C 
ATOM     15  O   UNL     1       2.699  13.880  19.484  0.00  0.00    +0.000 OA
ATOM     16  C   UNL     1       1.277  13.708  19.616  0.00  0.00    +0.000 C 
ATOM     17  C   UNL     1       0.554  14.980  19.157  0.00  0.00    +0.000 C 
ATOM     18  C   UNL     1       1.079  16.192  19.944  0.00  0.00    +0.000 C 
ATOM     19  C   UNL     1       2.619  16.276  19.929  0.00  0.00    +0.000 C 
BRANCH  17  20
ATOM     20  O   UNL     1      -0.856  14.816  19.342  0.00  0.00    +0.000 OA
ATOM     21  H   UNL     1      -1.052  13.867  19.428  0.00  0.00    +0.000 HD
ENDBRANCH  17  20
BRANCH  18  22
ATOM     22  O   UNL     1       0.476  17.386  19.431  0.00  0.00    +0.000 OA
ATOM     23  H   UNL     1       0.921  18.152  19.837  0.00  0.00    +0.000 HD
ENDBRANCH  18  22
BRANCH  19  24
ATOM     24  O   UNL     1       3.020  17.367  20.762  0.00  0.00    +0.000 OA
ATOM     25  H   UNL     1       2.282  17.584  21.362  0.00  0.00    +0.000 HD
ENDBRANCH  19  24
BRANCH  16  26
ATOM     26  C   UNL     1       0.842  12.482  18.797  0.00  0.00    +0.000 C 
BRANCH  26  27
ATOM     27  O   UNL     1       0.024  12.866  17.697  0.00  0.00    +0.000 OA
ATOM     28  H   UNL     1      -0.574  13.560  18.025  0.00  0.00    +0.000 HD
ENDBRANCH  26  27
ENDBRANCH  16  26
ENDBRANCH   3  14
BRANCH   1  30
ATOM     29  C   UNL     1       7.945  12.340  22.911  0.00  0.00    +0.000 C 
ATOM     30  C   UNL     1       7.450  13.760  22.836  0.00  0.00    +0.000 C 
ATOM     31  O   UNL     1       7.475  14.509  23.803  0.00  0.00    +0.000 OA
ENDBRANCH   1  30
BRANCH   2  32
ATOM     32  O   UNL     1       4.622  14.227  22.670  0.00  0.00    +0.000 OA
ATOM     33  H   UNL     1       5.046  14.719  23.415  0.00  0.00    +0.000 HD
ENDBRANCH   2  32
BRANCH   4  34
ATOM     34  O   UNL     1       4.987  15.730  18.113  0.00  0.00    +0.000 OA
ATOM     35  H   UNL     1       5.276  16.661  18.071  0.00  0.00    +0.000 HD
ENDBRANCH   4  34
BRANCH  12  36
ATOM     36  O   UNL     1      10.885  13.894  16.130  0.00  0.00    +0.000 OA
ATOM     37  H   UNL     1      10.208  14.528  15.812  0.00  0.00    +0.000 HD
ENDBRANCH  12  36
BRANCH  13  38
ATOM     38  O   UNL     1       8.867  12.844  17.347  0.00  0.00    +0.000 OA
ATOM     39  H   UNL     1       8.623  13.474  16.648  0.00  0.00    +0.000 HD
ENDBRANCH  13  38
BRANCH  11  40
ATOM     40  C   UNL     1      11.440  16.504  16.992  0.00  0.00    +0.000 C 
BRANCH  40  41
ATOM     41  O   UNL     1      10.277  16.524  16.155  0.00  0.00    +0.000 OA
ATOM     42  H   UNL     1       9.978  15.594  16.103  0.00  0.00    +0.000 HD
ENDBRANCH  40  41
ENDBRANCH  11  40
TORSDOF 13
ENDMDL
MODEL 7
REMARK VINA RESULT:      -5.7      6.992     11.818
REMARK  Name = 
REMARK  14 active torsions:
REMARK  status: ('A' for Active; 'I' for Inactive)
REMARK    1  A    between atoms: C_1  and  C_2
REMARK    2  A    between atoms: C_2  and  C_4
REMARK    3  A    between atoms: C_5  and  O_6
REMARK    4  A    between atoms: C_7  and  C_8
REMARK    5  A    between atoms: C_10  and  C_11
REMARK    6  A    between atoms: C_11  and  O_12
REMARK    7  A    between atoms: C_13  and  O_14
REMARK    8  A    between atoms: C_15  and  O_16
REMARK    9  A    between atoms: C_17  and  O_18
REMARK   10  A    between atoms: C_19  and  O_20
REMARK   11  A    between atoms: C_27  and  C_28
REMARK   12  A    between atoms: C_28  and  O_29
REMARK   13  A    between atoms: C_30  and  O_31
REMARK   14  A    between atoms: C_32  and  O_33
REMARK                            x       y       z     vdW  Elec       q    Type
REMARK                         _______ _______ _______ _____ _____    ______ ____
ROOT
ATOM      1  C   UNL     1      -0.525  11.707  21.860  0.00  0.00    +0.000 A 
ATOM      2  C   UNL     1       0.539  12.386  21.233  0.00  0.00    +0.000 A 
ATOM      3  C   UNL     1       0.408  13.713  20.735  0.00  0.00    +0.000 A 
ATOM      4  C   UNL     1      -0.861  14.298  20.797  0.00  0.00    +0.000 A 
ATOM      5  C   UNL     1      -1.899  13.631  21.411  0.00  0.00    +0.000 A 
ATOM      6  C   UNL     1      -1.740  12.367  21.946  0.00  0.00    +0.000 A 
ATOM      7  O   UNL     1      -2.893  11.865  22.478  0.00  0.00    +0.000 OA
ATOM      8  C   UNL     1      -3.871  12.941  22.420  0.00  0.00    +0.000 C 
ATOM      9  C   UNL     1      -3.300  14.082  21.565  0.00  0.00    +0.000 C 
ATOM     10  O   UNL     1      -5.042  12.439  21.760  0.00  0.00    +0.000 OA
ATOM     11  C   UNL     1      -6.200  12.616  22.589  0.00  0.00    +0.000 C 
ATOM     12  C   UNL     1      -5.768  13.285  23.900  0.00  0.00    +0.000 C 
ATOM     13  C   UNL     1      -4.248  13.307  23.867  0.00  0.00    +0.000 C 
ENDROOT
BRANCH   3  14
ATOM     14  C   UNL     1       1.628  14.433  20.193  0.00  0.00    +0.000 C 
ATOM     15  O   UNL     1       1.504  15.850  20.468  0.00  0.00    +0.000 OA
ATOM     16  C   UNL     1       2.729  16.556  20.202  0.00  0.00    +0.000 C 
ATOM     17  C   UNL     1       3.054  16.488  18.705  0.00  0.00    +0.000 C 
ATOM     18  C   UNL     1       3.104  15.022  18.247  0.00  0.00    +0.000 C 
ATOM     19  C   UNL     1       1.851  14.232  18.677  0.00  0.00    +0.000 C 
BRANCH  17  20
ATOM     20  O   UNL     1       4.301  17.148  18.461  0.00  0.00    +0.000 OA
ATOM     21  H   UNL     1       4.129  17.969  17.968  0.00  0.00    +0.000 HD
ENDBRANCH  17  20
BRANCH  18  22
ATOM     22  O   UNL     1       3.300  14.977  16.827  0.00  0.00    +0.000 OA
ATOM     23  H   UNL     1       3.016  14.101  16.508  0.00  0.00    +0.000 HD
ENDBRANCH  18  22
BRANCH  19  24
ATOM     24  O   UNL     1       2.028  12.864  18.298  0.00  0.00    +0.000 OA
ATOM     25  H   UNL     1       2.973  12.640  18.385  0.00  0.00    +0.000 HD
ENDBRANCH  19  24
BRANCH  16  26
ATOM     26  C   UNL     1       2.587  18.007  20.687  0.00  0.00    +0.000 C 
BRANCH  26  27
ATOM     27  O   UNL     1       3.860  18.631  20.814  0.00  0.00    +0.000 OA
ATOM     28  H   UNL     1       4.004  18.775  21.765  0.00  0.00    +0.000 HD
ENDBRANCH  26  27
ENDBRANCH  16  26
ENDBRANCH   3  14
BRANCH   1  30
ATOM     29  C   UNL     1      -0.455   9.130  21.520  0.00  0.00    +0.000 C 
ATOM     30  C   UNL     1      -0.310  10.334  22.413  0.00  0.00    +0.000 C 
ATOM     31  O   UNL     1      -0.114  10.232  23.616  0.00  0.00    +0.000 OA
ENDBRANCH   1  30
BRANCH   2  32
ATOM     32  O   UNL     1       1.768  11.784  21.061  0.00  0.00    +0.000 OA
ATOM     33  H   UNL     1       1.954  11.781  20.091  0.00  0.00    +0.000 HD
ENDBRANCH   2  32
BRANCH   4  34
ATOM     34  O   UNL     1      -1.158  15.518  20.253  0.00  0.00    +0.000 OA
ATOM     35  H   UNL     1      -1.751  15.975  20.879  0.00  0.00    +0.000 HD
ENDBRANCH   4  34
BRANCH  12  36
ATOM     36  O   UNL     1      -6.279  14.602  24.129  0.00  0.00    +0.000 OA
ATOM     37  H   UNL     1      -7.259  14.565  24.145  0.00  0.00    +0.000 HD
ENDBRANCH  12  36
BRANCH  13  38
ATOM     38  O   UNL     1      -3.707  14.554  24.320  0.00  0.00    +0.000 OA
ATOM     39  H   UNL     1      -4.326  14.904  24.983  0.00  0.00    +0.000 HD
ENDBRANCH  13  38
BRANCH  11  40
ATOM     40  C   UNL     1      -7.220  13.409  21.771  0.00  0.00    +0.000 C 
BRANCH  40  41
ATOM     41  O   UNL     1      -6.647  14.675  21.421  0.00  0.00    +0.000 OA
ATOM     42  H   UNL     1      -7.091  14.940  20.590  0.00  0.00    +0.000 HD
ENDBRANCH  40  41
ENDBRANCH  11  40
TORSDOF 13
ENDMDL
MODEL 8
REMARK VINA RESULT:      -5.5      1.730      7.934
REMARK  Name = 
REMARK  14 active torsions:
REMARK  status: ('A' for Active; 'I' for Inactive)
REMARK    1  A    between atoms: C_1  and  C_2
REMARK    2  A    between atoms: C_2  and  C_4
REMARK    3  A    between atoms: C_5  and  O_6
REMARK    4  A    between atoms: C_7  and  C_8
REMARK    5  A    between atoms: C_10  and  C_11
REMARK    6  A    between atoms: C_11  and  O_12
REMARK    7  A    between atoms: C_13  and  O_14
REMARK    8  A    between atoms: C_15  and  O_16
REMARK    9  A    between atoms: C_17  and  O_18
REMARK   10  A    between atoms: C_19  and  O_20
REMARK   11  A    between atoms: C_27  and  C_28
REMARK   12  A    between atoms: C_28  and  O_29
REMARK   13  A    between atoms: C_30  and  O_31
REMARK   14  A    between atoms: C_32  and  O_33
REMARK                            x       y       z     vdW  Elec       q    Type
REMARK                         _______ _______ _______ _____ _____    ______ ____
ROOT
ATOM      1  C   UNL     1       5.594  14.608  21.636  0.00  0.00    +0.000 A 
ATOM      2  C   UNL     1       6.366  14.691  20.459  0.00  0.00    +0.000 A 
ATOM      3  C   UNL     1       7.751  14.368  20.432  0.00  0.00    +0.000 A 
ATOM      4  C   UNL     1       8.360  14.056  21.652  0.00  0.00    +0.000 A 
ATOM      5  C   UNL     1       7.603  13.974  22.800  0.00  0.00    +0.000 A 
ATOM      6  C   UNL     1       6.245  14.231  22.800  0.00  0.00    +0.000 A 
ATOM      7  O   UNL     1       5.684  14.132  24.040  0.00  0.00    +0.000 OA
ATOM      8  C   UNL     1       6.728  13.628  24.921  0.00  0.00    +0.000 C 
ATOM      9  C   UNL     1       8.067  13.668  24.171  0.00  0.00    +0.000 C 
ATOM     10  O   UNL     1       6.824  14.517  26.043  0.00  0.00    +0.000 OA
ATOM     11  C   UNL     1       6.660  13.792  27.272  0.00  0.00    +0.000 C 
ATOM     12  C   UNL     1       6.437  12.311  26.942  0.00  0.00    +0.000 C 
ATOM     13  C   UNL     1       6.282  12.246  25.430  0.00  0.00    +0.000 C 
ENDROOT
BRANCH   3  14
ATOM     14  C   UNL     1       8.489  14.350  19.107  0.00  0.00    +0.000 C 
ATOM     15  O   UNL     1       9.372  13.202  19.071  0.00  0.00    +0.000 OA
ATOM     16  C   UNL     1       9.917  12.987  17.756  0.00  0.00    +0.000 C 
ATOM     17  C   UNL     1      10.815  14.167  17.366  0.00  0.00    +0.000 C 
ATOM     18  C   UNL     1      10.026  15.482  17.473  0.00  0.00    +0.000 C 
ATOM     19  C   UNL     1       9.314  15.628  18.832  0.00  0.00    +0.000 C 
BRANCH  17  20
ATOM     20  O   UNL     1      11.309  13.967  16.038  0.00  0.00    +0.000 OA
ATOM     21  H   UNL     1      10.555  13.948  15.423  0.00  0.00    +0.000 HD
ENDBRANCH  17  20
BRANCH  18  22
ATOM     22  O   UNL     1      10.906  16.583  17.211  0.00  0.00    +0.000 OA
ATOM     23  H   UNL     1      11.009  17.093  18.035  0.00  0.00    +0.000 HD
ENDBRANCH  18  22
BRANCH  19  24
ATOM     24  O   UNL     1       8.530  16.823  18.805  0.00  0.00    +0.000 OA
ATOM     25  H   UNL     1       7.591  16.579  18.911  0.00  0.00    +0.000 HD
ENDBRANCH  19  24
BRANCH  16  26
ATOM     26  C   UNL     1      10.689  11.658  17.745  0.00  0.00    +0.000 C 
BRANCH  26  27
ATOM     27  O   UNL     1      12.085  11.879  17.578  0.00  0.00    +0.000 OA
ATOM     28  H   UNL     1      12.536  11.280  18.197  0.00  0.00    +0.000 HD
ENDBRANCH  26  27
ENDBRANCH  16  26
ENDBRANCH   3  14
BRANCH   1  30
ATOM     29  C   UNL     1       3.647  16.330  21.687  0.00  0.00    +0.000 C 
ATOM     30  C   UNL     1       4.130  14.907  21.590  0.00  0.00    +0.000 C 
ATOM     31  O   UNL     1       3.358  13.958  21.570  0.00  0.00    +0.000 OA
ENDBRANCH   1  30
BRANCH   2  32
ATOM     32  O   UNL     1       5.807  15.106  19.268  0.00  0.00    +0.000 OA
ATOM     33  H   UNL     1       6.433  14.846  18.550  0.00  0.00    +0.000 HD
ENDBRANCH   2  32
BRANCH   4  34
ATOM     34  O   UNL     1       9.704  13.838  21.791  0.00  0.00    +0.000 OA
ATOM     35  H   UNL     1       9.994  14.330  22.582  0.00  0.00    +0.000 HD
ENDBRANCH   4  34
BRANCH  12  36
ATOM     36  O   UNL     1       7.463  11.411  27.375  0.00  0.00    +0.000 OA
ATOM     37  H   UNL     1       7.287  10.523  26.998  0.00  0.00    +0.000 HD
ENDBRANCH  12  36
BRANCH  13  38
ATOM     38  O   UNL     1       6.993  11.146  24.851  0.00  0.00    +0.000 OA
ATOM     39  H   UNL     1       7.511  10.739  25.566  0.00  0.00    +0.000 HD
ENDBRANCH  13  38
BRANCH  11  40
ATOM     40  C   UNL     1       7.894  14.078  28.128  0.00  0.00    +0.000 C 
BRANCH  40  41
ATOM     41  O   UNL     1       8.615  15.173  27.549  0.00  0.00    +0.000 OA
ATOM     42  H   UNL     1       8.466  15.930  28.150  0.00  0.00    +0.000 HD
ENDBRANCH  40  41
ENDBRANCH  11  40
TORSDOF 13
ENDMDL
MODEL 9
REMARK VINA RESULT:      -5.5      8.803     12.523
REMARK  Name = 
REMARK  14 active torsions:
REMARK  status: ('A' for Active; 'I' for Inactive)
REMARK    1  A    between atoms: C_1  and  C_2
REMARK    2  A    between atoms: C_2  and  C_4
REMARK    3  A    between atoms: C_5  and  O_6
REMARK    4  A    between atoms: C_7  and  C_8
REMARK    5  A    between atoms: C_10  and  C_11
REMARK    6  A    between atoms: C_11  and  O_12
REMARK    7  A    between atoms: C_13  and  O_14
REMARK    8  A    between atoms: C_15  and  O_16
REMARK    9  A    between atoms: C_17  and  O_18
REMARK   10  A    between atoms: C_19  and  O_20
REMARK   11  A    between atoms: C_27  and  C_28
REMARK   12  A    between atoms: C_28  and  O_29
REMARK   13  A    between atoms: C_30  and  O_31
REMARK   14  A    between atoms: C_32  and  O_33
REMARK                            x       y       z     vdW  Elec       q    Type
REMARK                         _______ _______ _______ _____ _____    ______ ____
ROOT
ATOM      1  C   UNL     1      -4.775  12.857  19.691  0.00  0.00    +0.000 A 
ATOM      2  C   UNL     1      -3.755  11.939  19.365  0.00  0.00    +0.000 A 
ATOM      3  C   UNL     1      -2.500  11.926  20.034  0.00  0.00    +0.000 A 
ATOM      4  C   UNL     1      -2.264  12.934  20.974  0.00  0.00    +0.000 A 
ATOM      5  C   UNL     1      -3.263  13.828  21.292  0.00  0.00    +0.000 A 
ATOM      6  C   UNL     1      -4.501  13.790  20.677  0.00  0.00    +0.000 A 
ATOM      7  O   UNL     1      -5.338  14.780  21.103  0.00  0.00    +0.000 OA
ATOM      8  C   UNL     1      -4.652  15.451  22.198  0.00  0.00    +0.000 C 
ATOM      9  C   UNL     1      -3.199  14.957  22.247  0.00  0.00    +0.000 C 
ATOM     10  O   UNL     1      -4.630  16.857  21.910  0.00  0.00    +0.000 OA
ATOM     11  C   UNL     1      -5.218  17.599  22.989  0.00  0.00    +0.000 C 
ATOM     12  C   UNL     1      -5.666  16.614  24.076  0.00  0.00    +0.000 C 
ATOM     13  C   UNL     1      -5.482  15.229  23.475  0.00  0.00    +0.000 C 
ENDROOT
BRANCH   3  14
ATOM     14  C   UNL     1      -1.499  10.828  19.726  0.00  0.00    +0.000 C 
ATOM     15  O   UNL     1      -0.794  10.474  20.941  0.00  0.00    +0.000 OA
ATOM     16  C   UNL     1      -0.010   9.279  20.775  0.00  0.00    +0.000 C 
ATOM     17  C   UNL     1       1.104   9.526  19.751  0.00  0.00    +0.000 C 
ATOM     18  C   UNL     1       0.498  10.024  18.429  0.00  0.00    +0.000 C 
ATOM     19  C   UNL     1      -0.468  11.208  18.639  0.00  0.00    +0.000 C 
BRANCH  17  20
ATOM     20  O   UNL     1       1.844   8.316  19.556  0.00  0.00    +0.000 OA
ATOM     21  H   UNL     1       2.784   8.540  19.441  0.00  0.00    +0.000 HD
ENDBRANCH  17  20
BRANCH  18  22
ATOM     22  O   UNL     1       1.555  10.354  17.519  0.00  0.00    +0.000 OA
ATOM     23  H   UNL     1       1.381  11.243  17.159  0.00  0.00    +0.000 HD
ENDBRANCH  18  22
BRANCH  19  24
ATOM     24  O   UNL     1      -1.057  11.539  17.378  0.00  0.00    +0.000 OA
ATOM     25  H   UNL     1      -0.423  12.085  16.876  0.00  0.00    +0.000 HD
ENDBRANCH  19  24
BRANCH  16  26
ATOM     26  C   UNL     1       0.558   8.858  22.140  0.00  0.00    +0.000 C 
BRANCH  26  27
ATOM     27  O   UNL     1       1.810   9.488  22.390  0.00  0.00    +0.000 OA
ATOM     28  H   UNL     1       2.484   8.788  22.354  0.00  0.00    +0.000 HD
ENDBRANCH  26  27
ENDBRANCH  16  26
ENDBRANCH   3  14
BRANCH   1  30
ATOM     29  C   UNL     1      -7.258  12.089  19.645  0.00  0.00    +0.000 C 
ATOM     30  C   UNL     1      -6.094  12.785  18.990  0.00  0.00    +0.000 C 
ATOM     31  O   UNL     1      -6.154  13.220  17.849  0.00  0.00    +0.000 OA
ENDBRANCH   1  30
BRANCH   2  32
ATOM     32  O   UNL     1      -3.927  11.009  18.361  0.00  0.00    +0.000 OA
ATOM     33  H   UNL     1      -4.165  11.508  17.543  0.00  0.00    +0.000 HD
ENDBRANCH   2  32
BRANCH   4  34
ATOM     34  O   UNL     1      -1.064  13.112  21.608  0.00  0.00    +0.000 OA
ATOM     35  H   UNL     1      -0.543  12.300  21.468  0.00  0.00    +0.000 HD
ENDBRANCH   4  34
BRANCH  12  36
ATOM     36  O   UNL     1      -4.978  16.707  25.328  0.00  0.00    +0.000 OA
ATOM     37  H   UNL     1      -5.537  17.202  25.963  0.00  0.00    +0.000 HD
ENDBRANCH  12  36
BRANCH  13  38
ATOM     38  O   UNL     1      -4.905  14.301  24.400  0.00  0.00    +0.000 OA
ATOM     39  H   UNL     1      -4.399  13.658  23.875  0.00  0.00    +0.000 HD
ENDBRANCH  13  38
BRANCH  11  40
ATOM     40  C   UNL     1      -4.181  18.626  23.443  0.00  0.00    +0.000 C 
BRANCH  40  41
ATOM     41  O   UNL     1      -2.978  17.938  23.810  0.00  0.00    +0.000 OA
ATOM     42  H   UNL     1      -3.199  17.446  24.626  0.00  0.00    +0.000 HD
ENDBRANCH  40  41
ENDBRANCH  11  40
TORSDOF 13
ENDMDL
