MODEL 1
REMARK VINA RESULT:      -8.4      0.000      0.000
REMARK  Name = 
REMARK  4 active torsions:
REMARK  status: ('A' for Active; 'I' for Inactive)
REMARK    1  A    between atoms: C_2  and  C_3
REMARK    2  A    between atoms: C_5  and  C_6
REMARK    3  A    between atoms: C_6  and  O_7
REMARK    4  A    between atoms: O_7  and  C_8
REMARK                            x       y       z     vdW  Elec       q    Type
REMARK                         _______ _______ _______ _____ _____    ______ ____
ROOT
ATOM      1  C   UNL     1       7.019   6.100  17.761  0.00  0.00    +0.000 A 
ATOM      2  C   UNL     1       7.024   7.416  17.227  0.00  0.00    +0.000 A 
ATOM      3  C   UNL     1       7.927   8.121  17.986  0.00  0.00    +0.000 A 
ATOM      4  N   UNL     1       8.392   7.240  18.914  0.00  0.00    +0.000 N 
ATOM      5  N   UNL     1       7.873   6.010  18.803  0.00  0.00    +0.000 NA
ATOM      6  H   UNL     1       9.099   7.393  19.630  0.00  0.00    +0.000 HD
ENDROOT
BRANCH   1   8
ATOM      7  O   UNL     1       6.839   4.204  16.391  0.00  0.00    +0.000 OA
ATOM      8  C   UNL     1       6.288   4.941  17.215  0.00  0.00    +0.000 C 
ATOM      9  N   UNL     1       4.988   4.695  17.661  0.00  0.00    +0.000 N 
ATOM     10  C   UNL     1       4.320   3.453  17.271  0.00  0.00    +0.000 C 
ATOM     11  C   UNL     1       3.831   2.662  18.487  0.00  0.00    +0.000 C 
ATOM     12  S   UNL     1       2.637   3.611  19.494  0.00  0.00    +0.000 S 
ATOM     13  C   UNL     1       3.639   5.125  19.714  0.00  0.00    +0.000 C 
ATOM     14  C   UNL     1       4.149   5.661  18.378  0.00  0.00    +0.000 C 
ENDBRANCH   1   8
BRANCH   3  15
ATOM     15  C   UNL     1       8.426   9.513  17.903  0.00  0.00    +0.000 C 
BRANCH  15  16
ATOM     16  O   UNL     1       9.090   9.771  19.134  0.00  0.00    +0.000 OA
BRANCH  16  17
ATOM     17  C   UNL     1       9.896  10.879  19.184  0.00  0.00    +0.000 A 
ATOM     18  C   UNL     1      10.339  11.521  20.356  0.00  0.00    +0.000 A 
ATOM     19  C   UNL     1      11.171  12.645  20.284  0.00  0.00    +0.000 A 
ATOM     20  C   UNL     1      11.532  13.102  19.036  0.00  0.00    +0.000 A 
ATOM     21  C   UNL     1      11.100  12.480  17.889  0.00  0.00    +0.000 A 
ATOM     22  C   UNL     1      10.284  11.370  17.930  0.00  0.00    +0.000 A 
ATOM     23  O   UNL     1      11.576  13.080  16.765  0.00  0.00    +0.000 OA
ATOM     24  C   UNL     1      12.318  14.177  17.336  0.00  0.00    +0.000 C 
ATOM     25  O   UNL     1      12.333  14.169  18.779  0.00  0.00    +0.000 OA
ENDBRANCH  16  17
ENDBRANCH  15  16
ENDBRANCH   3  15
TORSDOF 4
ENDMDL
MODEL 2
REMARK VINA RESULT:      -7.9      1.146      1.292
REMARK  Name = 
REMARK  4 active torsions:
REMARK  status: ('A' for Active; 'I' for Inactive)
REMARK    1  A    between atoms: C_2  and  C_3
REMARK    2  A    between atoms: C_5  and  C_6
REMARK    3  A    between atoms: C_6  and  O_7
REMARK    4  A    between atoms: O_7  and  C_8
REMARK                            x       y       z     vdW  Elec       q    Type
REMARK                         _______ _______ _______ _____ _____    ______ ____
ROOT
ATOM      1  C   UNL     1       6.357   5.763  17.036  0.00  0.00    +0.000 A 
ATOM      2  C   UNL     1       7.317   5.985  18.058  0.00  0.00    +0.000 A 
ATOM      3  C   UNL     1       7.684   7.304  17.942  0.00  0.00    +0.000 A 
ATOM      4  N   UNL     1       6.972   7.791  16.888  0.00  0.00    +0.000 N 
ATOM      5  N   UNL     1       6.155   6.893  16.323  0.00  0.00    +0.000 NA
ATOM      6  H   UNL     1       6.957   8.741  16.523  0.00  0.00    +0.000 HD
ENDROOT
BRANCH   1   8
ATOM      7  O   UNL     1       5.974   3.699  15.987  0.00  0.00    +0.000 OA
ATOM      8  C   UNL     1       5.584   4.525  16.820  0.00  0.00    +0.000 C 
ATOM      9  N   UNL     1       4.433   4.309  17.580  0.00  0.00    +0.000 N 
ATOM     10  C   UNL     1       3.762   3.010  17.510  0.00  0.00    +0.000 C 
ATOM     11  C   UNL     1       3.603   2.374  18.893  0.00  0.00    +0.000 C 
ATOM     12  S   UNL     1       2.618   3.419  20.024  0.00  0.00    +0.000 S 
ATOM     13  C   UNL     1       3.561   4.972  19.820  0.00  0.00    +0.000 C 
ATOM     14  C   UNL     1       3.727   5.340  18.347  0.00  0.00    +0.000 C 
ENDBRANCH   1   8
BRANCH   3  15
ATOM     15  C   UNL     1       8.595   8.158  18.738  0.00  0.00    +0.000 C 
BRANCH  15  16
ATOM     16  O   UNL     1       8.568   9.444  18.129  0.00  0.00    +0.000 OA
BRANCH  16  17
ATOM     17  C   UNL     1       9.308  10.429  18.729  0.00  0.00    +0.000 A 
ATOM     18  C   UNL     1       9.406  10.655  20.115  0.00  0.00    +0.000 A 
ATOM     19  C   UNL     1      10.203  11.692  20.616  0.00  0.00    +0.000 A 
ATOM     20  C   UNL     1      10.879  12.481  19.711  0.00  0.00    +0.000 A 
ATOM     21  C   UNL     1      10.784  12.266  18.358  0.00  0.00    +0.000 A 
ATOM     22  C   UNL     1      10.011  11.251  17.837  0.00  0.00    +0.000 A 
ATOM     23  O   UNL     1      11.533  13.147  17.641  0.00  0.00    +0.000 OA
ATOM     24  C   UNL     1      12.072  13.968  18.697  0.00  0.00    +0.000 C 
ATOM     25  O   UNL     1      11.697  13.522  20.018  0.00  0.00    +0.000 OA
ENDBRANCH  16  17
ENDBRANCH  15  16
ENDBRANCH   3  15
TORSDOF 4
ENDMDL
MODEL 3
REMARK VINA RESULT:      -7.6      1.792      2.517
REMARK  Name = 
REMARK  4 active torsions:
REMARK  status: ('A' for Active; 'I' for Inactive)
REMARK    1  A    between atoms: C_2  and  C_3
REMARK    2  A    between atoms: C_5  and  C_6
REMARK    3  A    between atoms: C_6  and  O_7
REMARK    4  A    between atoms: O_7  and  C_8
REMARK                            x       y       z     vdW  Elec       q    Type
REMARK                         _______ _______ _______ _____ _____    ______ ____
ROOT
ATOM      1  C   UNL     1       7.408   6.540  17.638  0.00  0.00    +0.000 A 
ATOM      2  C   UNL     1       7.514   7.894  17.223  0.00  0.00    +0.000 A 
ATOM      3  C   UNL     1       8.258   8.521  18.193  0.00  0.00    +0.000 A 
ATOM      4  N   UNL     1       8.541   7.562  19.117  0.00  0.00    +0.000 N 
ATOM      5  N   UNL     1       8.051   6.353  18.811  0.00  0.00    +0.000 NA
ATOM      6  H   UNL     1       9.100   7.646  19.962  0.00  0.00    +0.000 HD
ENDROOT
BRANCH   1   8
ATOM      7  O   UNL     1       7.508   4.681  16.210  0.00  0.00    +0.000 OA
ATOM      8  C   UNL     1       6.792   5.440  16.872  0.00  0.00    +0.000 C 
ATOM      9  N   UNL     1       5.407   5.273  16.930  0.00  0.00    +0.000 N 
ATOM     10  C   UNL     1       4.803   4.083  16.329  0.00  0.00    +0.000 C 
ATOM     11  C   UNL     1       3.947   3.308  17.334  0.00  0.00    +0.000 C 
ATOM     12  S   UNL     1       2.578   4.318  18.000  0.00  0.00    +0.000 S 
ATOM     13  C   UNL     1       3.565   5.759  18.539  0.00  0.00    +0.000 C 
ATOM     14  C   UNL     1       4.459   6.281  17.417  0.00  0.00    +0.000 C 
ENDBRANCH   1   8
BRANCH   3  15
ATOM     15  C   UNL     1       8.765   9.907  18.318  0.00  0.00    +0.000 C 
BRANCH  15  16
ATOM     16  O   UNL     1       9.529   9.944  19.518  0.00  0.00    +0.000 OA
BRANCH  16  17
ATOM     17  C   UNL     1       9.823  11.182  20.028  0.00  0.00    +0.000 A 
ATOM     18  C   UNL     1      10.835  12.043  19.564  0.00  0.00    +0.000 A 
ATOM     19  C   UNL     1      11.039  13.294  20.159  0.00  0.00    +0.000 A 
ATOM     20  C   UNL     1      10.224  13.647  21.213  0.00  0.00    +0.000 A 
ATOM     21  C   UNL     1       9.237  12.809  21.671  0.00  0.00    +0.000 A 
ATOM     22  C   UNL     1       9.011  11.575  21.101  0.00  0.00    +0.000 A 
ATOM     23  O   UNL     1       8.541  13.348  22.709  0.00  0.00    +0.000 OA
ATOM     24  C   UNL     1       9.236  14.601  22.879  0.00  0.00    +0.000 C 
ATOM     25  O   UNL     1      10.275  14.817  21.902  0.00  0.00    +0.000 OA
ENDBRANCH  16  17
ENDBRANCH  15  16
ENDBRANCH   3  15
TORSDOF 4
ENDMDL
MODEL 4
REMARK VINA RESULT:      -7.6      1.649      1.935
REMARK  Name = 
REMARK  4 active torsions:
REMARK  status: ('A' for Active; 'I' for Inactive)
REMARK    1  A    between atoms: C_2  and  C_3
REMARK    2  A    between atoms: C_5  and  C_6
REMARK    3  A    between atoms: C_6  and  O_7
REMARK    4  A    between atoms: O_7  and  C_8
REMARK                            x       y       z     vdW  Elec       q    Type
REMARK                         _______ _______ _______ _____ _____    ______ ____
ROOT
ATOM      1  C   UNL     1       7.485   6.964  17.591  0.00  0.00    +0.000 A 
ATOM      2  C   UNL     1       7.688   8.361  17.434  0.00  0.00    +0.000 A 
ATOM      3  C   UNL     1       8.457   8.746  18.507  0.00  0.00    +0.000 A 
ATOM      4  N   UNL     1       8.658   7.615  19.239  0.00  0.00    +0.000 N 
ATOM      5  N   UNL     1       8.093   6.520  18.712  0.00  0.00    +0.000 NA
ATOM      6  H   UNL     1       9.207   7.503  20.088  0.00  0.00    +0.000 HD
ENDROOT
BRANCH   1   8
ATOM      7  O   UNL     1       7.432   5.637  15.657  0.00  0.00    +0.000 OA
ATOM      8  C   UNL     1       6.809   6.070  16.632  0.00  0.00    +0.000 C 
ATOM      9  N   UNL     1       5.477   5.718  16.863  0.00  0.00    +0.000 N 
ATOM     10  C   UNL     1       4.852   4.691  16.028  0.00  0.00    +0.000 C 
ATOM     11  C   UNL     1       4.268   3.552  16.867  0.00  0.00    +0.000 C 
ATOM     12  S   UNL     1       2.988   4.139  18.032  0.00  0.00    +0.000 S 
ATOM     13  C   UNL     1       3.958   5.470  18.825  0.00  0.00    +0.000 C 
ATOM     14  C   UNL     1       4.575   6.409  17.791  0.00  0.00    +0.000 C 
ENDBRANCH   1   8
BRANCH   3  15
ATOM     15  C   UNL     1       9.053  10.046  18.889  0.00  0.00    +0.000 C 
BRANCH  15  16
ATOM     16  O   UNL     1       9.636  10.580  17.706  0.00  0.00    +0.000 OA
BRANCH  16  17
ATOM     17  C   UNL     1      10.116  11.861  17.774  0.00  0.00    +0.000 A 
ATOM     18  C   UNL     1      11.475  12.229  17.797  0.00  0.00    +0.000 A 
ATOM     19  C   UNL     1      11.850  13.577  17.859  0.00  0.00    +0.000 A 
ATOM     20  C   UNL     1      10.849  14.524  17.906  0.00  0.00    +0.000 A 
ATOM     21  C   UNL     1       9.522  14.169  17.888  0.00  0.00    +0.000 A 
ATOM     22  C   UNL     1       9.125  12.851  17.821  0.00  0.00    +0.000 A 
ATOM     23  O   UNL     1       8.698  15.250  17.931  0.00  0.00    +0.000 OA
ATOM     24  C   UNL     1       9.659  16.321  18.026  0.00  0.00    +0.000 C 
ATOM     25  O   UNL     1      11.028  15.870  17.963  0.00  0.00    +0.000 OA
ENDBRANCH  16  17
ENDBRANCH  15  16
ENDBRANCH   3  15
TORSDOF 4
ENDMDL
MODEL 5
REMARK VINA RESULT:      -7.5      7.121      9.998
REMARK  Name = 
REMARK  4 active torsions:
REMARK  status: ('A' for Active; 'I' for Inactive)
REMARK    1  A    between atoms: C_2  and  C_3
REMARK    2  A    between atoms: C_5  and  C_6
REMARK    3  A    between atoms: C_6  and  O_7
REMARK    4  A    between atoms: O_7  and  C_8
REMARK                            x       y       z     vdW  Elec       q    Type
REMARK                         _______ _______ _______ _____ _____    ______ ____
ROOT
ATOM      1  C   UNL     1       2.683   7.350  18.439  0.00  0.00    +0.000 A 
ATOM      2  C   UNL     1       2.244   8.523  17.770  0.00  0.00    +0.000 A 
ATOM      3  C   UNL     1       1.550   9.248  18.708  0.00  0.00    +0.000 A 
ATOM      4  N   UNL     1       1.584   8.502  19.847  0.00  0.00    +0.000 N 
ATOM      5  N   UNL     1       2.266   7.355  19.724  0.00  0.00    +0.000 NA
ATOM      6  H   UNL     1       1.203   8.730  20.762  0.00  0.00    +0.000 HD
ENDROOT
BRANCH   1   8
ATOM      7  O   UNL     1       4.719   6.594  17.553  0.00  0.00    +0.000 OA
ATOM      8  C   UNL     1       3.563   6.306  17.881  0.00  0.00    +0.000 C 
ATOM      9  N   UNL     1       3.069   5.007  17.754  0.00  0.00    +0.000 N 
ATOM     10  C   UNL     1       3.982   3.927  17.377  0.00  0.00    +0.000 C 
ATOM     11  C   UNL     1       3.959   2.780  18.390  0.00  0.00    +0.000 C 
ATOM     12  S   UNL     1       2.298   2.036  18.554  0.00  0.00    +0.000 S 
ATOM     13  C   UNL     1       1.361   3.574  18.871  0.00  0.00    +0.000 C 
ATOM     14  C   UNL     1       1.651   4.637  17.815  0.00  0.00    +0.000 C 
ENDBRANCH   1   8
BRANCH   3  15
ATOM     15  C   UNL     1       0.899  10.578  18.659  0.00  0.00    +0.000 C 
BRANCH  15  16
ATOM     16  O   UNL     1      -0.367  10.424  19.289  0.00  0.00    +0.000 OA
BRANCH  16  17
ATOM     17  C   UNL     1      -1.475  10.554  18.494  0.00  0.00    +0.000 A 
ATOM     18  C   UNL     1      -1.666   9.936  17.243  0.00  0.00    +0.000 A 
ATOM     19  C   UNL     1      -2.849  10.135  16.520  0.00  0.00    +0.000 A 
ATOM     20  C   UNL     1      -3.810  10.957  17.068  0.00  0.00    +0.000 A 
ATOM     21  C   UNL     1      -3.626  11.565  18.286  0.00  0.00    +0.000 A 
ATOM     22  C   UNL     1      -2.475  11.383  19.021  0.00  0.00    +0.000 A 
ATOM     23  O   UNL     1      -4.694  12.325  18.651  0.00  0.00    +0.000 OA
ATOM     24  C   UNL     1      -5.549  12.162  17.500  0.00  0.00    +0.000 C 
ATOM     25  O   UNL     1      -5.013  11.257  16.512  0.00  0.00    +0.000 OA
ENDBRANCH  16  17
ENDBRANCH  15  16
ENDBRANCH   3  15
TORSDOF 4
ENDMDL
MODEL 6
REMARK VINA RESULT:      -7.5      1.546      2.202
REMARK  Name = 
REMARK  4 active torsions:
REMARK  status: ('A' for Active; 'I' for Inactive)
REMARK    1  A    between atoms: C_2  and  C_3
REMARK    2  A    between atoms: C_5  and  C_6
REMARK    3  A    between atoms: C_6  and  O_7
REMARK    4  A    between atoms: O_7  and  C_8
REMARK                            x       y       z     vdW  Elec       q    Type
REMARK                         _______ _______ _______ _____ _____    ______ ____
ROOT
ATOM      1  C   UNL     1       5.948   5.389  17.813  0.00  0.00    +0.000 A 
ATOM      2  C   UNL     1       6.218   6.616  17.150  0.00  0.00    +0.000 A 
ATOM      3  C   UNL     1       7.304   7.154  17.797  0.00  0.00    +0.000 A 
ATOM      4  N   UNL     1       7.615   6.274  18.789  0.00  0.00    +0.000 N 
ATOM      5  N   UNL     1       6.823   5.194  18.823  0.00  0.00    +0.000 NA
ATOM      6  H   UNL     1       8.382   6.320  19.455  0.00  0.00    +0.000 HD
ENDROOT
BRANCH   1   8
ATOM      7  O   UNL     1       5.209   3.562  16.540  0.00  0.00    +0.000 OA
ATOM      8  C   UNL     1       4.938   4.389  17.417  0.00  0.00    +0.000 C 
ATOM      9  N   UNL     1       3.699   4.392  18.061  0.00  0.00    +0.000 N 
ATOM     10  C   UNL     1       2.759   3.298  17.811  0.00  0.00    +0.000 C 
ATOM     11  C   UNL     1       2.323   2.613  19.108  0.00  0.00    +0.000 C 
ATOM     12  S   UNL     1       1.497   3.770  20.256  0.00  0.00    +0.000 S 
ATOM     13  C   UNL     1       2.784   5.068  20.280  0.00  0.00    +0.000 C 
ATOM     14  C   UNL     1       3.175   5.499  18.868  0.00  0.00    +0.000 C 
ENDBRANCH   1   8
BRANCH   3  15
ATOM     15  C   UNL     1       8.102   8.379  17.555  0.00  0.00    +0.000 C 
BRANCH  15  16
ATOM     16  O   UNL     1       8.654   8.749  18.812  0.00  0.00    +0.000 OA
BRANCH  16  17
ATOM     17  C   UNL     1       9.087  10.043  18.942  0.00  0.00    +0.000 A 
ATOM     18  C   UNL     1       9.425  10.906  17.883  0.00  0.00    +0.000 A 
ATOM     19  C   UNL     1       9.849  12.217  18.137  0.00  0.00    +0.000 A 
ATOM     20  C   UNL     1       9.929  12.626  19.450  0.00  0.00    +0.000 A 
ATOM     21  C   UNL     1       9.603  11.786  20.487  0.00  0.00    +0.000 A 
ATOM     22  C   UNL     1       9.179  10.493  20.266  0.00  0.00    +0.000 A 
ATOM     23  O   UNL     1       9.742  12.385  21.700  0.00  0.00    +0.000 OA
ATOM     24  C   UNL     1      10.237  13.682  21.309  0.00  0.00    +0.000 C 
ATOM     25  O   UNL     1      10.313  13.858  19.878  0.00  0.00    +0.000 OA
ENDBRANCH  16  17
ENDBRANCH  15  16
ENDBRANCH   3  15
TORSDOF 4
ENDMDL
MODEL 7
REMARK VINA RESULT:      -7.4      1.806      2.012
REMARK  Name = 
REMARK  4 active torsions:
REMARK  status: ('A' for Active; 'I' for Inactive)
REMARK    1  A    between atoms: C_2  and  C_3
REMARK    2  A    between atoms: C_5  and  C_6
REMARK    3  A    between atoms: C_6  and  O_7
REMARK    4  A    between atoms: O_7  and  C_8
REMARK                            x       y       z     vdW  Elec       q    Type
REMARK                         _______ _______ _______ _____ _____    ______ ____
ROOT
ATOM      1  C   UNL     1       5.772   5.626  17.044  0.00  0.00    +0.000 A 
ATOM      2  C   UNL     1       6.749   5.846  18.050  0.00  0.00    +0.000 A 
ATOM      3  C   UNL     1       7.289   7.081  17.780  0.00  0.00    +0.000 A 
ATOM      4  N   UNL     1       6.651   7.522  16.660  0.00  0.00    +0.000 N 
ATOM      5  N   UNL     1       5.725   6.674  16.193  0.00  0.00    +0.000 NA
ATOM      6  H   UNL     1       6.764   8.411  16.180  0.00  0.00    +0.000 HD
ENDROOT
BRANCH   1   8
ATOM      7  O   UNL     1       5.164   3.478  16.323  0.00  0.00    +0.000 OA
ATOM      8  C   UNL     1       4.843   4.483  16.967  0.00  0.00    +0.000 C 
ATOM      9  N   UNL     1       3.624   4.559  17.643  0.00  0.00    +0.000 N 
ATOM     10  C   UNL     1       2.776   3.369  17.728  0.00  0.00    +0.000 C 
ATOM     11  C   UNL     1       2.432   3.017  19.177  0.00  0.00    +0.000 C 
ATOM     12  S   UNL     1       1.536   4.367  20.022  0.00  0.00    +0.000 S 
ATOM     13  C   UNL     1       2.707   5.720  19.650  0.00  0.00    +0.000 C 
ATOM     14  C   UNL     1       3.026   5.795  18.159  0.00  0.00    +0.000 C 
ENDBRANCH   1   8
BRANCH   3  15
ATOM     15  C   UNL     1       8.301   7.901  18.483  0.00  0.00    +0.000 C 
BRANCH  15  16
ATOM     16  O   UNL     1       8.403   9.118  17.754  0.00  0.00    +0.000 OA
BRANCH  16  17
ATOM     17  C   UNL     1       8.847  10.218  18.441  0.00  0.00    +0.000 A 
ATOM     18  C   UNL     1       9.491  10.199  19.693  0.00  0.00    +0.000 A 
ATOM     19  C   UNL     1       9.911  11.390  20.299  0.00  0.00    +0.000 A 
ATOM     20  C   UNL     1       9.667  12.572  19.634  0.00  0.00    +0.000 A 
ATOM     21  C   UNL     1       9.036  12.596  18.415  0.00  0.00    +0.000 A 
ATOM     22  C   UNL     1       8.617  11.439  17.793  0.00  0.00    +0.000 A 
ATOM     23  O   UNL     1       8.901  13.858  17.926  0.00  0.00    +0.000 OA
ATOM     24  C   UNL     1       9.477  14.628  19.001  0.00  0.00    +0.000 C 
ATOM     25  O   UNL     1      10.008  13.814  20.068  0.00  0.00    +0.000 OA
ENDBRANCH  16  17
ENDBRANCH  15  16
ENDBRANCH   3  15
TORSDOF 4
ENDMDL
MODEL 8
REMARK VINA RESULT:      -7.4      1.458      1.611
REMARK  Name = 
REMARK  4 active torsions:
REMARK  status: ('A' for Active; 'I' for Inactive)
REMARK    1  A    between atoms: C_2  and  C_3
REMARK    2  A    between atoms: C_5  and  C_6
REMARK    3  A    between atoms: C_6  and  O_7
REMARK    4  A    between atoms: O_7  and  C_8
REMARK                            x       y       z     vdW  Elec       q    Type
REMARK                         _______ _______ _______ _____ _____    ______ ____
ROOT
ATOM      1  C   UNL     1       7.455   6.690  17.829  0.00  0.00    +0.000 A 
ATOM      2  C   UNL     1       8.263   7.307  18.820  0.00  0.00    +0.000 A 
ATOM      3  C   UNL     1       8.432   8.606  18.405  0.00  0.00    +0.000 A 
ATOM      4  N   UNL     1       7.760   8.704  17.224  0.00  0.00    +0.000 N 
ATOM      5  N   UNL     1       7.152   7.571  16.850  0.00  0.00    +0.000 NA
ATOM      6  H   UNL     1       7.634   9.525  16.636  0.00  0.00    +0.000 HD
ENDROOT
BRANCH   1   8
ATOM      7  O   UNL     1       7.673   4.364  18.040  0.00  0.00    +0.000 OA
ATOM      8  C   UNL     1       6.908   5.321  17.879  0.00  0.00    +0.000 C 
ATOM      9  N   UNL     1       5.528   5.142  17.760  0.00  0.00    +0.000 N 
ATOM     10  C   UNL     1       4.955   3.815  17.991  0.00  0.00    +0.000 C 
ATOM     11  C   UNL     1       3.864   3.844  19.064  0.00  0.00    +0.000 C 
ATOM     12  S   UNL     1       2.480   4.948  18.612  0.00  0.00    +0.000 S 
ATOM     13  C   UNL     1       3.459   6.447  18.246  0.00  0.00    +0.000 C 
ATOM     14  C   UNL     1       4.590   6.154  17.263  0.00  0.00    +0.000 C 
ENDBRANCH   1   8
BRANCH   3  15
ATOM     15  C   UNL     1       9.116   9.768  19.019  0.00  0.00    +0.000 C 
BRANCH  15  16
ATOM     16  O   UNL     1       9.697  10.500  17.946  0.00  0.00    +0.000 OA
BRANCH  16  17
ATOM     17  C   UNL     1      10.441  11.601  18.279  0.00  0.00    +0.000 A 
ATOM     18  C   UNL     1      11.586  11.603  19.098  0.00  0.00    +0.000 A 
ATOM     19  C   UNL     1      12.274  12.794  19.363  0.00  0.00    +0.000 A 
ATOM     20  C   UNL     1      11.790  13.956  18.804  0.00  0.00    +0.000 A 
ATOM     21  C   UNL     1      10.672  13.960  18.007  0.00  0.00    +0.000 A 
ATOM     22  C   UNL     1       9.978  12.803  17.726  0.00  0.00    +0.000 A 
ATOM     23  O   UNL     1      10.367  15.204  17.549  0.00  0.00    +0.000 OA
ATOM     24  C   UNL     1      11.396  15.988  18.188  0.00  0.00    +0.000 C 
ATOM     25  O   UNL     1      12.331  15.195  18.949  0.00  0.00    +0.000 OA
ENDBRANCH  16  17
ENDBRANCH  15  16
ENDBRANCH   3  15
TORSDOF 4
ENDMDL
MODEL 9
REMARK VINA RESULT:      -7.3      5.986      8.123
REMARK  Name = 
REMARK  4 active torsions:
REMARK  status: ('A' for Active; 'I' for Inactive)
REMARK    1  A    between atoms: C_2  and  C_3
REMARK    2  A    between atoms: C_5  and  C_6
REMARK    3  A    between atoms: C_6  and  O_7
REMARK    4  A    between atoms: O_7  and  C_8
REMARK                            x       y       z     vdW  Elec       q    Type
REMARK                         _______ _______ _______ _____ _____    ______ ____
ROOT
ATOM      1  C   UNL     1       2.051   7.953  19.123  0.00  0.00    +0.000 A 
ATOM      2  C   UNL     1       2.507   6.825  18.390  0.00  0.00    +0.000 A 
ATOM      3  C   UNL     1       2.602   5.803  19.303  0.00  0.00    +0.000 A 
ATOM      4  N   UNL     1       2.231   6.342  20.497  0.00  0.00    +0.000 N 
ATOM      5  N   UNL     1       1.885   7.634  20.425  0.00  0.00    +0.000 NA
ATOM      6  H   UNL     1       2.148   5.879  21.399  0.00  0.00    +0.000 HD
ENDROOT
BRANCH   1   8
ATOM      7  O   UNL     1       1.928   9.512  17.375  0.00  0.00    +0.000 OA
ATOM      8  C   UNL     1       1.691   9.269  18.563  0.00  0.00    +0.000 C 
ATOM      9  N   UNL     1       1.070  10.206  19.391  0.00  0.00    +0.000 N 
ATOM     10  C   UNL     1       0.543  11.440  18.807  0.00  0.00    +0.000 C 
ATOM     11  C   UNL     1      -0.940  11.636  19.130  0.00  0.00    +0.000 C 
ATOM     12  S   UNL     1      -1.248  11.728  20.929  0.00  0.00    +0.000 S 
ATOM     13  C   UNL     1      -0.390  10.188  21.413  0.00  0.00    +0.000 C 
ATOM     14  C   UNL     1       1.031  10.137  20.855  0.00  0.00    +0.000 C 
ENDBRANCH   1   8
BRANCH   3  15
ATOM     15  C   UNL     1       2.960   4.372  19.163  0.00  0.00    +0.000 C 
BRANCH  15  16
ATOM     16  O   UNL     1       4.343   4.276  19.480  0.00  0.00    +0.000 OA
BRANCH  16  17
ATOM     17  C   UNL     1       5.230   4.659  18.509  0.00  0.00    +0.000 A 
ATOM     18  C   UNL     1       6.318   5.534  18.688  0.00  0.00    +0.000 A 
ATOM     19  C   UNL     1       7.167   5.848  17.620  0.00  0.00    +0.000 A 
ATOM     20  C   UNL     1       6.898   5.280  16.394  0.00  0.00    +0.000 A 
ATOM     21  C   UNL     1       5.836   4.428  16.213  0.00  0.00    +0.000 A 
ATOM     22  C   UNL     1       4.987   4.098  17.248  0.00  0.00    +0.000 A 
ATOM     23  O   UNL     1       5.751   3.972  14.934  0.00  0.00    +0.000 OA
ATOM     24  C   UNL     1       6.854   4.671  14.322  0.00  0.00    +0.000 C 
ATOM     25  O   UNL     1       7.615   5.468  15.254  0.00  0.00    +0.000 OA
ENDBRANCH  16  17
ENDBRANCH  15  16
ENDBRANCH   3  15
TORSDOF 4
ENDMDL
