MODEL 1
REMARK VINA RESULT:      -9.0      0.000      0.000
REMARK  Name = 
REMARK  5 active torsions:
REMARK  status: ('A' for Active; 'I' for Inactive)
REMARK    1  A    between atoms: C_2  and  C_4
REMARK    2  A    between atoms: C_10  and  C_11
REMARK    3  A    between atoms: C_11  and  N_12
REMARK    4  A    between atoms: C_22  and  O_23
REMARK    5  A    between atoms: O_23  and  C_24
REMARK                            x       y       z     vdW  Elec       q    Type
REMARK                         _______ _______ _______ _____ _____    ______ ____
ROOT
ATOM      1  N   UNL     1       0.382  10.909  18.618  0.00  0.00    +0.000 N 
ATOM      2  C   UNL     1      -0.917  10.671  18.169  0.00  0.00    +0.000 A 
ATOM      3  C   UNL     1      -1.429   9.774  17.219  0.00  0.00    +0.000 A 
ATOM      4  C   UNL     1      -2.816   9.753  17.001  0.00  0.00    +0.000 A 
ATOM      5  C   UNL     1      -3.663  10.601  17.707  0.00  0.00    +0.000 A 
ATOM      6  C   UNL     1      -3.138  11.506  18.635  0.00  0.00    +0.000 A 
ATOM      7  C   UNL     1      -1.751  11.547  18.868  0.00  0.00    +0.000 A 
ATOM      8  C   UNL     1      -0.922  12.347  19.714  0.00  0.00    +0.000 A 
ATOM      9  C   UNL     1      -1.211  13.402  20.601  0.00  0.00    +0.000 A 
ATOM     10  C   UNL     1      -0.178  14.013  21.321  0.00  0.00    +0.000 A 
ATOM     11  C   UNL     1       1.140  13.580  21.201  0.00  0.00    +0.000 A 
ATOM     12  C   UNL     1       1.453  12.551  20.289  0.00  0.00    +0.000 A 
ATOM     13  C   UNL     1       0.403  11.935  19.561  0.00  0.00    +0.000 A 
ENDROOT
BRANCH   1  14
ATOM     14  C   UNL     1       1.549  10.126  18.196  0.00  0.00    +0.000 C 
BRANCH  14  21
ATOM     15  C   UNL     1       2.840   4.042  18.772  0.00  0.00    +0.000 A 
ATOM     16  C   UNL     1       2.459   3.903  20.103  0.00  0.00    +0.000 A 
ATOM     17  C   UNL     1       2.007   5.018  20.820  0.00  0.00    +0.000 A 
ATOM     18  C   UNL     1       1.910   6.276  20.202  0.00  0.00    +0.000 A 
ATOM     19  C   UNL     1       1.453   7.415  20.884  0.00  0.00    +0.000 A 
ATOM     20  C   UNL     1       1.335   8.647  20.229  0.00  0.00    +0.000 A 
ATOM     21  C   UNL     1       1.666   8.774  18.869  0.00  0.00    +0.000 A 
ATOM     22  C   UNL     1       2.159   7.646  18.201  0.00  0.00    +0.000 A 
ATOM     23  C   UNL     1       2.276   6.404  18.843  0.00  0.00    +0.000 A 
ATOM     24  C   UNL     1       2.740   5.286  18.141  0.00  0.00    +0.000 A 
BRANCH  15  26
ATOM     25  N   UNL     1       4.516   2.931  17.448  0.00  0.00    +0.000 NA
ATOM     26  C   UNL     1       3.349   2.873  18.001  0.00  0.00    +0.000 C 
ATOM     27  N   UNL     1       2.577   1.755  17.862  0.00  0.00    +0.000 N 
ATOM     28  H   UNL     1       4.726   2.036  17.001  0.00  0.00    +0.000 HD
ATOM     29  H   UNL     1       2.808   1.151  17.084  0.00  0.00    +0.000 HD
ATOM     30  H   UNL     1       1.574   1.906  17.930  0.00  0.00    +0.000 HD
ENDBRANCH  15  26
ENDBRANCH  14  21
ENDBRANCH   1  14
BRANCH  11  31
ATOM     31  O   UNL     1       2.185  14.138  21.916  0.00  0.00    +0.000 OA
BRANCH  31  32
ATOM     32  C   UNL     1       3.424  14.293  21.180  0.00  0.00    +0.000 C 
ATOM     33  C   UNL     1       4.661  14.166  22.080  0.00  0.00    +0.000 C 
ATOM     34  C   UNL     1       5.036  15.439  22.834  0.00  0.00    +0.000 C 
ATOM     35  N   UNL     1       5.094  16.628  21.993  0.00  0.00    +0.000 NA
ATOM     36  C   UNL     1       3.852  16.830  21.252  0.00  0.00    +0.000 C 
ATOM     37  C   UNL     1       3.439  15.623  20.416  0.00  0.00    +0.000 C 
ATOM     38  H   UNL     1       5.886  16.576  21.354  0.00  0.00    +0.000 HD
ENDBRANCH  31  32
ENDBRANCH  11  31
TORSDOF 5
ENDMDL
MODEL 2
REMARK VINA RESULT:      -8.9      2.896      8.600
REMARK  Name = 
REMARK  5 active torsions:
REMARK  status: ('A' for Active; 'I' for Inactive)
REMARK    1  A    between atoms: C_2  and  C_4
REMARK    2  A    between atoms: C_10  and  C_11
REMARK    3  A    between atoms: C_11  and  N_12
REMARK    4  A    between atoms: C_22  and  O_23
REMARK    5  A    between atoms: O_23  and  C_24
REMARK                            x       y       z     vdW  Elec       q    Type
REMARK                         _______ _______ _______ _____ _____    ______ ____
ROOT
ATOM      1  N   UNL     1       0.347  10.699  19.461  0.00  0.00    +0.000 N 
ATOM      2  C   UNL     1      -0.226  10.876  20.720  0.00  0.00    +0.000 A 
ATOM      3  C   UNL     1      -0.982  11.924  21.266  0.00  0.00    +0.000 A 
ATOM      4  C   UNL     1      -1.449  11.794  22.584  0.00  0.00    +0.000 A 
ATOM      5  C   UNL     1      -1.168  10.655  23.332  0.00  0.00    +0.000 A 
ATOM      6  C   UNL     1      -0.395   9.626  22.784  0.00  0.00    +0.000 A 
ATOM      7  C   UNL     1       0.086   9.736  21.466  0.00  0.00    +0.000 A 
ATOM      8  C   UNL     1       0.896   8.892  20.644  0.00  0.00    +0.000 A 
ATOM      9  C   UNL     1       1.519   7.652  20.884  0.00  0.00    +0.000 A 
ATOM     10  C   UNL     1       2.263   7.037  19.870  0.00  0.00    +0.000 A 
ATOM     11  C   UNL     1       2.381   7.614  18.609  0.00  0.00    +0.000 A 
ATOM     12  C   UNL     1       1.796   8.874  18.364  0.00  0.00    +0.000 A 
ATOM     13  C   UNL     1       1.042   9.494  19.394  0.00  0.00    +0.000 A 
ENDROOT
BRANCH   1  14
ATOM     14  C   UNL     1       0.170  11.636  18.345  0.00  0.00    +0.000 C 
BRANCH  14  21
ATOM     15  C   UNL     1       5.270  15.240  18.218  0.00  0.00    +0.000 A 
ATOM     16  C   UNL     1       4.651  16.440  18.558  0.00  0.00    +0.000 A 
ATOM     17  C   UNL     1       3.265  16.477  18.756  0.00  0.00    +0.000 A 
ATOM     18  C   UNL     1       2.491  15.311  18.638  0.00  0.00    +0.000 A 
ATOM     19  C   UNL     1       1.102  15.307  18.837  0.00  0.00    +0.000 A 
ATOM     20  C   UNL     1       0.365  14.120  18.746  0.00  0.00    +0.000 A 
ATOM     21  C   UNL     1       0.999  12.899  18.459  0.00  0.00    +0.000 A 
ATOM     22  C   UNL     1       2.380  12.912  18.221  0.00  0.00    +0.000 A 
ATOM     23  C   UNL     1       3.131  14.093  18.315  0.00  0.00    +0.000 A 
ATOM     24  C   UNL     1       4.515  14.069  18.106  0.00  0.00    +0.000 A 
BRANCH  15  26
ATOM     25  N   UNL     1       7.479  16.193  18.308  0.00  0.00    +0.000 NA
ATOM     26  C   UNL     1       6.739  15.185  17.978  0.00  0.00    +0.000 C 
ATOM     27  N   UNL     1       7.298  14.085  17.393  0.00  0.00    +0.000 N 
ATOM     28  H   UNL     1       8.459  15.974  18.118  0.00  0.00    +0.000 HD
ATOM     29  H   UNL     1       8.202  14.225  16.959  0.00  0.00    +0.000 HD
ATOM     30  H   UNL     1       6.678  13.546  16.796  0.00  0.00    +0.000 HD
ENDBRANCH  15  26
ENDBRANCH  14  21
ENDBRANCH   1  14
BRANCH  11  31
ATOM     31  O   UNL     1       3.084   7.025  17.572  0.00  0.00    +0.000 OA
BRANCH  31  32
ATOM     32  C   UNL     1       4.302   6.344  17.961  0.00  0.00    +0.000 C 
ATOM     33  C   UNL     1       5.489   6.703  17.056  0.00  0.00    +0.000 C 
ATOM     34  C   UNL     1       5.556   5.919  15.748  0.00  0.00    +0.000 C 
ATOM     35  N   UNL     1       5.414   4.478  15.916  0.00  0.00    +0.000 NA
ATOM     36  C   UNL     1       4.199   4.133  16.647  0.00  0.00    +0.000 C 
ATOM     37  C   UNL     1       4.087   4.826  18.001  0.00  0.00    +0.000 C 
ATOM     38  H   UNL     1       6.233   4.091  16.381  0.00  0.00    +0.000 HD
ENDBRANCH  31  32
ENDBRANCH  11  31
TORSDOF 5
ENDMDL
MODEL 3
REMARK VINA RESULT:      -8.9      3.499      7.736
REMARK  Name = 
REMARK  5 active torsions:
REMARK  status: ('A' for Active; 'I' for Inactive)
REMARK    1  A    between atoms: C_2  and  C_4
REMARK    2  A    between atoms: C_10  and  C_11
REMARK    3  A    between atoms: C_11  and  N_12
REMARK    4  A    between atoms: C_22  and  O_23
REMARK    5  A    between atoms: O_23  and  C_24
REMARK                            x       y       z     vdW  Elec       q    Type
REMARK                         _______ _______ _______ _____ _____    ______ ____
ROOT
ATOM      1  N   UNL     1       0.170  10.843  19.327  0.00  0.00    +0.000 N 
ATOM      2  C   UNL     1       0.968   9.745  19.007  0.00  0.00    +0.000 A 
ATOM      3  C   UNL     1       1.586   9.355  17.809  0.00  0.00    +0.000 A 
ATOM      4  C   UNL     1       2.363   8.185  17.810  0.00  0.00    +0.000 A 
ATOM      5  C   UNL     1       2.515   7.429  18.968  0.00  0.00    +0.000 A 
ATOM      6  C   UNL     1       1.876   7.817  20.150  0.00  0.00    +0.000 A 
ATOM      7  C   UNL     1       1.090   8.984  20.173  0.00  0.00    +0.000 A 
ATOM      8  C   UNL     1       0.313   9.623  21.187  0.00  0.00    +0.000 A 
ATOM      9  C   UNL     1       0.044   9.286  22.528  0.00  0.00    +0.000 A 
ATOM     10  C   UNL     1      -0.764  10.120  23.309  0.00  0.00    +0.000 A 
ATOM     11  C   UNL     1      -1.294  11.301  22.795  0.00  0.00    +0.000 A 
ATOM     12  C   UNL     1      -1.067  11.634  21.444  0.00  0.00    +0.000 A 
ATOM     13  C   UNL     1      -0.246  10.787  20.656  0.00  0.00    +0.000 A 
ENDROOT
BRANCH   1  14
ATOM     14  C   UNL     1      -0.123  11.939  18.396  0.00  0.00    +0.000 C 
BRANCH  14  21
ATOM     15  C   UNL     1       5.202  15.200  18.255  0.00  0.00    +0.000 A 
ATOM     16  C   UNL     1       4.677  16.419  18.675  0.00  0.00    +0.000 A 
ATOM     17  C   UNL     1       3.304  16.538  18.926  0.00  0.00    +0.000 A 
ATOM     18  C   UNL     1       2.450  15.432  18.780  0.00  0.00    +0.000 A 
ATOM     19  C   UNL     1       1.071  15.511  19.031  0.00  0.00    +0.000 A 
ATOM     20  C   UNL     1       0.252  14.380  18.909  0.00  0.00    +0.000 A 
ATOM     21  C   UNL     1       0.792  13.137  18.540  0.00  0.00    +0.000 A 
ATOM     22  C   UNL     1       2.162  13.071  18.252  0.00  0.00    +0.000 A 
ATOM     23  C   UNL     1       2.995  14.193  18.376  0.00  0.00    +0.000 A 
ATOM     24  C   UNL     1       4.365  14.089  18.114  0.00  0.00    +0.000 A 
BRANCH  15  26
ATOM     25  N   UNL     1       7.463  16.026  18.253  0.00  0.00    +0.000 NA
ATOM     26  C   UNL     1       6.655  15.061  17.958  0.00  0.00    +0.000 C 
ATOM     27  N   UNL     1       7.127  13.929  17.358  0.00  0.00    +0.000 N 
ATOM     28  H   UNL     1       8.420  15.752  18.026  0.00  0.00    +0.000 HD
ATOM     29  H   UNL     1       8.019  14.015  16.888  0.00  0.00    +0.000 HD
ATOM     30  H   UNL     1       6.454  13.424  16.789  0.00  0.00    +0.000 HD
ENDBRANCH  15  26
ENDBRANCH  14  21
ENDBRANCH   1  14
BRANCH  11  31
ATOM     31  O   UNL     1      -2.075  12.166  23.543  0.00  0.00    +0.000 OA
BRANCH  31  32
ATOM     32  C   UNL     1      -2.763  13.190  22.782  0.00  0.00    +0.000 C 
ATOM     33  C   UNL     1      -2.544  14.596  23.359  0.00  0.00    +0.000 C 
ATOM     34  C   UNL     1      -3.456  14.955  24.529  0.00  0.00    +0.000 C 
ATOM     35  N   UNL     1      -4.867  14.679  24.284  0.00  0.00    +0.000 NA
ATOM     36  C   UNL     1      -5.087  13.294  23.882  0.00  0.00    +0.000 C 
ATOM     37  C   UNL     1      -4.259  12.872  22.673  0.00  0.00    +0.000 C 
ATOM     38  H   UNL     1      -5.239  15.318  23.583  0.00  0.00    +0.000 HD
ENDBRANCH  31  32
ENDBRANCH  11  31
TORSDOF 5
ENDMDL
MODEL 4
REMARK VINA RESULT:      -8.8      4.067      8.183
REMARK  Name = 
REMARK  5 active torsions:
REMARK  status: ('A' for Active; 'I' for Inactive)
REMARK    1  A    between atoms: C_2  and  C_4
REMARK    2  A    between atoms: C_10  and  C_11
REMARK    3  A    between atoms: C_11  and  N_12
REMARK    4  A    between atoms: C_22  and  O_23
REMARK    5  A    between atoms: O_23  and  C_24
REMARK                            x       y       z     vdW  Elec       q    Type
REMARK                         _______ _______ _______ _____ _____    ______ ____
ROOT
ATOM      1  N   UNL     1       0.137  10.526  19.328  0.00  0.00    +0.000 N 
ATOM      2  C   UNL     1       0.946   9.463  18.930  0.00  0.00    +0.000 A 
ATOM      3  C   UNL     1       1.434   9.077  17.672  0.00  0.00    +0.000 A 
ATOM      4  C   UNL     1       2.265   7.948  17.596  0.00  0.00    +0.000 A 
ATOM      5  C   UNL     1       2.596   7.227  18.739  0.00  0.00    +0.000 A 
ATOM      6  C   UNL     1       2.087   7.609  19.984  0.00  0.00    +0.000 A 
ATOM      7  C   UNL     1       1.249   8.735  20.084  0.00  0.00    +0.000 A 
ATOM      8  C   UNL     1       0.569   9.357  21.176  0.00  0.00    +0.000 A 
ATOM      9  C   UNL     1       0.483   9.037  22.545  0.00  0.00    +0.000 A 
ATOM     10  C   UNL     1      -0.267   9.847  23.406  0.00  0.00    +0.000 A 
ATOM     11  C   UNL     1      -0.916  10.988  22.942  0.00  0.00    +0.000 A 
ATOM     12  C   UNL     1      -0.872  11.302  21.568  0.00  0.00    +0.000 A 
ATOM     13  C   UNL     1      -0.110  10.479  20.699  0.00  0.00    +0.000 A 
ENDROOT
BRANCH   1  14
ATOM     14  C   UNL     1      -0.324  11.585  18.423  0.00  0.00    +0.000 C 
BRANCH  14  21
ATOM     15  C   UNL     1      -6.422  12.417  19.484  0.00  0.00    +0.000 A 
ATOM     16  C   UNL     1      -6.885  11.926  18.266  0.00  0.00    +0.000 A 
ATOM     17  C   UNL     1      -5.972  11.495  17.296  0.00  0.00    +0.000 A 
ATOM     18  C   UNL     1      -4.590  11.531  17.545  0.00  0.00    +0.000 A 
ATOM     19  C   UNL     1      -3.645  11.099  16.601  0.00  0.00    +0.000 A 
ATOM     20  C   UNL     1      -2.276  11.116  16.894  0.00  0.00    +0.000 A 
ATOM     21  C   UNL     1      -1.813  11.559  18.144  0.00  0.00    +0.000 A 
ATOM     22  C   UNL     1      -2.755  12.026  19.071  0.00  0.00    +0.000 A 
ATOM     23  C   UNL     1      -4.130  12.009  18.792  0.00  0.00    +0.000 A 
ATOM     24  C   UNL     1      -5.050  12.451  19.750  0.00  0.00    +0.000 A 
BRANCH  15  26
ATOM     25  N   UNL     1      -7.820  14.118  20.458  0.00  0.00    +0.000 NA
ATOM     26  C   UNL     1      -7.377  12.905  20.518  0.00  0.00    +0.000 C 
ATOM     27  N   UNL     1      -7.765  12.081  21.536  0.00  0.00    +0.000 N 
ATOM     28  H   UNL     1      -8.493  14.273  21.211  0.00  0.00    +0.000 HD
ATOM     29  H   UNL     1      -8.127  12.539  22.363  0.00  0.00    +0.000 HD
ATOM     30  H   UNL     1      -7.107  11.345  21.776  0.00  0.00    +0.000 HD
ENDBRANCH  15  26
ENDBRANCH  14  21
ENDBRANCH   1  14
BRANCH  11  31
ATOM     31  O   UNL     1      -1.644  11.830  23.766  0.00  0.00    +0.000 OA
BRANCH  31  32
ATOM     32  C   UNL     1      -2.383  12.873  23.084  0.00  0.00    +0.000 C 
ATOM     33  C   UNL     1      -2.066  14.271  23.633  0.00  0.00    +0.000 C 
ATOM     34  C   UNL     1      -2.837  14.652  24.895  0.00  0.00    +0.000 C 
ATOM     35  N   UNL     1      -4.272  14.413  24.804  0.00  0.00    +0.000 NA
ATOM     36  C   UNL     1      -4.571  13.035  24.429  0.00  0.00    +0.000 C 
ATOM     37  C   UNL     1      -3.890  12.594  23.137  0.00  0.00    +0.000 C 
ATOM     38  H   UNL     1      -4.701  15.063  24.147  0.00  0.00    +0.000 HD
ENDBRANCH  31  32
ENDBRANCH  11  31
TORSDOF 5
ENDMDL
MODEL 5
REMARK VINA RESULT:      -8.6      1.498      1.736
REMARK  Name = 
REMARK  5 active torsions:
REMARK  status: ('A' for Active; 'I' for Inactive)
REMARK    1  A    between atoms: C_2  and  C_4
REMARK    2  A    between atoms: C_10  and  C_11
REMARK    3  A    between atoms: C_11  and  N_12
REMARK    4  A    between atoms: C_22  and  O_23
REMARK    5  A    between atoms: O_23  and  C_24
REMARK                            x       y       z     vdW  Elec       q    Type
REMARK                         _______ _______ _______ _____ _____    ______ ____
ROOT
ATOM      1  N   UNL     1       0.883  10.861  18.157  0.00  0.00    +0.000 N 
ATOM      2  C   UNL     1      -0.498  10.688  18.077  0.00  0.00    +0.000 A 
ATOM      3  C   UNL     1      -1.282   9.652  17.547  0.00  0.00    +0.000 A 
ATOM      4  C   UNL     1      -2.679   9.758  17.641  0.00  0.00    +0.000 A 
ATOM      5  C   UNL     1      -3.273  10.862  18.243  0.00  0.00    +0.000 A 
ATOM      6  C   UNL     1      -2.481  11.899  18.748  0.00  0.00    +0.000 A 
ATOM      7  C   UNL     1      -1.079  11.816  18.662  0.00  0.00    +0.000 A 
ATOM      8  C   UNL     1      -0.019  12.691  19.054  0.00  0.00    +0.000 A 
ATOM      9  C   UNL     1      -0.015  13.967  19.650  0.00  0.00    +0.000 A 
ATOM     10  C   UNL     1       1.200  14.601  19.936  0.00  0.00    +0.000 A 
ATOM     11  C   UNL     1       2.418  13.983  19.666  0.00  0.00    +0.000 A 
ATOM     12  C   UNL     1       2.433  12.723  19.035  0.00  0.00    +0.000 A 
ATOM     13  C   UNL     1       1.199  12.083  18.748  0.00  0.00    +0.000 A 
ENDROOT
BRANCH   1  14
ATOM     14  C   UNL     1       1.859   9.850  17.734  0.00  0.00    +0.000 C 
BRANCH  14  21
ATOM     15  C   UNL     1       2.755   3.844  19.197  0.00  0.00    +0.000 A 
ATOM     16  C   UNL     1       2.319   3.914  20.517  0.00  0.00    +0.000 A 
ATOM     17  C   UNL     1       1.909   5.141  21.053  0.00  0.00    +0.000 A 
ATOM     18  C   UNL     1       1.912   6.304  20.264  0.00  0.00    +0.000 A 
ATOM     19  C   UNL     1       1.500   7.550  20.763  0.00  0.00    +0.000 A 
ATOM     20  C   UNL     1       1.482   8.684  19.940  0.00  0.00    +0.000 A 
ATOM     21  C   UNL     1       1.869   8.601  18.592  0.00  0.00    +0.000 A 
ATOM     22  C   UNL     1       2.317   7.364  18.107  0.00  0.00    +0.000 A 
ATOM     23  C   UNL     1       2.334   6.220  18.919  0.00  0.00    +0.000 A 
ATOM     24  C   UNL     1       2.755   4.991  18.398  0.00  0.00    +0.000 A 
BRANCH  15  26
ATOM     25  N   UNL     1       4.384   2.091  18.937  0.00  0.00    +0.000 NA
ATOM     26  C   UNL     1       3.220   2.552  18.618  0.00  0.00    +0.000 C 
ATOM     27  N   UNL     1       2.427   1.871  17.739  0.00  0.00    +0.000 N 
ATOM     28  H   UNL     1       4.526   1.183  18.490  0.00  0.00    +0.000 HD
ATOM     29  H   UNL     1       2.900   1.208  17.138  0.00  0.00    +0.000 HD
ATOM     30  H   UNL     1       1.765   2.439  17.218  0.00  0.00    +0.000 HD
ENDBRANCH  15  26
ENDBRANCH  14  21
ENDBRANCH   1  14
BRANCH  11  31
ATOM     31  O   UNL     1       3.640  14.565  19.959  0.00  0.00    +0.000 OA
BRANCH  31  32
ATOM     32  C   UNL     1       4.058  15.614  19.050  0.00  0.00    +0.000 C 
ATOM     33  C   UNL     1       4.932  15.083  17.905  0.00  0.00    +0.000 C 
ATOM     34  C   UNL     1       6.406  14.903  18.257  0.00  0.00    +0.000 C 
ATOM     35  N   UNL     1       7.004  16.063  18.908  0.00  0.00    +0.000 NA
ATOM     36  C   UNL     1       6.251  16.470  20.090  0.00  0.00    +0.000 C 
ATOM     37  C   UNL     1       4.775  16.736  19.810  0.00  0.00    +0.000 C 
ATOM     38  H   UNL     1       7.085  16.837  18.252  0.00  0.00    +0.000 HD
ENDBRANCH  31  32
ENDBRANCH  11  31
TORSDOF 5
ENDMDL
MODEL 6
REMARK VINA RESULT:      -8.6      3.502      7.837
REMARK  Name = 
REMARK  5 active torsions:
REMARK  status: ('A' for Active; 'I' for Inactive)
REMARK    1  A    between atoms: C_2  and  C_4
REMARK    2  A    between atoms: C_10  and  C_11
REMARK    3  A    between atoms: C_11  and  N_12
REMARK    4  A    between atoms: C_22  and  O_23
REMARK    5  A    between atoms: O_23  and  C_24
REMARK                            x       y       z     vdW  Elec       q    Type
REMARK                         _______ _______ _______ _____ _____    ______ ____
ROOT
ATOM      1  N   UNL     1       0.354  10.939  19.281  0.00  0.00    +0.000 N 
ATOM      2  C   UNL     1       1.077   9.775  19.021  0.00  0.00    +0.000 A 
ATOM      3  C   UNL     1       1.707   9.304  17.859  0.00  0.00    +0.000 A 
ATOM      4  C   UNL     1       2.391   8.079  17.921  0.00  0.00    +0.000 A 
ATOM      5  C   UNL     1       2.442   7.349  19.104  0.00  0.00    +0.000 A 
ATOM      6  C   UNL     1       1.791   7.819  20.250  0.00  0.00    +0.000 A 
ATOM      7  C   UNL     1       1.097   9.041  20.210  0.00  0.00    +0.000 A 
ATOM      8  C   UNL     1       0.334   9.767  21.176  0.00  0.00    +0.000 A 
ATOM      9  C   UNL     1      -0.010   9.492  22.514  0.00  0.00    +0.000 A 
ATOM     10  C   UNL     1      -0.780  10.407  23.240  0.00  0.00    +0.000 A 
ATOM     11  C   UNL     1      -1.198  11.608  22.675  0.00  0.00    +0.000 A 
ATOM     12  C   UNL     1      -0.896  11.883  21.326  0.00  0.00    +0.000 A 
ATOM     13  C   UNL     1      -0.114  10.954  20.593  0.00  0.00    +0.000 A 
ENDROOT
BRANCH   1  14
ATOM     14  C   UNL     1       0.181  12.026  18.310  0.00  0.00    +0.000 C 
BRANCH  14  21
ATOM     15  C   UNL     1       5.543  15.228  18.231  0.00  0.00    +0.000 A 
ATOM     16  C   UNL     1       5.052  16.414  18.770  0.00  0.00    +0.000 A 
ATOM     17  C   UNL     1       3.691  16.527  19.083  0.00  0.00    +0.000 A 
ATOM     18  C   UNL     1       2.816  15.447  18.880  0.00  0.00    +0.000 A 
ATOM     19  C   UNL     1       1.449  15.520  19.189  0.00  0.00    +0.000 A 
ATOM     20  C   UNL     1       0.610  14.413  19.007  0.00  0.00    +0.000 A 
ATOM     21  C   UNL     1       1.118  13.198  18.516  0.00  0.00    +0.000 A 
ATOM     22  C   UNL     1       2.475  13.140  18.171  0.00  0.00    +0.000 A 
ATOM     23  C   UNL     1       3.328  14.239  18.354  0.00  0.00    +0.000 A 
ATOM     24  C   UNL     1       4.686  14.141  18.032  0.00  0.00    +0.000 A 
BRANCH  15  26
ATOM     25  N   UNL     1       7.416  13.987  17.367  0.00  0.00    +0.000 NA
ATOM     26  C   UNL     1       6.982  15.097  17.868  0.00  0.00    +0.000 C 
ATOM     27  N   UNL     1       7.841  16.137  18.083  0.00  0.00    +0.000 N 
ATOM     28  H   UNL     1       8.407  14.082  17.136  0.00  0.00    +0.000 HD
ATOM     29  H   UNL     1       8.822  15.897  18.137  0.00  0.00    +0.000 HD
ATOM     30  H   UNL     1       7.572  16.778  18.824  0.00  0.00    +0.000 HD
ENDBRANCH  15  26
ENDBRANCH  14  21
ENDBRANCH   1  14
BRANCH  11  31
ATOM     31  O   UNL     1      -1.937  12.552  23.368  0.00  0.00    +0.000 OA
BRANCH  31  32
ATOM     32  C   UNL     1      -3.369  12.331  23.375  0.00  0.00    +0.000 C 
ATOM     33  C   UNL     1      -4.024  12.689  22.033  0.00  0.00    +0.000 C 
ATOM     34  C   UNL     1      -4.329  14.173  21.846  0.00  0.00    +0.000 C 
ATOM     35  N   UNL     1      -5.028  14.778  22.974  0.00  0.00    +0.000 NA
ATOM     36  C   UNL     1      -4.318  14.565  24.231  0.00  0.00    +0.000 C 
ATOM     37  C   UNL     1      -4.032  13.096  24.527  0.00  0.00    +0.000 C 
ATOM     38  H   UNL     1      -5.980  14.422  23.036  0.00  0.00    +0.000 HD
ENDBRANCH  31  32
ENDBRANCH  11  31
TORSDOF 5
ENDMDL
MODEL 7
REMARK VINA RESULT:      -8.5      2.792      8.507
REMARK  Name = 
REMARK  5 active torsions:
REMARK  status: ('A' for Active; 'I' for Inactive)
REMARK    1  A    between atoms: C_2  and  C_4
REMARK    2  A    between atoms: C_10  and  C_11
REMARK    3  A    between atoms: C_11  and  N_12
REMARK    4  A    between atoms: C_22  and  O_23
REMARK    5  A    between atoms: O_23  and  C_24
REMARK                            x       y       z     vdW  Elec       q    Type
REMARK                         _______ _______ _______ _____ _____    ______ ____
ROOT
ATOM      1  N   UNL     1       0.022  11.376  19.722  0.00  0.00    +0.000 N 
ATOM      2  C   UNL     1      -0.671  11.762  20.869  0.00  0.00    +0.000 A 
ATOM      3  C   UNL     1      -1.380  12.931  21.185  0.00  0.00    +0.000 A 
ATOM      4  C   UNL     1      -2.004  13.014  22.440  0.00  0.00    +0.000 A 
ATOM      5  C   UNL     1      -1.921  11.964  23.350  0.00  0.00    +0.000 A 
ATOM      6  C   UNL     1      -1.193  10.813  23.031  0.00  0.00    +0.000 A 
ATOM      7  C   UNL     1      -0.557  10.709  21.781  0.00  0.00    +0.000 A 
ATOM      8  C   UNL     1       0.257   9.702  21.175  0.00  0.00    +0.000 A 
ATOM      9  C   UNL     1       0.727   8.458  21.639  0.00  0.00    +0.000 A 
ATOM     10  C   UNL     1       1.518   7.657  20.808  0.00  0.00    +0.000 A 
ATOM     11  C   UNL     1       1.835   8.052  19.511  0.00  0.00    +0.000 A 
ATOM     12  C   UNL     1       1.405   9.311  19.044  0.00  0.00    +0.000 A 
ATOM     13  C   UNL     1       0.601  10.120  19.889  0.00  0.00    +0.000 A 
ENDROOT
BRANCH   1  14
ATOM     14  C   UNL     1       0.064  12.169  18.488  0.00  0.00    +0.000 C 
BRANCH  14  21
ATOM     15  C   UNL     1       5.549  15.127  18.060  0.00  0.00    +0.000 A 
ATOM     16  C   UNL     1       5.089  16.403  18.375  0.00  0.00    +0.000 A 
ATOM     17  C   UNL     1       3.726  16.614  18.617  0.00  0.00    +0.000 A 
ATOM     18  C   UNL     1       2.816  15.545  18.568  0.00  0.00    +0.000 A 
ATOM     19  C   UNL     1       1.444  15.716  18.813  0.00  0.00    +0.000 A 
ATOM     20  C   UNL     1       0.568  14.623  18.790  0.00  0.00    +0.000 A 
ATOM     21  C   UNL     1       1.041  13.326  18.528  0.00  0.00    +0.000 A 
ATOM     22  C   UNL     1       2.404  13.165  18.244  0.00  0.00    +0.000 A 
ATOM     23  C   UNL     1       3.294  14.250  18.270  0.00  0.00    +0.000 A 
ATOM     24  C   UNL     1       4.656  14.052  18.016  0.00  0.00    +0.000 A 
BRANCH  15  26
ATOM     25  N   UNL     1       7.840  15.851  17.924  0.00  0.00    +0.000 NA
ATOM     26  C   UNL     1       6.991  14.888  17.774  0.00  0.00    +0.000 C 
ATOM     27  N   UNL     1       7.410  13.665  17.335  0.00  0.00    +0.000 N 
ATOM     28  H   UNL     1       8.783  15.509  17.730  0.00  0.00    +0.000 HD
ATOM     29  H   UNL     1       8.298  13.648  16.851  0.00  0.00    +0.000 HD
ATOM     30  H   UNL     1       6.710  13.113  16.848  0.00  0.00    +0.000 HD
ENDBRANCH  15  26
ENDBRANCH  14  21
ENDBRANCH   1  14
BRANCH  11  31
ATOM     31  O   UNL     1       2.591   7.276  18.649  0.00  0.00    +0.000 OA
BRANCH  31  32
ATOM     32  C   UNL     1       3.058   6.019  19.198  0.00  0.00    +0.000 C 
ATOM     33  C   UNL     1       4.459   5.644  18.696  0.00  0.00    +0.000 C 
ATOM     34  C   UNL     1       4.488   4.971  17.325  0.00  0.00    +0.000 C 
ATOM     35  N   UNL     1       3.545   3.866  17.191  0.00  0.00    +0.000 NA
ATOM     36  C   UNL     1       2.183   4.271  17.525  0.00  0.00    +0.000 C 
ATOM     37  C   UNL     1       2.056   4.895  18.911  0.00  0.00    +0.000 C 
ATOM     38  H   UNL     1       3.835   3.078  17.767  0.00  0.00    +0.000 HD
ENDBRANCH  31  32
ENDBRANCH  11  31
TORSDOF 5
ENDMDL
MODEL 8
REMARK VINA RESULT:      -8.5      3.186      4.040
REMARK  Name = 
REMARK  5 active torsions:
REMARK  status: ('A' for Active; 'I' for Inactive)
REMARK    1  A    between atoms: C_2  and  C_4
REMARK    2  A    between atoms: C_10  and  C_11
REMARK    3  A    between atoms: C_11  and  N_12
REMARK    4  A    between atoms: C_22  and  O_23
REMARK    5  A    between atoms: O_23  and  C_24
REMARK                            x       y       z     vdW  Elec       q    Type
REMARK                         _______ _______ _______ _____ _____    ______ ____
ROOT
ATOM      1  N   UNL     1      -1.563  11.944  19.028  0.00  0.00    +0.000 N 
ATOM      2  C   UNL     1      -2.272  11.452  17.932  0.00  0.00    +0.000 A 
ATOM      3  C   UNL     1      -1.848  10.917  16.706  0.00  0.00    +0.000 A 
ATOM      4  C   UNL     1      -2.823  10.476  15.798  0.00  0.00    +0.000 A 
ATOM      5  C   UNL     1      -4.177  10.567  16.103  0.00  0.00    +0.000 A 
ATOM      6  C   UNL     1      -4.588  11.122  17.320  0.00  0.00    +0.000 A 
ATOM      7  C   UNL     1      -3.629  11.575  18.244  0.00  0.00    +0.000 A 
ATOM      8  C   UNL     1      -3.721  12.191  19.530  0.00  0.00    +0.000 A 
ATOM      9  C   UNL     1      -4.821  12.586  20.315  0.00  0.00    +0.000 A 
ATOM     10  C   UNL     1      -4.611  13.173  21.568  0.00  0.00    +0.000 A 
ATOM     11  C   UNL     1      -3.326  13.356  22.074  0.00  0.00    +0.000 A 
ATOM     12  C   UNL     1      -2.212  13.002  21.285  0.00  0.00    +0.000 A 
ATOM     13  C   UNL     1      -2.430  12.406  20.016  0.00  0.00    +0.000 A 
ENDROOT
BRANCH   1  14
ATOM     14  C   UNL     1      -0.100  11.907  19.137  0.00  0.00    +0.000 C 
BRANCH  14  21
ATOM     15  C   UNL     1       3.153   6.641  18.302  0.00  0.00    +0.000 A 
ATOM     16  C   UNL     1       2.841   6.042  19.520  0.00  0.00    +0.000 A 
ATOM     17  C   UNL     1       2.042   6.722  20.447  0.00  0.00    +0.000 A 
ATOM     18  C   UNL     1       1.529   7.997  20.153  0.00  0.00    +0.000 A 
ATOM     19  C   UNL     1       0.718   8.706  21.053  0.00  0.00    +0.000 A 
ATOM     20  C   UNL     1       0.194   9.960  20.715  0.00  0.00    +0.000 A 
ATOM     21  C   UNL     1       0.463  10.539  19.463  0.00  0.00    +0.000 A 
ATOM     22  C   UNL     1       1.305   9.847  18.583  0.00  0.00    +0.000 A 
ATOM     23  C   UNL     1       1.831   8.587  18.906  0.00  0.00    +0.000 A 
ATOM     24  C   UNL     1       2.642   7.905  17.992  0.00  0.00    +0.000 A 
BRANCH  15  26
ATOM     25  N   UNL     1       3.928   4.663  17.170  0.00  0.00    +0.000 NA
ATOM     26  C   UNL     1       4.023   5.944  17.314  0.00  0.00    +0.000 C 
ATOM     27  N   UNL     1       4.931   6.652  16.579  0.00  0.00    +0.000 N 
ATOM     28  H   UNL     1       4.559   4.354  16.427  0.00  0.00    +0.000 HD
ATOM     29  H   UNL     1       5.698   6.120  16.190  0.00  0.00    +0.000 HD
ATOM     30  H   UNL     1       5.255   7.517  17.003  0.00  0.00    +0.000 HD
ENDBRANCH  15  26
ENDBRANCH  14  21
ENDBRANCH   1  14
BRANCH  11  31
ATOM     31  O   UNL     1      -3.077  13.907  23.319  0.00  0.00    +0.000 OA
BRANCH  31  32
ATOM     32  C   UNL     1      -2.201  15.061  23.319  0.00  0.00    +0.000 C 
ATOM     33  C   UNL     1      -1.191  15.031  24.475  0.00  0.00    +0.000 C 
ATOM     34  C   UNL     1      -1.732  15.535  25.810  0.00  0.00    +0.000 C 
ATOM     35  N   UNL     1      -2.422  16.817  25.721  0.00  0.00    +0.000 NA
ATOM     36  C   UNL     1      -3.487  16.792  24.723  0.00  0.00    +0.000 C 
ATOM     37  C   UNL     1      -3.014  16.361  23.339  0.00  0.00    +0.000 C 
ATOM     38  H   UNL     1      -1.761  17.564  25.519  0.00  0.00    +0.000 HD
ENDBRANCH  31  32
ENDBRANCH  11  31
TORSDOF 5
ENDMDL
MODEL 9
REMARK VINA RESULT:      -8.4      2.570      3.229
REMARK  Name = 
REMARK  5 active torsions:
REMARK  status: ('A' for Active; 'I' for Inactive)
REMARK    1  A    between atoms: C_2  and  C_4
REMARK    2  A    between atoms: C_10  and  C_11
REMARK    3  A    between atoms: C_11  and  N_12
REMARK    4  A    between atoms: C_22  and  O_23
REMARK    5  A    between atoms: O_23  and  C_24
REMARK                            x       y       z     vdW  Elec       q    Type
REMARK                         _______ _______ _______ _____ _____    ______ ____
ROOT
ATOM      1  N   UNL     1      -0.562  11.540  19.456  0.00  0.00    +0.000 N 
ATOM      2  C   UNL     1      -1.484  11.108  18.505  0.00  0.00    +0.000 A 
ATOM      3  C   UNL     1      -1.333  10.365  17.324  0.00  0.00    +0.000 A 
ATOM      4  C   UNL     1      -2.482  10.061  16.575  0.00  0.00    +0.000 A 
ATOM      5  C   UNL     1      -3.739  10.487  16.992  0.00  0.00    +0.000 A 
ATOM      6  C   UNL     1      -3.874  11.245  18.159  0.00  0.00    +0.000 A 
ATOM      7  C   UNL     1      -2.737  11.565  18.923  0.00  0.00    +0.000 A 
ATOM      8  C   UNL     1      -2.541  12.318  20.122  0.00  0.00    +0.000 A 
ATOM      9  C   UNL     1      -3.431  13.031  20.949  0.00  0.00    +0.000 A 
ATOM     10  C   UNL     1      -2.952  13.684  22.091  0.00  0.00    +0.000 A 
ATOM     11  C   UNL     1      -1.607  13.626  22.446  0.00  0.00    +0.000 A 
ATOM     12  C   UNL     1      -0.696  12.949  21.609  0.00  0.00    +0.000 A 
ATOM     13  C   UNL     1      -1.186  12.287  20.453  0.00  0.00    +0.000 A 
ENDROOT
BRANCH   1  14
ATOM     14  C   UNL     1       0.863  11.186  19.432  0.00  0.00    +0.000 C 
BRANCH  14  21
ATOM     15  C   UNL     1       2.920   5.376  18.423  0.00  0.00    +0.000 A 
ATOM     16  C   UNL     1       2.543   4.836  19.650  0.00  0.00    +0.000 A 
ATOM     17  C   UNL     1       1.941   5.653  20.616  0.00  0.00    +0.000 A 
ATOM     18  C   UNL     1       1.691   7.010  20.352  0.00  0.00    +0.000 A 
ATOM     19  C   UNL     1       1.082   7.857  21.292  0.00  0.00    +0.000 A 
ATOM     20  C   UNL     1       0.815   9.198  20.985  0.00  0.00    +0.000 A 
ATOM     21  C   UNL     1       1.144   9.727  19.725  0.00  0.00    +0.000 A 
ATOM     22  C   UNL     1       1.788   8.890  18.804  0.00  0.00    +0.000 A 
ATOM     23  C   UNL     1       2.055   7.544  19.096  0.00  0.00    +0.000 A 
ATOM     24  C   UNL     1       2.669   6.722  18.144  0.00  0.00    +0.000 A 
BRANCH  15  26
ATOM     25  N   UNL     1       3.070   3.386  17.076  0.00  0.00    +0.000 NA
ATOM     26  C   UNL     1       3.585   4.529  17.393  0.00  0.00    +0.000 C 
ATOM     27  N   UNL     1       4.742   4.949  16.804  0.00  0.00    +0.000 N 
ATOM     28  H   UNL     1       3.622   2.959  16.330  0.00  0.00    +0.000 HD
ATOM     29  H   UNL     1       5.313   4.227  16.383  0.00  0.00    +0.000 HD
ATOM     30  H   UNL     1       5.303   5.594  17.354  0.00  0.00    +0.000 HD
ENDBRANCH  15  26
ENDBRANCH  14  21
ENDBRANCH   1  14
BRANCH  11  31
ATOM     31  O   UNL     1      -1.099  14.235  23.581  0.00  0.00    +0.000 OA
BRANCH  31  32
ATOM     32  C   UNL     1      -1.817  15.413  24.023  0.00  0.00    +0.000 C 
ATOM     33  C   UNL     1      -1.108  16.715  23.624  0.00  0.00    +0.000 C 
ATOM     34  C   UNL     1       0.019  17.142  24.561  0.00  0.00    +0.000 C 
ATOM     35  N   UNL     1      -0.349  17.130  25.972  0.00  0.00    +0.000 NA
ATOM     36  C   UNL     1      -0.882  15.835  26.383  0.00  0.00    +0.000 C 
ATOM     37  C   UNL     1      -2.060  15.365  25.536  0.00  0.00    +0.000 C 
ATOM     38  H   UNL     1      -1.018  17.871  26.172  0.00  0.00    +0.000 HD
ENDBRANCH  31  32
ENDBRANCH  11  31
TORSDOF 5
ENDMDL
