MODEL 1
REMARK VINA RESULT:      -7.3      0.000      0.000
REMARK  Name = 
REMARK  8 active torsions:
REMARK  status: ('A' for Active; 'I' for Inactive)
REMARK    1  A    between atoms: C_1  and  C_2
REMARK    2  A    between atoms: C_5  and  N_6
REMARK    3  A    between atoms: N_9  and  C_10
REMARK    4  A    between atoms: C_10  and  C_11
REMARK    5  A    between atoms: C_10  and  C_12
REMARK    6  A    between atoms: C_13  and  N_14
REMARK    7  A    between atoms: C_20  and  C_21
REMARK    8  A    between atoms: C_22  and  C_23
REMARK                            x       y       z     vdW  Elec       q    Type
REMARK                         _______ _______ _______ _____ _____    ______ ____
ROOT
ATOM      1  N   UNL     1       2.268   7.737  18.880  0.00  0.00    +0.000 N 
ATOM      2  C   UNL     1       1.801   8.930  18.375  0.00  0.00    +0.000 C 
ATOM      3  O   UNL     1       2.021   9.371  17.253  0.00  0.00    +0.000 OA
ATOM      4  N   UNL     1       1.052   9.626  19.306  0.00  0.00    +0.000 N 
ATOM      5  H   UNL     1       2.282   7.668  19.887  0.00  0.00    +0.000 HD
ATOM      6  H   UNL     1       0.493   9.041  19.905  0.00  0.00    +0.000 HD
ENDROOT
BRANCH   1  11
ATOM      7  C   UNL     1       5.363   3.742  16.176  0.00  0.00    +0.000 C 
ATOM      8  C   UNL     1       4.544   4.811  16.831  0.00  0.00    +0.000 A 
ATOM      9  C   UNL     1       4.992   6.131  16.871  0.00  0.00    +0.000 A 
ATOM     10  C   UNL     1       4.237   7.109  17.523  0.00  0.00    +0.000 A 
ATOM     11  C   UNL     1       3.031   6.792  18.156  0.00  0.00    +0.000 A 
ATOM     12  C   UNL     1       2.561   5.479  18.080  0.00  0.00    +0.000 A 
ATOM     13  C   UNL     1       3.319   4.507  17.427  0.00  0.00    +0.000 A 
ATOM     14  F   UNL     1       2.858   3.250  17.393  0.00  0.00    +0.000 F 
ENDBRANCH   1  11
BRANCH   4  15
ATOM     15  C   UNL     1       0.443  10.883  18.888  0.00  0.00    +0.000 C 
ATOM     16  C   UNL     1      -1.080  10.821  19.012  0.00  0.00    +0.000 C 
BRANCH  15  17
ATOM     17  C   UNL     1       1.045  12.105  19.574  0.00  0.00    +0.000 A 
ATOM     18  C   UNL     1       0.725  12.527  20.871  0.00  0.00    +0.000 A 
ATOM     19  S   UNL     1       1.630  13.879  21.371  0.00  0.00    +0.000 S 
ATOM     20  C   UNL     1       2.496  13.954  19.920  0.00  0.00    +0.000 A 
ATOM     21  C   UNL     1       3.538  15.016  19.753  0.00  0.00    +0.000 C 
ATOM     22  C   UNL     1       2.123  12.955  19.031  0.00  0.00    +0.000 A 
ATOM     23  C   UNL     1       2.785  12.792  17.696  0.00  0.00    +0.000 C 
BRANCH  18  24
ATOM     24  N   UNL     1      -0.190  12.009  21.826  0.00  0.00    +0.000 N 
ATOM     25  C   UNL     1      -1.339  12.596  22.330  0.00  0.00    +0.000 A 
ATOM     26  C   UNL     1      -2.037  11.699  23.109  0.00  0.00    +0.000 A 
ATOM     27  C   UNL     1      -1.258  10.536  23.192  0.00  0.00    +0.000 A 
ATOM     28  C   UNL     1      -0.120  10.764  22.453  0.00  0.00    +0.000 A 
ENDBRANCH  18  24
ENDBRANCH  15  17
ENDBRANCH   4  15
TORSDOF 4
ENDMDL
MODEL 2
REMARK VINA RESULT:      -7.2      0.981      1.359
REMARK  Name = 
REMARK  8 active torsions:
REMARK  status: ('A' for Active; 'I' for Inactive)
REMARK    1  A    between atoms: C_1  and  C_2
REMARK    2  A    between atoms: C_5  and  N_6
REMARK    3  A    between atoms: N_9  and  C_10
REMARK    4  A    between atoms: C_10  and  C_11
REMARK    5  A    between atoms: C_10  and  C_12
REMARK    6  A    between atoms: C_13  and  N_14
REMARK    7  A    between atoms: C_20  and  C_21
REMARK    8  A    between atoms: C_22  and  C_23
REMARK                            x       y       z     vdW  Elec       q    Type
REMARK                         _______ _______ _______ _____ _____    ______ ____
ROOT
ATOM      1  N   UNL     1       2.477   7.524  18.957  0.00  0.00    +0.000 N 
ATOM      2  C   UNL     1       1.937   8.668  18.412  0.00  0.00    +0.000 C 
ATOM      3  O   UNL     1       2.066   9.042  17.253  0.00  0.00    +0.000 OA
ATOM      4  N   UNL     1       1.228   9.400  19.347  0.00  0.00    +0.000 N 
ATOM      5  H   UNL     1       2.561   7.521  19.963  0.00  0.00    +0.000 HD
ATOM      6  H   UNL     1       0.731   8.838  20.019  0.00  0.00    +0.000 HD
ENDROOT
BRANCH   1  11
ATOM      7  C   UNL     1       5.500   3.783  15.839  0.00  0.00    +0.000 C 
ATOM      8  C   UNL     1       4.721   4.729  16.701  0.00  0.00    +0.000 A 
ATOM      9  C   UNL     1       3.526   4.333  17.299  0.00  0.00    +0.000 A 
ATOM     10  C   UNL     1       2.789   5.239  18.065  0.00  0.00    +0.000 A 
ATOM     11  C   UNL     1       3.222   6.558  18.243  0.00  0.00    +0.000 A 
ATOM     12  C   UNL     1       4.440   6.943  17.680  0.00  0.00    +0.000 A 
ATOM     13  C   UNL     1       5.172   6.033  16.916  0.00  0.00    +0.000 A 
ATOM     14  F   UNL     1       6.323   6.437  16.365  0.00  0.00    +0.000 F 
ENDBRANCH   1  11
BRANCH   4  15
ATOM     15  C   UNL     1       0.550  10.608  18.895  0.00  0.00    +0.000 C 
ATOM     16  C   UNL     1      -0.966  10.476  19.050  0.00  0.00    +0.000 C 
BRANCH  15  17
ATOM     17  C   UNL     1       1.102  11.883  19.523  0.00  0.00    +0.000 A 
ATOM     18  C   UNL     1       0.774  12.344  20.805  0.00  0.00    +0.000 A 
ATOM     19  S   UNL     1       1.620  13.755  21.240  0.00  0.00    +0.000 S 
ATOM     20  C   UNL     1       2.470  13.809  19.778  0.00  0.00    +0.000 A 
ATOM     21  C   UNL     1       3.461  14.908  19.557  0.00  0.00    +0.000 C 
ATOM     22  C   UNL     1       2.135  12.758  18.935  0.00  0.00    +0.000 A 
ATOM     23  C   UNL     1       2.793  12.569  17.602  0.00  0.00    +0.000 C 
BRANCH  18  24
ATOM     24  N   UNL     1      -0.110  11.826  21.790  0.00  0.00    +0.000 N 
ATOM     25  C   UNL     1      -1.253  12.403  22.316  0.00  0.00    +0.000 A 
ATOM     26  C   UNL     1      -1.918  11.507  23.124  0.00  0.00    +0.000 A 
ATOM     27  C   UNL     1      -1.121  10.355  23.201  0.00  0.00    +0.000 A 
ATOM     28  C   UNL     1      -0.006  10.589  22.430  0.00  0.00    +0.000 A 
ENDBRANCH  18  24
ENDBRANCH  15  17
ENDBRANCH   4  15
TORSDOF 4
ENDMDL
MODEL 3
REMARK VINA RESULT:      -7.0      1.046      1.574
REMARK  Name = 
REMARK  8 active torsions:
REMARK  status: ('A' for Active; 'I' for Inactive)
REMARK    1  A    between atoms: C_1  and  C_2
REMARK    2  A    between atoms: C_5  and  N_6
REMARK    3  A    between atoms: N_9  and  C_10
REMARK    4  A    between atoms: C_10  and  C_11
REMARK    5  A    between atoms: C_10  and  C_12
REMARK    6  A    between atoms: C_13  and  N_14
REMARK    7  A    between atoms: C_20  and  C_21
REMARK    8  A    between atoms: C_22  and  C_23
REMARK                            x       y       z     vdW  Elec       q    Type
REMARK                         _______ _______ _______ _____ _____    ______ ____
ROOT
ATOM      1  N   UNL     1       1.962   8.109  19.097  0.00  0.00    +0.000 N 
ATOM      2  C   UNL     1       1.644   9.302  18.487  0.00  0.00    +0.000 C 
ATOM      3  O   UNL     1       1.992   9.651  17.366  0.00  0.00    +0.000 OA
ATOM      4  N   UNL     1       0.886  10.116  19.310  0.00  0.00    +0.000 N 
ATOM      5  H   UNL     1       1.889   8.103  20.105  0.00  0.00    +0.000 HD
ATOM      6  H   UNL     1       0.232   9.618  19.891  0.00  0.00    +0.000 HD
ENDROOT
BRANCH   1  11
ATOM      7  C   UNL     1       4.888   3.978  16.409  0.00  0.00    +0.000 C 
ATOM      8  C   UNL     1       4.144   5.037  17.162  0.00  0.00    +0.000 A 
ATOM      9  C   UNL     1       3.086   4.705  18.007  0.00  0.00    +0.000 A 
ATOM     10  C   UNL     1       2.375   5.708  18.669  0.00  0.00    +0.000 A 
ATOM     11  C   UNL     1       2.695   7.059  18.496  0.00  0.00    +0.000 A 
ATOM     12  C   UNL     1       3.781   7.390  17.684  0.00  0.00    +0.000 A 
ATOM     13  C   UNL     1       4.488   6.384  17.025  0.00  0.00    +0.000 A 
ATOM     14  F   UNL     1       5.509   6.731  16.230  0.00  0.00    +0.000 F 
ENDBRANCH   1  11
BRANCH   4  15
ATOM     15  C   UNL     1       0.426  11.389  18.771  0.00  0.00    +0.000 C 
ATOM     16  C   UNL     1      -1.088  11.377  18.555  0.00  0.00    +0.000 C 
BRANCH  15  17
ATOM     17  C   UNL     1       0.901  12.594  19.576  0.00  0.00    +0.000 A 
ATOM     18  C   UNL     1       0.456  12.915  20.866  0.00  0.00    +0.000 A 
ATOM     19  S   UNL     1       1.239  14.277  21.518  0.00  0.00    +0.000 S 
ATOM     20  C   UNL     1       2.212  14.490  20.151  0.00  0.00    +0.000 A 
ATOM     21  C   UNL     1       3.201  15.614  20.135  0.00  0.00    +0.000 C 
ATOM     22  C   UNL     1       1.968  13.533  19.176  0.00  0.00    +0.000 A 
ATOM     23  C   UNL     1       2.742  13.490  17.893  0.00  0.00    +0.000 C 
BRANCH  18  24
ATOM     24  N   UNL     1      -0.502  12.290  21.709  0.00  0.00    +0.000 N 
ATOM     25  C   UNL     1      -0.389  11.105  22.416  0.00  0.00    +0.000 A 
ATOM     26  C   UNL     1      -1.475  10.931  23.245  0.00  0.00    +0.000 A 
ATOM     27  C   UNL     1      -2.362  11.986  22.983  0.00  0.00    +0.000 A 
ATOM     28  C   UNL     1      -1.779  12.767  22.012  0.00  0.00    +0.000 A 
ENDBRANCH  18  24
ENDBRANCH  15  17
ENDBRANCH   4  15
TORSDOF 4
ENDMDL
MODEL 4
REMARK VINA RESULT:      -7.0      3.699      8.990
REMARK  Name = 
REMARK  8 active torsions:
REMARK  status: ('A' for Active; 'I' for Inactive)
REMARK    1  A    between atoms: C_1  and  C_2
REMARK    2  A    between atoms: C_5  and  N_6
REMARK    3  A    between atoms: N_9  and  C_10
REMARK    4  A    between atoms: C_10  and  C_11
REMARK    5  A    between atoms: C_10  and  C_12
REMARK    6  A    between atoms: C_13  and  N_14
REMARK    7  A    between atoms: C_20  and  C_21
REMARK    8  A    between atoms: C_22  and  C_23
REMARK                            x       y       z     vdW  Elec       q    Type
REMARK                         _______ _______ _______ _____ _____    ______ ____
ROOT
ATOM      1  N   UNL     1       1.338   9.596  19.320  0.00  0.00    +0.000 N 
ATOM      2  C   UNL     1       1.940   8.770  18.398  0.00  0.00    +0.000 C 
ATOM      3  O   UNL     1       2.131   9.030  17.217  0.00  0.00    +0.000 OA
ATOM      4  N   UNL     1       2.295   7.553  18.951  0.00  0.00    +0.000 N 
ATOM      5  H   UNL     1       0.963   9.135  20.137  0.00  0.00    +0.000 HD
ATOM      6  H   UNL     1       2.609   7.611  19.905  0.00  0.00    +0.000 HD
ENDROOT
BRANCH   1  11
ATOM      7  C   UNL     1      -0.269  15.034  18.482  0.00  0.00    +0.000 C 
ATOM      8  C   UNL     1       0.124  13.599  18.652  0.00  0.00    +0.000 A 
ATOM      9  C   UNL     1      -0.835  12.620  18.907  0.00  0.00    +0.000 A 
ATOM     10  C   UNL     1      -0.449  11.292  19.106  0.00  0.00    +0.000 A 
ATOM     11  C   UNL     1       0.898  10.916  19.064  0.00  0.00    +0.000 A 
ATOM     12  C   UNL     1       1.855  11.887  18.765  0.00  0.00    +0.000 A 
ATOM     13  C   UNL     1       1.463  13.211  18.568  0.00  0.00    +0.000 A 
ATOM     14  F   UNL     1       2.405  14.128  18.310  0.00  0.00    +0.000 F 
ENDBRANCH   1  11
BRANCH   4  15
ATOM     15  C   UNL     1       2.997   6.598  18.102  0.00  0.00    +0.000 C 
ATOM     16  C   UNL     1       4.305   7.191  17.577  0.00  0.00    +0.000 C 
BRANCH  15  17
ATOM     17  C   UNL     1       3.184   5.232  18.753  0.00  0.00    +0.000 A 
ATOM     18  C   UNL     1       4.134   4.283  18.351  0.00  0.00    +0.000 A 
ATOM     19  S   UNL     1       4.140   2.893  19.333  0.00  0.00    +0.000 S 
ATOM     20  C   UNL     1       2.916   3.484  20.340  0.00  0.00    +0.000 A 
ATOM     21  C   UNL     1       2.460   2.647  21.494  0.00  0.00    +0.000 C 
ATOM     22  C   UNL     1       2.483   4.747  19.958  0.00  0.00    +0.000 A 
ATOM     23  C   UNL     1       1.436   5.494  20.727  0.00  0.00    +0.000 C 
BRANCH  18  24
ATOM     24  N   UNL     1       5.089   4.300  17.300  0.00  0.00    +0.000 N 
ATOM     25  C   UNL     1       4.884   4.128  15.941  0.00  0.00    +0.000 A 
ATOM     26  C   UNL     1       6.042   4.383  15.241  0.00  0.00    +0.000 A 
ATOM     27  C   UNL     1       7.048   4.623  16.188  0.00  0.00    +0.000 A 
ATOM     28  C   UNL     1       6.463   4.515  17.429  0.00  0.00    +0.000 A 
ENDBRANCH  18  24
ENDBRANCH  15  17
ENDBRANCH   4  15
TORSDOF 4
ENDMDL
MODEL 5
REMARK VINA RESULT:      -6.9      6.258      7.750
REMARK  Name = 
REMARK  8 active torsions:
REMARK  status: ('A' for Active; 'I' for Inactive)
REMARK    1  A    between atoms: C_1  and  C_2
REMARK    2  A    between atoms: C_5  and  N_6
REMARK    3  A    between atoms: N_9  and  C_10
REMARK    4  A    between atoms: C_10  and  C_11
REMARK    5  A    between atoms: C_10  and  C_12
REMARK    6  A    between atoms: C_13  and  N_14
REMARK    7  A    between atoms: C_20  and  C_21
REMARK    8  A    between atoms: C_22  and  C_23
REMARK                            x       y       z     vdW  Elec       q    Type
REMARK                         _______ _______ _______ _____ _____    ______ ____
ROOT
ATOM      1  N   UNL     1       8.412   9.098  17.643  0.00  0.00    +0.000 N 
ATOM      2  C   UNL     1       8.983   9.869  18.632  0.00  0.00    +0.000 C 
ATOM      3  O   UNL     1       8.937   9.644  19.835  0.00  0.00    +0.000 OA
ATOM      4  N   UNL     1       9.615  10.985  18.114  0.00  0.00    +0.000 N 
ATOM      5  H   UNL     1       8.253   9.568  16.763  0.00  0.00    +0.000 HD
ATOM      6  H   UNL     1      10.064  10.829  17.227  0.00  0.00    +0.000 HD
ENDROOT
BRANCH   1  11
ATOM      7  C   UNL     1       5.414   4.304  18.585  0.00  0.00    +0.000 C 
ATOM      8  C   UNL     1       6.238   5.525  18.313  0.00  0.00    +0.000 A 
ATOM      9  C   UNL     1       7.465   5.716  18.947  0.00  0.00    +0.000 A 
ATOM     10  C   UNL     1       8.202   6.880  18.716  0.00  0.00    +0.000 A 
ATOM     11  C   UNL     1       7.728   7.878  17.858  0.00  0.00    +0.000 A 
ATOM     12  C   UNL     1       6.521   7.669  17.189  0.00  0.00    +0.000 A 
ATOM     13  C   UNL     1       5.790   6.504  17.424  0.00  0.00    +0.000 A 
ATOM     14  F   UNL     1       4.621   6.341  16.790  0.00  0.00    +0.000 F 
ENDBRANCH   1  11
BRANCH   4  15
ATOM     15  C   UNL     1      10.316  11.862  19.043  0.00  0.00    +0.000 C 
ATOM     16  C   UNL     1      11.802  11.509  19.114  0.00  0.00    +0.000 C 
BRANCH  15  17
ATOM     17  C   UNL     1      10.070  13.344  18.780  0.00  0.00    +0.000 A 
ATOM     18  C   UNL     1       9.392  14.206  19.653  0.00  0.00    +0.000 A 
ATOM     19  S   UNL     1       9.356  15.815  19.103  0.00  0.00    +0.000 S 
ATOM     20  C   UNL     1      10.246  15.458  17.710  0.00  0.00    +0.000 A 
ATOM     21  C   UNL     1      10.574  16.565  16.757  0.00  0.00    +0.000 C 
ATOM     22  C   UNL     1      10.594  14.116  17.636  0.00  0.00    +0.000 A 
ATOM     23  C   UNL     1      11.424  13.571  16.513  0.00  0.00    +0.000 C 
BRANCH  18  24
ATOM     24  N   UNL     1       8.767  13.967  20.907  0.00  0.00    +0.000 N 
ATOM     25  C   UNL     1       7.461  14.227  21.286  0.00  0.00    +0.000 A 
ATOM     26  C   UNL     1       7.204  13.696  22.531  0.00  0.00    +0.000 A 
ATOM     27  C   UNL     1       8.413  13.170  23.009  0.00  0.00    +0.000 A 
ATOM     28  C   UNL     1       9.359  13.392  22.034  0.00  0.00    +0.000 A 
ENDBRANCH  18  24
ENDBRANCH  15  17
ENDBRANCH   4  15
TORSDOF 4
ENDMDL
MODEL 6
REMARK VINA RESULT:      -6.9      1.485      1.841
REMARK  Name = 
REMARK  8 active torsions:
REMARK  status: ('A' for Active; 'I' for Inactive)
REMARK    1  A    between atoms: C_1  and  C_2
REMARK    2  A    between atoms: C_5  and  N_6
REMARK    3  A    between atoms: N_9  and  C_10
REMARK    4  A    between atoms: C_10  and  C_11
REMARK    5  A    between atoms: C_10  and  C_12
REMARK    6  A    between atoms: C_13  and  N_14
REMARK    7  A    between atoms: C_20  and  C_21
REMARK    8  A    between atoms: C_22  and  C_23
REMARK                            x       y       z     vdW  Elec       q    Type
REMARK                         _______ _______ _______ _____ _____    ______ ____
ROOT
ATOM      1  N   UNL     1       2.091   7.265  20.152  0.00  0.00    +0.000 N 
ATOM      2  C   UNL     1       1.767   8.227  19.221  0.00  0.00    +0.000 C 
ATOM      3  O   UNL     1       1.869   8.113  18.006  0.00  0.00    +0.000 OA
ATOM      4  N   UNL     1       1.326   9.394  19.818  0.00  0.00    +0.000 N 
ATOM      5  H   UNL     1       2.264   7.605  21.087  0.00  0.00    +0.000 HD
ATOM      6  H   UNL     1       0.781   9.248  20.652  0.00  0.00    +0.000 HD
ENDROOT
BRANCH   1  11
ATOM      7  C   UNL     1       3.833   1.890  19.185  0.00  0.00    +0.000 C 
ATOM      8  C   UNL     1       3.380   3.304  19.380  0.00  0.00    +0.000 A 
ATOM      9  C   UNL     1       4.234   4.373  19.112  0.00  0.00    +0.000 A 
ATOM     10  C   UNL     1       3.811   5.684  19.340  0.00  0.00    +0.000 A 
ATOM     11  C   UNL     1       2.536   5.957  19.848  0.00  0.00    +0.000 A 
ATOM     12  C   UNL     1       1.665   4.890  20.076  0.00  0.00    +0.000 A 
ATOM     13  C   UNL     1       2.093   3.582  19.846  0.00  0.00    +0.000 A 
ATOM     14  F   UNL     1       1.247   2.576  20.100  0.00  0.00    +0.000 F 
ENDBRANCH   1  11
BRANCH   4  15
ATOM     15  C   UNL     1       0.892  10.480  18.949  0.00  0.00    +0.000 C 
ATOM     16  C   UNL     1      -0.574  10.309  18.548  0.00  0.00    +0.000 C 
BRANCH  15  17
ATOM     17  C   UNL     1       1.195  11.864  19.513  0.00  0.00    +0.000 A 
ATOM     18  C   UNL     1       0.661  12.371  20.706  0.00  0.00    +0.000 A 
ATOM     19  S   UNL     1       1.260  13.915  21.097  0.00  0.00    +0.000 S 
ATOM     20  C   UNL     1       2.260  13.976  19.734  0.00  0.00    +0.000 A 
ATOM     21  C   UNL     1       3.119  15.184  19.520  0.00  0.00    +0.000 C 
ATOM     22  C   UNL     1       2.167  12.828  18.960  0.00  0.00    +0.000 A 
ATOM     23  C   UNL     1       2.995  12.632  17.726  0.00  0.00    +0.000 C 
BRANCH  18  24
ATOM     24  N   UNL     1      -0.256  11.811  21.635  0.00  0.00    +0.000 N 
ATOM     25  C   UNL     1      -0.158  10.621  22.337  0.00  0.00    +0.000 A 
ATOM     26  C   UNL     1      -1.176  10.520  23.260  0.00  0.00    +0.000 A 
ATOM     27  C   UNL     1      -2.012  11.630  23.071  0.00  0.00    +0.000 A 
ATOM     28  C   UNL     1      -1.467  12.371  22.047  0.00  0.00    +0.000 A 
ENDBRANCH  18  24
ENDBRANCH  15  17
ENDBRANCH   4  15
TORSDOF 4
ENDMDL
MODEL 7
REMARK VINA RESULT:      -6.9      3.839      8.331
REMARK  Name = 
REMARK  8 active torsions:
REMARK  status: ('A' for Active; 'I' for Inactive)
REMARK    1  A    between atoms: C_1  and  C_2
REMARK    2  A    between atoms: C_5  and  N_6
REMARK    3  A    between atoms: N_9  and  C_10
REMARK    4  A    between atoms: C_10  and  C_11
REMARK    5  A    between atoms: C_10  and  C_12
REMARK    6  A    between atoms: C_13  and  N_14
REMARK    7  A    between atoms: C_20  and  C_21
REMARK    8  A    between atoms: C_22  and  C_23
REMARK                            x       y       z     vdW  Elec       q    Type
REMARK                         _______ _______ _______ _____ _____    ______ ____
ROOT
ATOM      1  N   UNL     1       1.427   8.722  21.321  0.00  0.00    +0.000 N 
ATOM      2  C   UNL     1       1.584   8.339  20.007  0.00  0.00    +0.000 C 
ATOM      3  O   UNL     1       0.968   8.790  19.049  0.00  0.00    +0.000 OA
ATOM      4  N   UNL     1       2.522   7.332  19.872  0.00  0.00    +0.000 N 
ATOM      5  H   UNL     1       1.748   8.056  22.009  0.00  0.00    +0.000 HD
ATOM      6  H   UNL     1       3.300   7.407  20.506  0.00  0.00    +0.000 HD
ENDROOT
BRANCH   1  11
ATOM      7  C   UNL     1      -1.827  13.054  23.189  0.00  0.00    +0.000 C 
ATOM      8  C   UNL     1      -1.025  11.897  22.680  0.00  0.00    +0.000 A 
ATOM      9  C   UNL     1      -1.162  10.629  23.243  0.00  0.00    +0.000 A 
ATOM     10  C   UNL     1      -0.375   9.569  22.786  0.00  0.00    +0.000 A 
ATOM     11  C   UNL     1       0.568   9.752  21.769  0.00  0.00    +0.000 A 
ATOM     12  C   UNL     1       0.675  11.010  21.176  0.00  0.00    +0.000 A 
ATOM     13  C   UNL     1      -0.113  12.066  21.636  0.00  0.00    +0.000 A 
ATOM     14  F   UNL     1       0.030  13.269  21.067  0.00  0.00    +0.000 F 
ENDBRANCH   1  11
BRANCH   4  15
ATOM     15  C   UNL     1       2.834   6.868  18.526  0.00  0.00    +0.000 C 
ATOM     16  C   UNL     1       3.104   8.046  17.589  0.00  0.00    +0.000 C 
BRANCH  15  17
ATOM     17  C   UNL     1       3.937   5.816  18.489  0.00  0.00    +0.000 A 
ATOM     18  C   UNL     1       3.795   4.497  18.944  0.00  0.00    +0.000 A 
ATOM     19  S   UNL     1       5.188   3.554  18.689  0.00  0.00    +0.000 S 
ATOM     20  C   UNL     1       6.028   4.823  17.951  0.00  0.00    +0.000 A 
ATOM     21  C   UNL     1       7.419   4.579  17.456  0.00  0.00    +0.000 C 
ATOM     22  C   UNL     1       5.270   5.984  17.877  0.00  0.00    +0.000 A 
ATOM     23  C   UNL     1       5.787   7.229  17.222  0.00  0.00    +0.000 C 
BRANCH  18  24
ATOM     24  N   UNL     1       2.696   3.828  19.545  0.00  0.00    +0.000 N 
ATOM     25  C   UNL     1       2.367   3.738  20.887  0.00  0.00    +0.000 A 
ATOM     26  C   UNL     1       1.135   3.141  21.043  0.00  0.00    +0.000 A 
ATOM     27  C   UNL     1       0.709   2.742  19.768  0.00  0.00    +0.000 A 
ATOM     28  C   UNL     1       1.692   3.118  18.882  0.00  0.00    +0.000 A 
ENDBRANCH  18  24
ENDBRANCH  15  17
ENDBRANCH   4  15
TORSDOF 4
ENDMDL
MODEL 8
REMARK VINA RESULT:      -6.8      1.484      1.992
REMARK  Name = 
REMARK  8 active torsions:
REMARK  status: ('A' for Active; 'I' for Inactive)
REMARK    1  A    between atoms: C_1  and  C_2
REMARK    2  A    between atoms: C_5  and  N_6
REMARK    3  A    between atoms: N_9  and  C_10
REMARK    4  A    between atoms: C_10  and  C_11
REMARK    5  A    between atoms: C_10  and  C_12
REMARK    6  A    between atoms: C_13  and  N_14
REMARK    7  A    between atoms: C_20  and  C_21
REMARK    8  A    between atoms: C_22  and  C_23
REMARK                            x       y       z     vdW  Elec       q    Type
REMARK                         _______ _______ _______ _____ _____    ______ ____
ROOT
ATOM      1  N   UNL     1       2.159   7.231  20.118  0.00  0.00    +0.000 N 
ATOM      2  C   UNL     1       1.801   8.181  19.188  0.00  0.00    +0.000 C 
ATOM      3  O   UNL     1       1.803   8.034  17.972  0.00  0.00    +0.000 OA
ATOM      4  N   UNL     1       1.450   9.379  19.784  0.00  0.00    +0.000 N 
ATOM      5  H   UNL     1       2.417   7.588  21.026  0.00  0.00    +0.000 HD
ATOM      6  H   UNL     1       0.967   9.277  20.661  0.00  0.00    +0.000 HD
ENDROOT
BRANCH   1  11
ATOM      7  C   UNL     1       3.754   1.926  18.644  0.00  0.00    +0.000 C 
ATOM      8  C   UNL     1       3.331   3.294  19.084  0.00  0.00    +0.000 A 
ATOM      9  C   UNL     1       2.029   3.535  19.521  0.00  0.00    +0.000 A 
ATOM     10  C   UNL     1       1.638   4.825  19.887  0.00  0.00    +0.000 A 
ATOM     11  C   UNL     1       2.531   5.900  19.817  0.00  0.00    +0.000 A 
ATOM     12  C   UNL     1       3.846   5.652  19.421  0.00  0.00    +0.000 A 
ATOM     13  C   UNL     1       4.231   4.362  19.056  0.00  0.00    +0.000 A 
ATOM     14  F   UNL     1       5.492   4.157  18.654  0.00  0.00    +0.000 F 
ENDBRANCH   1  11
BRANCH   4  15
ATOM     15  C   UNL     1       0.991  10.460  18.921  0.00  0.00    +0.000 C 
ATOM     16  C   UNL     1      -0.473  10.260  18.524  0.00  0.00    +0.000 C 
BRANCH  15  17
ATOM     17  C   UNL     1       1.266  11.848  19.490  0.00  0.00    +0.000 A 
ATOM     18  C   UNL     1       0.728  12.338  20.688  0.00  0.00    +0.000 A 
ATOM     19  S   UNL     1       1.295  13.893  21.083  0.00  0.00    +0.000 S 
ATOM     20  C   UNL     1       2.287  13.982  19.716  0.00  0.00    +0.000 A 
ATOM     21  C   UNL     1       3.118  15.209  19.503  0.00  0.00    +0.000 C 
ATOM     22  C   UNL     1       2.214  12.835  18.936  0.00  0.00    +0.000 A 
ATOM     23  C   UNL     1       3.040  12.663  17.698  0.00  0.00    +0.000 C 
BRANCH  18  24
ATOM     24  N   UNL     1      -0.172  11.753  21.619  0.00  0.00    +0.000 N 
ATOM     25  C   UNL     1      -0.062  10.545  22.287  0.00  0.00    +0.000 A 
ATOM     26  C   UNL     1      -1.062  10.420  23.226  0.00  0.00    +0.000 A 
ATOM     27  C   UNL     1      -1.899  11.535  23.083  0.00  0.00    +0.000 A 
ATOM     28  C   UNL     1      -1.374  12.303  22.069  0.00  0.00    +0.000 A 
ENDBRANCH  18  24
ENDBRANCH  15  17
ENDBRANCH   4  15
TORSDOF 4
ENDMDL
MODEL 9
REMARK VINA RESULT:      -6.7      2.468      3.903
REMARK  Name = 
REMARK  8 active torsions:
REMARK  status: ('A' for Active; 'I' for Inactive)
REMARK    1  A    between atoms: C_1  and  C_2
REMARK    2  A    between atoms: C_5  and  N_6
REMARK    3  A    between atoms: N_9  and  C_10
REMARK    4  A    between atoms: C_10  and  C_11
REMARK    5  A    between atoms: C_10  and  C_12
REMARK    6  A    between atoms: C_13  and  N_14
REMARK    7  A    between atoms: C_20  and  C_21
REMARK    8  A    between atoms: C_22  and  C_23
REMARK                            x       y       z     vdW  Elec       q    Type
REMARK                         _______ _______ _______ _____ _____    ______ ____
ROOT
ATOM      1  N   UNL     1       1.486   8.748  17.918  0.00  0.00    +0.000 N 
ATOM      2  C   UNL     1       1.033   9.728  18.772  0.00  0.00    +0.000 C 
ATOM      3  O   UNL     1       1.312   9.831  19.961  0.00  0.00    +0.000 OA
ATOM      4  N   UNL     1       0.172  10.606  18.139  0.00  0.00    +0.000 N 
ATOM      5  H   UNL     1       0.930   8.605  17.087  0.00  0.00    +0.000 HD
ATOM      6  H   UNL     1       0.412  10.798  17.181  0.00  0.00    +0.000 HD
ENDROOT
BRANCH   1  11
ATOM      7  C   UNL     1       5.176   4.513  19.061  0.00  0.00    +0.000 C 
ATOM      8  C   UNL     1       4.230   5.647  18.811  0.00  0.00    +0.000 A 
ATOM      9  C   UNL     1       3.142   5.870  19.654  0.00  0.00    +0.000 A 
ATOM     10  C   UNL     1       2.244   6.905  19.382  0.00  0.00    +0.000 A 
ATOM     11  C   UNL     1       2.405   7.730  18.264  0.00  0.00    +0.000 A 
ATOM     12  C   UNL     1       3.517   7.534  17.443  0.00  0.00    +0.000 A 
ATOM     13  C   UNL     1       4.411   6.499  17.719  0.00  0.00    +0.000 A 
ATOM     14  F   UNL     1       5.455   6.317  16.900  0.00  0.00    +0.000 F 
ENDBRANCH   1  11
BRANCH   4  15
ATOM     15  C   UNL     1      -0.340  11.732  18.910  0.00  0.00    +0.000 C 
ATOM     16  C   UNL     1       0.315  13.042  18.468  0.00  0.00    +0.000 C 
BRANCH  15  17
ATOM     17  C   UNL     1      -1.863  11.808  18.932  0.00  0.00    +0.000 A 
ATOM     18  C   UNL     1      -2.616  12.371  19.972  0.00  0.00    +0.000 A 
ATOM     19  S   UNL     1      -4.288  12.371  19.655  0.00  0.00    +0.000 S 
ATOM     20  C   UNL     1      -4.095  11.658  18.133  0.00  0.00    +0.000 A 
ATOM     21  C   UNL     1      -5.309  11.398  17.297  0.00  0.00    +0.000 C 
ATOM     22  C   UNL     1      -2.763  11.410  17.832  0.00  0.00    +0.000 A 
ATOM     23  C   UNL     1      -2.342  10.824  16.518  0.00  0.00    +0.000 C 
BRANCH  18  24
ATOM     24  N   UNL     1      -2.221  12.951  21.207  0.00  0.00    +0.000 N 
ATOM     25  C   UNL     1      -1.890  12.318  22.393  0.00  0.00    +0.000 A 
ATOM     26  C   UNL     1      -1.402  13.227  23.306  0.00  0.00    +0.000 A 
ATOM     27  C   UNL     1      -1.522  14.497  22.723  0.00  0.00    +0.000 A 
ATOM     28  C   UNL     1      -2.070  14.313  21.474  0.00  0.00    +0.000 A 
ENDBRANCH  18  24
ENDBRANCH  15  17
ENDBRANCH   4  15
TORSDOF 4
ENDMDL
