MODEL 1
REMARK VINA RESULT:      -9.0      0.000      0.000
REMARK  Name = 
REMARK  6 active torsions:
REMARK  status: ('A' for Active; 'I' for Inactive)
REMARK    1  A    between atoms: C_2  and  O_3
REMARK    2  A    between atoms: C_2  and  C_17
REMARK    3  A    between atoms: O_3  and  C_4
REMARK    4  A    between atoms: C_4  and  C_5
REMARK    5  A    between atoms: C_8  and  C_9
REMARK    6  A    between atoms: C_23  and  O_24
REMARK                            x       y       z     vdW  Elec       q    Type
REMARK                         _______ _______ _______ _____ _____    ______ ____
ROOT
ATOM      1  O   UNL     1       3.498   6.860  17.658  0.00  0.00    +0.000 OA
ATOM      2  C   UNL     1       4.007   5.749  17.598  0.00  0.00    +0.000 C 
ENDROOT
BRANCH   2   3
ATOM      3  C   UNL     1       3.428   4.491  18.262  0.00  0.00    +0.000 C 
ATOM      4  C   UNL     1       3.025   3.455  17.178  0.00  0.00    +0.000 C 
ATOM      5  C   UNL     1       2.423   2.192  17.818  0.00  0.00    +0.000 C 
ATOM      6  C   UNL     1       3.464   1.560  18.755  0.00  0.00    +0.000 C 
ATOM      7  C   UNL     1       3.862   2.561  19.852  0.00  0.00    +0.000 C 
ATOM      8  C   UNL     1       2.609   2.944  20.657  0.00  0.00    +0.000 C 
ATOM      9  C   UNL     1       1.566   3.587  19.726  0.00  0.00    +0.000 C 
ATOM     10  C   UNL     1       1.178   2.581  18.630  0.00  0.00    +0.000 C 
ATOM     11  C   UNL     1       2.164   4.848  19.076  0.00  0.00    +0.000 C 
ATOM     12  C   UNL     1       4.458   3.827  19.204  0.00  0.00    +0.000 C 
BRANCH   9  13
ATOM     13  O   UNL     1       0.415   3.955  20.473  0.00  0.00    +0.000 OA
ATOM     14  H   UNL     1       0.458   4.910  20.645  0.00  0.00    +0.000 HD
ENDBRANCH   9  13
ENDBRANCH   2   3
BRANCH   2  15
ATOM     15  O   UNL     1       5.189   5.491  16.972  0.00  0.00    +0.000 OA
BRANCH  15  16
ATOM     16  C   UNL     1       5.846   6.634  16.385  0.00  0.00    +0.000 C 
BRANCH  16  17
ATOM     17  C   UNL     1       6.939   7.118  17.265  0.00  0.00    +0.000 A 
ATOM     18  N   UNL     1       7.666   6.467  18.150  0.00  0.00    +0.000 NA
ATOM     19  N   UNL     1       8.463   7.411  18.773  0.00  0.00    +0.000 NA
ATOM     20  C   UNL     1       8.164   8.577  18.232  0.00  0.00    +0.000 A 
ATOM     21  O   UNL     1       7.190   8.468  17.269  0.00  0.00    +0.000 OA
BRANCH  20  22
ATOM     22  C   UNL     1       8.702   9.909  18.499  0.00  0.00    +0.000 A 
ATOM     23  C   UNL     1       9.466  10.140  19.656  0.00  0.00    +0.000 A 
ATOM     24  C   UNL     1      10.015  11.404  19.914  0.00  0.00    +0.000 A 
ATOM     25  C   UNL     1       9.798  12.450  19.021  0.00  0.00    +0.000 A 
ATOM     26 CL   UNL     1      10.481  13.998  19.331  0.00  0.00    +0.000 Cl
ATOM     27  C   UNL     1       9.032  12.247  17.878  0.00  0.00    +0.000 A 
ATOM     28  C   UNL     1       8.488  10.982  17.619  0.00  0.00    +0.000 A 
ENDBRANCH  20  22
ENDBRANCH  16  17
ENDBRANCH  15  16
ENDBRANCH   2  15
TORSDOF 6
ENDMDL
MODEL 2
REMARK VINA RESULT:      -8.9      1.172      2.146
REMARK  Name = 
REMARK  6 active torsions:
REMARK  status: ('A' for Active; 'I' for Inactive)
REMARK    1  A    between atoms: C_2  and  O_3
REMARK    2  A    between atoms: C_2  and  C_17
REMARK    3  A    between atoms: O_3  and  C_4
REMARK    4  A    between atoms: C_4  and  C_5
REMARK    5  A    between atoms: C_8  and  C_9
REMARK    6  A    between atoms: C_23  and  O_24
REMARK                            x       y       z     vdW  Elec       q    Type
REMARK                         _______ _______ _______ _____ _____    ______ ____
ROOT
ATOM      1  O   UNL     1       3.395   6.881  17.527  0.00  0.00    +0.000 OA
ATOM      2  C   UNL     1       4.011   5.850  17.764  0.00  0.00    +0.000 C 
ENDROOT
BRANCH   2   3
ATOM      3  C   UNL     1       3.404   4.611  18.439  0.00  0.00    +0.000 C 
ATOM      4  C   UNL     1       2.611   5.030  19.706  0.00  0.00    +0.000 C 
ATOM      5  C   UNL     1       2.010   3.802  20.412  0.00  0.00    +0.000 C 
ATOM      6  C   UNL     1       1.063   3.080  19.441  0.00  0.00    +0.000 C 
ATOM      7  C   UNL     1       1.832   2.635  18.187  0.00  0.00    +0.000 C 
ATOM      8  C   UNL     1       2.964   1.683  18.607  0.00  0.00    +0.000 C 
ATOM      9  C   UNL     1       3.923   2.403  19.572  0.00  0.00    +0.000 C 
ATOM     10  C   UNL     1       3.144   2.849  20.820  0.00  0.00    +0.000 C 
ATOM     11  C   UNL     1       4.523   3.637  18.874  0.00  0.00    +0.000 C 
ATOM     12  C   UNL     1       2.438   3.869  17.488  0.00  0.00    +0.000 C 
BRANCH   9  13
ATOM     13  O   UNL     1       4.977   1.528  19.948  0.00  0.00    +0.000 OA
ATOM     14  H   UNL     1       5.179   0.953  19.190  0.00  0.00    +0.000 HD
ENDBRANCH   9  13
ENDBRANCH   2   3
BRANCH   2  15
ATOM     15  O   UNL     1       5.337   5.685  17.504  0.00  0.00    +0.000 OA
BRANCH  15  16
ATOM     16  C   UNL     1       5.953   6.729  16.720  0.00  0.00    +0.000 C 
BRANCH  16  17
ATOM     17  C   UNL     1       7.070   7.356  17.471  0.00  0.00    +0.000 A 
ATOM     18  N   UNL     1       7.851   6.854  18.406  0.00  0.00    +0.000 NA
ATOM     19  N   UNL     1       8.648   7.893  18.849  0.00  0.00    +0.000 NA
ATOM     20  C   UNL     1       8.297   8.962  18.161  0.00  0.00    +0.000 A 
ATOM     21  O   UNL     1       7.286   8.697  17.269  0.00  0.00    +0.000 OA
BRANCH  20  22
ATOM     22  C   UNL     1       8.812  10.329  18.209  0.00  0.00    +0.000 A 
ATOM     23  C   UNL     1       8.118  11.366  17.561  0.00  0.00    +0.000 A 
ATOM     24  C   UNL     1       8.582  12.687  17.621  0.00  0.00    +0.000 A 
ATOM     25  C   UNL     1       9.747  12.983  18.324  0.00  0.00    +0.000 A 
ATOM     26 CL   UNL     1      10.311  14.606  18.408  0.00  0.00    +0.000 Cl
ATOM     27  C   UNL     1      10.458  11.969  18.958  0.00  0.00    +0.000 A 
ATOM     28  C   UNL     1       9.991  10.649  18.902  0.00  0.00    +0.000 A 
ENDBRANCH  20  22
ENDBRANCH  16  17
ENDBRANCH  15  16
ENDBRANCH   2  15
TORSDOF 6
ENDMDL
MODEL 3
REMARK VINA RESULT:      -8.9      5.843      7.739
REMARK  Name = 
REMARK  6 active torsions:
REMARK  status: ('A' for Active; 'I' for Inactive)
REMARK    1  A    between atoms: C_2  and  O_3
REMARK    2  A    between atoms: C_2  and  C_17
REMARK    3  A    between atoms: O_3  and  C_4
REMARK    4  A    between atoms: C_4  and  C_5
REMARK    5  A    between atoms: C_8  and  C_9
REMARK    6  A    between atoms: C_23  and  O_24
REMARK                            x       y       z     vdW  Elec       q    Type
REMARK                         _______ _______ _______ _____ _____    ______ ____
ROOT
ATOM      1  O   UNL     1       4.531   6.609  18.304  0.00  0.00    +0.000 OA
ATOM      2  C   UNL     1       3.369   6.226  18.358  0.00  0.00    +0.000 C 
ENDROOT
BRANCH   2   3
ATOM      3  C   UNL     1       2.933   4.843  18.861  0.00  0.00    +0.000 C 
ATOM      4  C   UNL     1       2.121   4.988  20.177  0.00  0.00    +0.000 C 
ATOM      5  C   UNL     1       1.689   3.612  20.713  0.00  0.00    +0.000 C 
ATOM      6  C   UNL     1       0.816   2.914  19.658  0.00  0.00    +0.000 C 
ATOM      7  C   UNL     1       1.608   2.739  18.352  0.00  0.00    +0.000 C 
ATOM      8  C   UNL     1       2.855   1.886  18.634  0.00  0.00    +0.000 C 
ATOM      9  C   UNL     1       3.740   2.584  19.683  0.00  0.00    +0.000 C 
ATOM     10  C   UNL     1       2.939   2.760  20.984  0.00  0.00    +0.000 C 
ATOM     11  C   UNL     1       4.170   3.965  19.156  0.00  0.00    +0.000 C 
ATOM     12  C   UNL     1       2.044   4.120  17.823  0.00  0.00    +0.000 C 
BRANCH   9  13
ATOM     13  O   UNL     1       4.900   1.803  19.932  0.00  0.00    +0.000 OA
ATOM     14  H   UNL     1       5.680   2.363  19.781  0.00  0.00    +0.000 HD
ENDBRANCH   9  13
ENDBRANCH   2   3
BRANCH   2  15
ATOM     15  O   UNL     1       2.309   6.965  17.928  0.00  0.00    +0.000 OA
BRANCH  15  16
ATOM     16  C   UNL     1       2.529   8.389  17.855  0.00  0.00    +0.000 C 
BRANCH  16  17
ATOM     17  C   UNL     1       1.452   9.121  18.568  0.00  0.00    +0.000 A 
ATOM     18  N   UNL     1       1.329   9.415  19.847  0.00  0.00    +0.000 NA
ATOM     19  N   UNL     1       0.088  10.006  19.994  0.00  0.00    +0.000 NA
ATOM     20  C   UNL     1      -0.468  10.027  18.798  0.00  0.00    +0.000 A 
ATOM     21  O   UNL     1       0.341   9.468  17.839  0.00  0.00    +0.000 OA
BRANCH  20  22
ATOM     22  C   UNL     1      -1.767  10.543  18.368  0.00  0.00    +0.000 A 
ATOM     23  C   UNL     1      -2.417  11.530  19.126  0.00  0.00    +0.000 A 
ATOM     24  C   UNL     1      -3.649  12.057  18.714  0.00  0.00    +0.000 A 
ATOM     25  C   UNL     1      -4.244  11.595  17.542  0.00  0.00    +0.000 A 
ATOM     26 CL   UNL     1      -5.751  12.249  17.029  0.00  0.00    +0.000 Cl
ATOM     27  C   UNL     1      -3.625  10.606  16.786  0.00  0.00    +0.000 A 
ATOM     28  C   UNL     1      -2.391  10.084  17.197  0.00  0.00    +0.000 A 
ENDBRANCH  20  22
ENDBRANCH  16  17
ENDBRANCH  15  16
ENDBRANCH   2  15
TORSDOF 6
ENDMDL
MODEL 4
REMARK VINA RESULT:      -8.9      5.832      7.756
REMARK  Name = 
REMARK  6 active torsions:
REMARK  status: ('A' for Active; 'I' for Inactive)
REMARK    1  A    between atoms: C_2  and  O_3
REMARK    2  A    between atoms: C_2  and  C_17
REMARK    3  A    between atoms: O_3  and  C_4
REMARK    4  A    between atoms: C_4  and  C_5
REMARK    5  A    between atoms: C_8  and  C_9
REMARK    6  A    between atoms: C_23  and  O_24
REMARK                            x       y       z     vdW  Elec       q    Type
REMARK                         _______ _______ _______ _____ _____    ______ ____
ROOT
ATOM      1  O   UNL     1       4.079   6.317  16.972  0.00  0.00    +0.000 OA
ATOM      2  C   UNL     1       3.455   6.221  18.021  0.00  0.00    +0.000 C 
ENDROOT
BRANCH   2   3
ATOM      3  C   UNL     1       2.990   4.893  18.637  0.00  0.00    +0.000 C 
ATOM      4  C   UNL     1       2.175   5.164  19.930  0.00  0.00    +0.000 C 
ATOM      5  C   UNL     1       1.715   3.847  20.579  0.00  0.00    +0.000 C 
ATOM      6  C   UNL     1       0.835   3.078  19.581  0.00  0.00    +0.000 C 
ATOM      7  C   UNL     1       1.630   2.778  18.299  0.00  0.00    +0.000 C 
ATOM      8  C   UNL     1       2.860   1.930  18.662  0.00  0.00    +0.000 C 
ATOM      9  C   UNL     1       3.751   2.699  19.654  0.00  0.00    +0.000 C 
ATOM     10  C   UNL     1       2.947   2.999  20.929  0.00  0.00    +0.000 C 
ATOM     11  C   UNL     1       4.210   4.022  19.014  0.00  0.00    +0.000 C 
ATOM     12  C   UNL     1       2.094   4.101  17.658  0.00  0.00    +0.000 C 
BRANCH   9  13
ATOM     13  O   UNL     1       4.896   1.922  19.977  0.00  0.00    +0.000 OA
ATOM     14  H   UNL     1       5.662   2.305  19.518  0.00  0.00    +0.000 HD
ENDBRANCH   9  13
ENDBRANCH   2   3
BRANCH   2  15
ATOM     15  O   UNL     1       3.045   7.291  18.757  0.00  0.00    +0.000 OA
BRANCH  15  16
ATOM     16  C   UNL     1       2.559   8.419  18.000  0.00  0.00    +0.000 C 
BRANCH  16  17
ATOM     17  C   UNL     1       1.433   9.078  18.708  0.00  0.00    +0.000 A 
ATOM     18  N   UNL     1       1.217   9.232  19.999  0.00  0.00    +0.000 NA
ATOM     19  N   UNL     1      -0.032   9.813  20.120  0.00  0.00    +0.000 NA
ATOM     20  C   UNL     1      -0.498   9.970  18.895  0.00  0.00    +0.000 A 
ATOM     21  O   UNL     1       0.379   9.513  17.943  0.00  0.00    +0.000 OA
BRANCH  20  22
ATOM     22  C   UNL     1      -1.761  10.541  18.431  0.00  0.00    +0.000 A 
ATOM     23  C   UNL     1      -2.381  10.031  17.277  0.00  0.00    +0.000 A 
ATOM     24  C   UNL     1      -3.607  10.547  16.833  0.00  0.00    +0.000 A 
ATOM     25  C   UNL     1      -4.219  11.582  17.534  0.00  0.00    +0.000 A 
ATOM     26 CL   UNL     1      -5.729  12.208  16.997  0.00  0.00    +0.000 Cl
ATOM     27  C   UNL     1      -3.614  12.112  18.670  0.00  0.00    +0.000 A 
ATOM     28  C   UNL     1      -2.392  11.592  19.115  0.00  0.00    +0.000 A 
ENDBRANCH  20  22
ENDBRANCH  16  17
ENDBRANCH  15  16
ENDBRANCH   2  15
TORSDOF 6
ENDMDL
MODEL 5
REMARK VINA RESULT:      -8.9      5.597      7.052
REMARK  Name = 
REMARK  6 active torsions:
REMARK  status: ('A' for Active; 'I' for Inactive)
REMARK    1  A    between atoms: C_2  and  O_3
REMARK    2  A    between atoms: C_2  and  C_17
REMARK    3  A    between atoms: O_3  and  C_4
REMARK    4  A    between atoms: C_4  and  C_5
REMARK    5  A    between atoms: C_8  and  C_9
REMARK    6  A    between atoms: C_23  and  O_24
REMARK                            x       y       z     vdW  Elec       q    Type
REMARK                         _______ _______ _______ _____ _____    ______ ____
ROOT
ATOM      1  O   UNL     1       4.391   6.657  18.076  0.00  0.00    +0.000 OA
ATOM      2  C   UNL     1       3.311   6.407  18.594  0.00  0.00    +0.000 C 
ENDROOT
BRANCH   2   3
ATOM      3  C   UNL     1       2.864   5.007  19.040  0.00  0.00    +0.000 C 
ATOM      4  C   UNL     1       2.046   5.104  20.356  0.00  0.00    +0.000 C 
ATOM      5  C   UNL     1       1.603   3.710  20.835  0.00  0.00    +0.000 C 
ATOM      6  C   UNL     1       0.733   3.060  19.748  0.00  0.00    +0.000 C 
ATOM      7  C   UNL     1       1.531   2.932  18.440  0.00  0.00    +0.000 C 
ATOM      8  C   UNL     1       2.773   2.062  18.696  0.00  0.00    +0.000 C 
ATOM      9  C   UNL     1       3.654   2.713  19.776  0.00  0.00    +0.000 C 
ATOM     10  C   UNL     1       2.847   2.842  21.078  0.00  0.00    +0.000 C 
ATOM     11  C   UNL     1       4.095   4.111  19.307  0.00  0.00    +0.000 C 
ATOM     12  C   UNL     1       1.978   4.331  17.969  0.00  0.00    +0.000 C 
BRANCH   9  13
ATOM     13  O   UNL     1       4.809   1.917  20.002  0.00  0.00    +0.000 OA
ATOM     14  H   UNL     1       4.519   1.004  20.171  0.00  0.00    +0.000 HD
ENDBRANCH   9  13
ENDBRANCH   2   3
BRANCH   2  15
ATOM     15  O   UNL     1       2.337   7.336  18.797  0.00  0.00    +0.000 OA
BRANCH  15  16
ATOM     16  C   UNL     1       2.159   8.296  17.735  0.00  0.00    +0.000 C 
BRANCH  16  17
ATOM     17  C   UNL     1       1.677   9.592  18.276  0.00  0.00    +0.000 A 
ATOM     18  N   UNL     1       2.085  10.820  18.026  0.00  0.00    +0.000 NA
ATOM     19  N   UNL     1       1.379  11.648  18.879  0.00  0.00    +0.000 NA
ATOM     20  C   UNL     1       0.592  10.871  19.598  0.00  0.00    +0.000 A 
ATOM     21  O   UNL     1       0.737   9.543  19.275  0.00  0.00    +0.000 OA
BRANCH  20  22
ATOM     22  C   UNL     1      -0.374  11.209  20.642  0.00  0.00    +0.000 A 
ATOM     23  C   UNL     1      -0.229  10.676  21.934  0.00  0.00    +0.000 A 
ATOM     24  C   UNL     1      -1.128  11.012  22.955  0.00  0.00    +0.000 A 
ATOM     25  C   UNL     1      -2.185  11.879  22.691  0.00  0.00    +0.000 A 
ATOM     26 CL   UNL     1      -3.283  12.302  23.946  0.00  0.00    +0.000 Cl
ATOM     27  C   UNL     1      -2.356  12.406  21.415  0.00  0.00    +0.000 A 
ATOM     28  C   UNL     1      -1.454  12.072  20.396  0.00  0.00    +0.000 A 
ENDBRANCH  20  22
ENDBRANCH  16  17
ENDBRANCH  15  16
ENDBRANCH   2  15
TORSDOF 6
ENDMDL
MODEL 6
REMARK VINA RESULT:      -8.8      6.458      7.798
REMARK  Name = 
REMARK  6 active torsions:
REMARK  status: ('A' for Active; 'I' for Inactive)
REMARK    1  A    between atoms: C_2  and  O_3
REMARK    2  A    between atoms: C_2  and  C_17
REMARK    3  A    between atoms: O_3  and  C_4
REMARK    4  A    between atoms: C_4  and  C_5
REMARK    5  A    between atoms: C_8  and  C_9
REMARK    6  A    between atoms: C_23  and  O_24
REMARK                            x       y       z     vdW  Elec       q    Type
REMARK                         _______ _______ _______ _____ _____    ______ ____
ROOT
ATOM      1  O   UNL     1       3.076   7.312  18.095  0.00  0.00    +0.000 OA
ATOM      2  C   UNL     1       2.629   6.766  19.095  0.00  0.00    +0.000 C 
ENDROOT
BRANCH   2   3
ATOM      3  C   UNL     1       2.461   5.247  19.254  0.00  0.00    +0.000 C 
ATOM      4  C   UNL     1       1.579   4.937  20.493  0.00  0.00    +0.000 C 
ATOM      5  C   UNL     1       1.413   3.419  20.685  0.00  0.00    +0.000 C 
ATOM      6  C   UNL     1       0.749   2.825  19.433  0.00  0.00    +0.000 C 
ATOM      7  C   UNL     1       1.617   3.101  18.195  0.00  0.00    +0.000 C 
ATOM      8  C   UNL     1       2.999   2.458  18.401  0.00  0.00    +0.000 C 
ATOM      9  C   UNL     1       3.674   3.056  19.648  0.00  0.00    +0.000 C 
ATOM     10  C   UNL     1       2.796   2.780  20.880  0.00  0.00    +0.000 C 
ATOM     11  C   UNL     1       3.837   4.576  19.465  0.00  0.00    +0.000 C 
ATOM     12  C   UNL     1       1.787   4.623  18.011  0.00  0.00    +0.000 C 
BRANCH   9  13
ATOM     13  O   UNL     1       4.956   2.473  19.829  0.00  0.00    +0.000 OA
ATOM     14  H   UNL     1       5.625   3.110  19.526  0.00  0.00    +0.000 HD
ENDBRANCH   9  13
ENDBRANCH   2   3
BRANCH   2  15
ATOM     15  O   UNL     1       2.172   7.441  20.185  0.00  0.00    +0.000 OA
BRANCH  15  16
ATOM     16  C   UNL     1       1.371   8.608  19.905  0.00  0.00    +0.000 C 
BRANCH  16  17
ATOM     17  C   UNL     1       0.951   9.270  21.166  0.00  0.00    +0.000 A 
ATOM     18  N   UNL     1       1.187   8.934  22.419  0.00  0.00    +0.000 NA
ATOM     19  N   UNL     1       0.474   9.822  23.203  0.00  0.00    +0.000 NA
ATOM     20  C   UNL     1      -0.156  10.637  22.377  0.00  0.00    +0.000 A 
ATOM     21  O   UNL     1       0.094  10.337  21.060  0.00  0.00    +0.000 OA
BRANCH  20  22
ATOM     22  C   UNL     1      -1.040  11.767  22.656  0.00  0.00    +0.000 A 
ATOM     23  C   UNL     1      -0.651  13.069  22.296  0.00  0.00    +0.000 A 
ATOM     24  C   UNL     1      -1.498  14.162  22.529  0.00  0.00    +0.000 A 
ATOM     25  C   UNL     1      -2.738  13.962  23.130  0.00  0.00    +0.000 A 
ATOM     26 CL   UNL     1      -3.784  15.301  23.406  0.00  0.00    +0.000 Cl
ATOM     27  C   UNL     1      -3.135  12.684  23.509  0.00  0.00    +0.000 A 
ATOM     28  C   UNL     1      -2.289  11.592  23.271  0.00  0.00    +0.000 A 
ENDBRANCH  20  22
ENDBRANCH  16  17
ENDBRANCH  15  16
ENDBRANCH   2  15
TORSDOF 6
ENDMDL
MODEL 7
REMARK VINA RESULT:      -8.8      5.843      7.774
REMARK  Name = 
REMARK  6 active torsions:
REMARK  status: ('A' for Active; 'I' for Inactive)
REMARK    1  A    between atoms: C_2  and  O_3
REMARK    2  A    between atoms: C_2  and  C_17
REMARK    3  A    between atoms: O_3  and  C_4
REMARK    4  A    between atoms: C_4  and  C_5
REMARK    5  A    between atoms: C_8  and  C_9
REMARK    6  A    between atoms: C_23  and  O_24
REMARK                            x       y       z     vdW  Elec       q    Type
REMARK                         _______ _______ _______ _____ _____    ______ ____
ROOT
ATOM      1  O   UNL     1       2.259   7.365  20.297  0.00  0.00    +0.000 OA
ATOM      2  C   UNL     1       2.175   6.706  19.270  0.00  0.00    +0.000 C 
ENDROOT
BRANCH   2   3
ATOM      3  C   UNL     1       2.285   5.176  19.208  0.00  0.00    +0.000 C 
ATOM      4  C   UNL     1       1.417   4.534  20.324  0.00  0.00    +0.000 C 
ATOM      5  C   UNL     1       1.527   3.000  20.296  0.00  0.00    +0.000 C 
ATOM      6  C   UNL     1       1.046   2.489  18.928  0.00  0.00    +0.000 C 
ATOM      7  C   UNL     1       1.906   3.093  17.807  0.00  0.00    +0.000 C 
ATOM      8  C   UNL     1       3.371   2.682  18.025  0.00  0.00    +0.000 C 
ATOM      9  C   UNL     1       3.863   3.200  19.388  0.00  0.00    +0.000 C 
ATOM     10  C   UNL     1       2.994   2.594  20.503  0.00  0.00    +0.000 C 
ATOM     11  C   UNL     1       3.750   4.734  19.427  0.00  0.00    +0.000 C 
ATOM     12  C   UNL     1       1.798   4.631  17.845  0.00  0.00    +0.000 C 
BRANCH   9  13
ATOM     13  O   UNL     1       5.221   2.832  19.582  0.00  0.00    +0.000 OA
ATOM     14  H   UNL     1       5.246   2.075  20.192  0.00  0.00    +0.000 HD
ENDBRANCH   9  13
ENDBRANCH   2   3
BRANCH   2  15
ATOM     15  O   UNL     1       2.023   7.252  18.031  0.00  0.00    +0.000 OA
BRANCH  15  16
ATOM     16  C   UNL     1       2.712   8.500  17.811  0.00  0.00    +0.000 C 
BRANCH  16  17
ATOM     17  C   UNL     1       1.798   9.649  18.032  0.00  0.00    +0.000 A 
ATOM     18  N   UNL     1       2.053  10.862  18.480  0.00  0.00    +0.000 NA
ATOM     19  N   UNL     1       0.832  11.499  18.601  0.00  0.00    +0.000 NA
ATOM     20  C   UNL     1      -0.088  10.631  18.226  0.00  0.00    +0.000 A 
ATOM     21  O   UNL     1       0.455   9.423  17.859  0.00  0.00    +0.000 OA
BRANCH  20  22
ATOM     22  C   UNL     1      -1.542  10.769  18.146  0.00  0.00    +0.000 A 
ATOM     23  C   UNL     1      -2.286   9.905  17.324  0.00  0.00    +0.000 A 
ATOM     24  C   UNL     1      -3.683  10.004  17.256  0.00  0.00    +0.000 A 
ATOM     25  C   UNL     1      -4.346  10.973  18.005  0.00  0.00    +0.000 A 
ATOM     26 CL   UNL     1      -6.062  11.088  17.932  0.00  0.00    +0.000 Cl
ATOM     27  C   UNL     1      -3.627  11.848  18.812  0.00  0.00    +0.000 A 
ATOM     28  C   UNL     1      -2.231  11.745  18.882  0.00  0.00    +0.000 A 
ENDBRANCH  20  22
ENDBRANCH  16  17
ENDBRANCH  15  16
ENDBRANCH   2  15
TORSDOF 6
ENDMDL
MODEL 8
REMARK VINA RESULT:      -8.7      1.356      1.842
REMARK  Name = 
REMARK  6 active torsions:
REMARK  status: ('A' for Active; 'I' for Inactive)
REMARK    1  A    between atoms: C_2  and  O_3
REMARK    2  A    between atoms: C_2  and  C_17
REMARK    3  A    between atoms: O_3  and  C_4
REMARK    4  A    between atoms: C_4  and  C_5
REMARK    5  A    between atoms: C_8  and  C_9
REMARK    6  A    between atoms: C_23  and  O_24
REMARK                            x       y       z     vdW  Elec       q    Type
REMARK                         _______ _______ _______ _____ _____    ______ ____
ROOT
ATOM      1  O   UNL     1       6.185   5.109  20.088  0.00  0.00    +0.000 OA
ATOM      2  C   UNL     1       5.735   4.616  19.062  0.00  0.00    +0.000 C 
ENDROOT
BRANCH   2   3
ATOM      3  C   UNL     1       4.327   4.020  18.929  0.00  0.00    +0.000 C 
ATOM      4  C   UNL     1       3.824   4.163  17.467  0.00  0.00    +0.000 C 
ATOM      5  C   UNL     1       2.405   3.590  17.313  0.00  0.00    +0.000 C 
ATOM      6  C   UNL     1       2.420   2.102  17.697  0.00  0.00    +0.000 C 
ATOM      7  C   UNL     1       2.893   1.937  19.150  0.00  0.00    +0.000 C 
ATOM      8  C   UNL     1       1.932   2.699  20.077  0.00  0.00    +0.000 C 
ATOM      9  C   UNL     1       1.919   4.192  19.705  0.00  0.00    +0.000 C 
ATOM     10  C   UNL     1       1.450   4.347  18.249  0.00  0.00    +0.000 C 
ATOM     11  C   UNL     1       3.338   4.771  19.850  0.00  0.00    +0.000 C 
ATOM     12  C   UNL     1       4.313   2.520  19.300  0.00  0.00    +0.000 C 
BRANCH   9  13
ATOM     13  O   UNL     1       1.042   4.899  20.571  0.00  0.00    +0.000 OA
ATOM     14  H   UNL     1       1.258   5.845  20.515  0.00  0.00    +0.000 HD
ENDBRANCH   9  13
ENDBRANCH   2   3
BRANCH   2  15
ATOM     15  O   UNL     1       6.449   4.487  17.909  0.00  0.00    +0.000 OA
BRANCH  15  16
ATOM     16  C   UNL     1       7.713   5.182  17.877  0.00  0.00    +0.000 C 
BRANCH  16  17
ATOM     17  C   UNL     1       7.504   6.639  17.682  0.00  0.00    +0.000 A 
ATOM     18  N   UNL     1       6.692   7.277  16.864  0.00  0.00    +0.000 NA
ATOM     19  N   UNL     1       6.975   8.623  17.004  0.00  0.00    +0.000 NA
ATOM     20  C   UNL     1       7.946   8.717  17.892  0.00  0.00    +0.000 A 
ATOM     21  O   UNL     1       8.343   7.489  18.360  0.00  0.00    +0.000 OA
BRANCH  20  22
ATOM     22  C   UNL     1       8.628   9.895  18.426  0.00  0.00    +0.000 A 
ATOM     23  C   UNL     1       8.621  11.100  17.703  0.00  0.00    +0.000 A 
ATOM     24  C   UNL     1       9.245  12.248  18.213  0.00  0.00    +0.000 A 
ATOM     25  C   UNL     1       9.886  12.198  19.448  0.00  0.00    +0.000 A 
ATOM     26 CL   UNL     1      10.641  13.608  20.081  0.00  0.00    +0.000 Cl
ATOM     27  C   UNL     1       9.918  11.010  20.173  0.00  0.00    +0.000 A 
ATOM     28  C   UNL     1       9.290   9.866  19.664  0.00  0.00    +0.000 A 
ENDBRANCH  20  22
ENDBRANCH  16  17
ENDBRANCH  15  16
ENDBRANCH   2  15
TORSDOF 6
ENDMDL
MODEL 9
REMARK VINA RESULT:      -8.7      4.486      5.803
REMARK  Name = 
REMARK  6 active torsions:
REMARK  status: ('A' for Active; 'I' for Inactive)
REMARK    1  A    between atoms: C_2  and  O_3
REMARK    2  A    between atoms: C_2  and  C_17
REMARK    3  A    between atoms: O_3  and  C_4
REMARK    4  A    between atoms: C_4  and  C_5
REMARK    5  A    between atoms: C_8  and  C_9
REMARK    6  A    between atoms: C_23  and  O_24
REMARK                            x       y       z     vdW  Elec       q    Type
REMARK                         _______ _______ _______ _____ _____    ______ ____
ROOT
ATOM      1  O   UNL     1       2.433   7.210  20.149  0.00  0.00    +0.000 OA
ATOM      2  C   UNL     1       2.364   6.488  19.164  0.00  0.00    +0.000 C 
ENDROOT
BRANCH   2   3
ATOM      3  C   UNL     1       2.324   4.954  19.212  0.00  0.00    +0.000 C 
ATOM      4  C   UNL     1       1.309   4.481  20.287  0.00  0.00    +0.000 C 
ATOM      5  C   UNL     1       1.265   2.946  20.368  0.00  0.00    +0.000 C 
ATOM      6  C   UNL     1       0.848   2.383  19.001  0.00  0.00    +0.000 C 
ATOM      7  C   UNL     1       1.852   2.819  17.922  0.00  0.00    +0.000 C 
ATOM      8  C   UNL     1       3.246   2.288  18.294  0.00  0.00    +0.000 C 
ATOM      9  C   UNL     1       3.676   2.856  19.659  0.00  0.00    +0.000 C 
ATOM     10  C   UNL     1       2.662   2.419  20.730  0.00  0.00    +0.000 C 
ATOM     11  C   UNL     1       3.715   4.393  19.587  0.00  0.00    +0.000 C 
ATOM     12  C   UNL     1       1.897   4.359  17.850  0.00  0.00    +0.000 C 
BRANCH   9  13
ATOM     13  O   UNL     1       4.970   2.377  19.995  0.00  0.00    +0.000 OA
ATOM     14  H   UNL     1       4.912   1.415  20.130  0.00  0.00    +0.000 HD
ENDBRANCH   9  13
ENDBRANCH   2   3
BRANCH   2  15
ATOM     15  O   UNL     1       2.364   6.954  17.884  0.00  0.00    +0.000 OA
BRANCH  15  16
ATOM     16  C   UNL     1       3.474   7.804  17.529  0.00  0.00    +0.000 C 
BRANCH  16  17
ATOM     17  C   UNL     1       4.658   6.990  17.158  0.00  0.00    +0.000 A 
ATOM     18  N   UNL     1       5.805   6.826  17.786  0.00  0.00    +0.000 NA
ATOM     19  N   UNL     1       6.601   6.059  16.955  0.00  0.00    +0.000 NA
ATOM     20  C   UNL     1       5.890   5.812  15.871  0.00  0.00    +0.000 A 
ATOM     21  O   UNL     1       4.642   6.384  15.926  0.00  0.00    +0.000 OA
BRANCH  20  22
ATOM     22  C   UNL     1       6.228   5.044  14.674  0.00  0.00    +0.000 A 
ATOM     23  C   UNL     1       5.348   4.057  14.200  0.00  0.00    +0.000 A 
ATOM     24  C   UNL     1       5.641   3.330  13.037  0.00  0.00    +0.000 A 
ATOM     25  C   UNL     1       6.822   3.581  12.342  0.00  0.00    +0.000 A 
ATOM     26 CL   UNL     1       7.178   2.699  10.909  0.00  0.00    +0.000 Cl
ATOM     27  C   UNL     1       7.714   4.544  12.803  0.00  0.00    +0.000 A 
ATOM     28  C   UNL     1       7.417   5.272  13.963  0.00  0.00    +0.000 A 
ENDBRANCH  20  22
ENDBRANCH  16  17
ENDBRANCH  15  16
ENDBRANCH   2  15
TORSDOF 6
ENDMDL
