MODEL 1
REMARK VINA RESULT:      -7.9      0.000      0.000
REMARK  Name = 
REMARK  7 active torsions:
REMARK  status: ('A' for Active; 'I' for Inactive)
REMARK    1  A    between atoms: C_1  and  O_2
REMARK    2  A    between atoms: O_2  and  C_3
REMARK    3  A    between atoms: C_6  and  C_7
REMARK    4  A    between atoms: C_8  and  C_9
REMARK    5  A    between atoms: N_11  and  C_12
REMARK    6  A    between atoms: C_15  and  C_16
REMARK    7  A    between atoms: C_22  and  C_23
REMARK                            x       y       z     vdW  Elec       q    Type
REMARK                         _______ _______ _______ _____ _____    ______ ____
ROOT
ATOM      1  C   UNL     1       4.032   4.811  18.763  0.00  0.00    +0.000 A 
ATOM      2  C   UNL     1       2.907   5.575  19.229  0.00  0.00    +0.000 A 
ATOM      3  N   UNL     1       2.226   4.917  20.197  0.00  0.00    +0.000 NA
ATOM      4  N   UNL     1       2.919   3.767  20.404  0.00  0.00    +0.000 N 
ATOM      5  C   UNL     1       2.696   2.719  21.318  0.00  0.00    +0.000 A 
ATOM      6  C   UNL     1       1.522   2.782  22.252  0.00  0.00    +0.000 C 
ATOM      7  C   UNL     1       3.529   1.655  21.357  0.00  0.00    +0.000 A 
ATOM      8  C   UNL     1       4.668   1.508  20.423  0.00  0.00    +0.000 A 
ATOM      9  O   UNL     1       5.459   0.582  20.413  0.00  0.00    +0.000 OA
ATOM     10  N   UNL     1       4.833   2.571  19.492  0.00  0.00    +0.000 N 
ATOM     11  C   UNL     1       3.989   3.673  19.529  0.00  0.00    +0.000 A 
ATOM     12  H   UNL     1       5.572   2.484  18.806  0.00  0.00    +0.000 HD
ENDROOT
BRANCH   1  16
ATOM     13  C   UNL     1       6.868   5.498  15.625  0.00  0.00    +0.000 A 
ATOM     14  C   UNL     1       7.054   6.075  16.876  0.00  0.00    +0.000 A 
ATOM     15  C   UNL     1       6.115   5.889  17.897  0.00  0.00    +0.000 A 
ATOM     16  C   UNL     1       4.996   5.069  17.697  0.00  0.00    +0.000 A 
ATOM     17  C   UNL     1       4.822   4.493  16.431  0.00  0.00    +0.000 A 
ATOM     18  C   UNL     1       5.730   4.732  15.393  0.00  0.00    +0.000 A 
BRANCH  13  20
ATOM     19  C   UNL     1       7.664   5.172  13.423  0.00  0.00    +0.000 C 
ATOM     20  O   UNL     1       7.834   5.774  14.701  0.00  0.00    +0.000 OA
ENDBRANCH  13  20
ENDBRANCH   1  16
BRANCH   2  21
ATOM     21  C   UNL     1       2.509   6.920  18.741  0.00  0.00    +0.000 C 
ATOM     22  O   UNL     1       2.593   7.211  17.553  0.00  0.00    +0.000 OA
ATOM     23  N   UNL     1       2.063   7.804  19.706  0.00  0.00    +0.000 N 
ATOM     24  H   UNL     1       2.460   7.674  20.633  0.00  0.00    +0.000 HD
BRANCH  23  25
ATOM     25  C   UNL     1       1.575   9.090  19.352  0.00  0.00    +0.000 A 
ATOM     26  C   UNL     1       2.186   9.823  18.323  0.00  0.00    +0.000 A 
ATOM     27  C   UNL     1       1.721  11.097  17.977  0.00  0.00    +0.000 A 
ATOM     28  C   UNL     1       0.648  11.671  18.664  0.00  0.00    +0.000 A 
ATOM     29  C   UNL     1       0.160  13.048  18.322  0.00  0.00    +0.000 C 
ATOM     30  C   UNL     1       0.034  10.939  19.691  0.00  0.00    +0.000 A 
ATOM     31  C   UNL     1       0.480   9.650  20.017  0.00  0.00    +0.000 A 
ATOM     32 CL   UNL     1      -0.284   8.816  21.324  0.00  0.00    +0.000 Cl
ENDBRANCH  23  25
ENDBRANCH   2  21
TORSDOF 4
ENDMDL
MODEL 2
REMARK VINA RESULT:      -7.7      4.250     10.346
REMARK  Name = 
REMARK  7 active torsions:
REMARK  status: ('A' for Active; 'I' for Inactive)
REMARK    1  A    between atoms: C_1  and  O_2
REMARK    2  A    between atoms: O_2  and  C_3
REMARK    3  A    between atoms: C_6  and  C_7
REMARK    4  A    between atoms: C_8  and  C_9
REMARK    5  A    between atoms: N_11  and  C_12
REMARK    6  A    between atoms: C_15  and  C_16
REMARK    7  A    between atoms: C_22  and  C_23
REMARK                            x       y       z     vdW  Elec       q    Type
REMARK                         _______ _______ _______ _____ _____    ______ ____
ROOT
ATOM      1  C   UNL     1      -0.483  12.488  18.506  0.00  0.00    +0.000 A 
ATOM      2  C   UNL     1       0.710  11.688  18.566  0.00  0.00    +0.000 A 
ATOM      3  N   UNL     1       1.821  12.457  18.654  0.00  0.00    +0.000 NA
ATOM      4  N   UNL     1       1.367  13.737  18.706  0.00  0.00    +0.000 N 
ATOM      5  C   UNL     1       2.071  14.950  18.838  0.00  0.00    +0.000 A 
ATOM      6  C   UNL     1       3.569  14.936  18.932  0.00  0.00    +0.000 C 
ATOM      7  C   UNL     1       1.407  16.126  18.875  0.00  0.00    +0.000 A 
ATOM      8  C   UNL     1      -0.064  16.210  18.727  0.00  0.00    +0.000 A 
ATOM      9  O   UNL     1      -0.721  17.234  18.761  0.00  0.00    +0.000 OA
ATOM     10  N   UNL     1      -0.730  14.964  18.558  0.00  0.00    +0.000 N 
ATOM     11  C   UNL     1      -0.012  13.776  18.587  0.00  0.00    +0.000 A 
ATOM     12  H   UNL     1      -1.730  14.983  18.406  0.00  0.00    +0.000 HD
ENDROOT
BRANCH   1  16
ATOM     13  C   UNL     1      -4.591  11.355  18.055  0.00  0.00    +0.000 A 
ATOM     14  C   UNL     1      -3.698  11.188  17.002  0.00  0.00    +0.000 A 
ATOM     15  C   UNL     1      -2.363  11.590  17.124  0.00  0.00    +0.000 A 
ATOM     16  C   UNL     1      -1.884  12.116  18.332  0.00  0.00    +0.000 A 
ATOM     17  C   UNL     1      -2.795  12.278  19.385  0.00  0.00    +0.000 A 
ATOM     18  C   UNL     1      -4.143  11.934  19.238  0.00  0.00    +0.000 A 
BRANCH  13  20
ATOM     19  C   UNL     1      -6.589  10.439  18.925  0.00  0.00    +0.000 C 
ATOM     20  O   UNL     1      -5.872  10.954  17.808  0.00  0.00    +0.000 OA
ENDBRANCH  13  20
ENDBRANCH   1  16
BRANCH   2  21
ATOM     21  C   UNL     1       0.762  10.204  18.542  0.00  0.00    +0.000 C 
ATOM     22  O   UNL     1      -0.038   9.555  17.875  0.00  0.00    +0.000 OA
ATOM     23  N   UNL     1       1.744   9.622  19.322  0.00  0.00    +0.000 N 
ATOM     24  H   UNL     1       2.009  10.147  20.151  0.00  0.00    +0.000 HD
BRANCH  23  25
ATOM     25  C   UNL     1       1.947   8.217  19.315  0.00  0.00    +0.000 A 
ATOM     26  C   UNL     1       2.447   7.577  18.171  0.00  0.00    +0.000 A 
ATOM     27  C   UNL     1       2.638   6.190  18.150  0.00  0.00    +0.000 A 
ATOM     28  C   UNL     1       2.314   5.414  19.266  0.00  0.00    +0.000 A 
ATOM     29  C   UNL     1       2.484   3.922  19.245  0.00  0.00    +0.000 C 
ATOM     30  C   UNL     1       1.815   6.051  20.412  0.00  0.00    +0.000 A 
ATOM     31  C   UNL     1       1.655   7.443  20.444  0.00  0.00    +0.000 A 
ATOM     32 CL   UNL     1       0.990   8.167  21.866  0.00  0.00    +0.000 Cl
ENDBRANCH  23  25
ENDBRANCH   2  21
TORSDOF 4
ENDMDL
MODEL 3
REMARK VINA RESULT:      -7.6      7.952      9.867
REMARK  Name = 
REMARK  7 active torsions:
REMARK  status: ('A' for Active; 'I' for Inactive)
REMARK    1  A    between atoms: C_1  and  O_2
REMARK    2  A    between atoms: O_2  and  C_3
REMARK    3  A    between atoms: C_6  and  C_7
REMARK    4  A    between atoms: C_8  and  C_9
REMARK    5  A    between atoms: N_11  and  C_12
REMARK    6  A    between atoms: C_15  and  C_16
REMARK    7  A    between atoms: C_22  and  C_23
REMARK                            x       y       z     vdW  Elec       q    Type
REMARK                         _______ _______ _______ _____ _____    ______ ____
ROOT
ATOM      1  C   UNL     1      -1.459  12.439  18.981  0.00  0.00    +0.000 A 
ATOM      2  C   UNL     1      -2.303  12.531  20.141  0.00  0.00    +0.000 A 
ATOM      3  N   UNL     1      -3.567  12.129  19.870  0.00  0.00    +0.000 NA
ATOM      4  N   UNL     1      -3.544  11.729  18.571  0.00  0.00    +0.000 N 
ATOM      5  C   UNL     1      -4.563  11.182  17.767  0.00  0.00    +0.000 A 
ATOM      6  C   UNL     1      -5.937  10.980  18.340  0.00  0.00    +0.000 C 
ATOM      7  C   UNL     1      -4.315  10.844  16.483  0.00  0.00    +0.000 A 
ATOM      8  C   UNL     1      -2.999  11.073  15.845  0.00  0.00    +0.000 A 
ATOM      9  O   UNL     1      -2.709  10.783  14.699  0.00  0.00    +0.000 OA
ATOM     10  N   UNL     1      -2.011  11.662  16.682  0.00  0.00    +0.000 N 
ATOM     11  C   UNL     1      -2.294  11.937  18.013  0.00  0.00    +0.000 A 
ATOM     12  H   UNL     1      -1.113  11.878  16.269  0.00  0.00    +0.000 HD
ENDROOT
BRANCH   1  16
ATOM     13  C   UNL     1       2.647  13.532  18.418  0.00  0.00    +0.000 A 
ATOM     14  C   UNL     1       1.669  14.515  18.536  0.00  0.00    +0.000 A 
ATOM     15  C   UNL     1       0.321  14.170  18.681  0.00  0.00    +0.000 A 
ATOM     16  C   UNL     1      -0.066  12.825  18.770  0.00  0.00    +0.000 A 
ATOM     17  C   UNL     1       0.929  11.847  18.651  0.00  0.00    +0.000 A 
ATOM     18  C   UNL     1       2.268  12.194  18.442  0.00  0.00    +0.000 A 
BRANCH  13  20
ATOM     19  C   UNL     1       4.048  15.354  17.868  0.00  0.00    +0.000 C 
ATOM     20  O   UNL     1       3.922  13.989  18.251  0.00  0.00    +0.000 OA
ENDBRANCH  13  20
ENDBRANCH   1  16
BRANCH   2  21
ATOM     21  C   UNL     1      -1.880  12.998  21.487  0.00  0.00    +0.000 C 
ATOM     22  O   UNL     1      -1.154  12.309  22.195  0.00  0.00    +0.000 OA
ATOM     23  N   UNL     1      -2.369  14.231  21.878  0.00  0.00    +0.000 N 
ATOM     24  H   UNL     1      -3.274  14.483  21.490  0.00  0.00    +0.000 HD
BRANCH  23  25
ATOM     25  C   UNL     1      -1.968  14.821  23.105  0.00  0.00    +0.000 A 
ATOM     26  C   UNL     1      -2.687  14.569  24.283  0.00  0.00    +0.000 A 
ATOM     27  C   UNL     1      -2.307  15.157  25.495  0.00  0.00    +0.000 A 
ATOM     28  C   UNL     1      -1.213  16.025  25.549  0.00  0.00    +0.000 A 
ATOM     29  C   UNL     1      -0.815  16.687  26.836  0.00  0.00    +0.000 C 
ATOM     30  C   UNL     1      -0.491  16.278  24.373  0.00  0.00    +0.000 A 
ATOM     31  C   UNL     1      -0.853  15.663  23.166  0.00  0.00    +0.000 A 
ATOM     32 CL   UNL     1       0.044  16.050  21.740  0.00  0.00    +0.000 Cl
ENDBRANCH  23  25
ENDBRANCH   2  21
TORSDOF 4
ENDMDL
MODEL 4
REMARK VINA RESULT:      -7.6      4.318     10.314
REMARK  Name = 
REMARK  7 active torsions:
REMARK  status: ('A' for Active; 'I' for Inactive)
REMARK    1  A    between atoms: C_1  and  O_2
REMARK    2  A    between atoms: O_2  and  C_3
REMARK    3  A    between atoms: C_6  and  C_7
REMARK    4  A    between atoms: C_8  and  C_9
REMARK    5  A    between atoms: N_11  and  C_12
REMARK    6  A    between atoms: C_15  and  C_16
REMARK    7  A    between atoms: C_22  and  C_23
REMARK                            x       y       z     vdW  Elec       q    Type
REMARK                         _______ _______ _______ _____ _____    ______ ____
ROOT
ATOM      1  C   UNL     1      -0.452  12.335  18.591  0.00  0.00    +0.000 A 
ATOM      2  C   UNL     1       0.719  11.516  18.744  0.00  0.00    +0.000 A 
ATOM      3  N   UNL     1       1.839  12.266  18.867  0.00  0.00    +0.000 NA
ATOM      4  N   UNL     1       1.409  13.556  18.852  0.00  0.00    +0.000 N 
ATOM      5  C   UNL     1       2.129  14.759  18.983  0.00  0.00    +0.000 A 
ATOM      6  C   UNL     1       3.620  14.720  19.161  0.00  0.00    +0.000 C 
ATOM      7  C   UNL     1       1.488  15.948  18.944  0.00  0.00    +0.000 A 
ATOM      8  C   UNL     1       0.030  16.053  18.712  0.00  0.00    +0.000 A 
ATOM      9  O   UNL     1      -0.607  17.090  18.677  0.00  0.00    +0.000 OA
ATOM     10  N   UNL     1      -0.651  14.815  18.548  0.00  0.00    +0.000 N 
ATOM     11  C   UNL     1       0.039  13.615  18.656  0.00  0.00    +0.000 A 
ATOM     12  H   UNL     1      -1.640  14.847  18.340  0.00  0.00    +0.000 HD
ENDROOT
BRANCH   1  16
ATOM     13  C   UNL     1      -4.552  11.346  17.833  0.00  0.00    +0.000 A 
ATOM     14  C   UNL     1      -4.165  11.823  19.081  0.00  0.00    +0.000 A 
ATOM     15  C   UNL     1      -2.823  12.112  19.352  0.00  0.00    +0.000 A 
ATOM     16  C   UNL     1      -1.849  11.983  18.352  0.00  0.00    +0.000 A 
ATOM     17  C   UNL     1      -2.254  11.503  17.099  0.00  0.00    +0.000 A 
ATOM     18  C   UNL     1      -3.586  11.154  16.850  0.00  0.00    +0.000 A 
BRANCH  13  20
ATOM     19  C   UNL     1      -6.546  10.612  18.868  0.00  0.00    +0.000 C 
ATOM     20  O   UNL     1      -5.882  11.071  17.696  0.00  0.00    +0.000 OA
ENDBRANCH  13  20
ENDBRANCH   1  16
BRANCH   2  21
ATOM     21  C   UNL     1       0.742  10.030  18.771  0.00  0.00    +0.000 C 
ATOM     22  O   UNL     1       0.029   9.374  18.020  0.00  0.00    +0.000 OA
ATOM     23  N   UNL     1       1.594   9.457  19.697  0.00  0.00    +0.000 N 
ATOM     24  H   UNL     1       1.753  10.004  20.539  0.00  0.00    +0.000 HD
BRANCH  23  25
ATOM     25  C   UNL     1       1.766   8.050  19.761  0.00  0.00    +0.000 A 
ATOM     26  C   UNL     1       1.228   7.315  20.829  0.00  0.00    +0.000 A 
ATOM     27  C   UNL     1       1.404   5.929  20.907  0.00  0.00    +0.000 A 
ATOM     28  C   UNL     1       2.138   5.252  19.929  0.00  0.00    +0.000 A 
ATOM     29  C   UNL     1       2.361   3.770  20.018  0.00  0.00    +0.000 C 
ATOM     30  C   UNL     1       2.676   5.983  18.859  0.00  0.00    +0.000 A 
ATOM     31  C   UNL     1       2.471   7.367  18.764  0.00  0.00    +0.000 A 
ATOM     32 CL   UNL     1       3.198   8.222  17.450  0.00  0.00    +0.000 Cl
ENDBRANCH  23  25
ENDBRANCH   2  21
TORSDOF 4
ENDMDL
MODEL 5
REMARK VINA RESULT:      -7.5      7.903      9.814
REMARK  Name = 
REMARK  7 active torsions:
REMARK  status: ('A' for Active; 'I' for Inactive)
REMARK    1  A    between atoms: C_1  and  O_2
REMARK    2  A    between atoms: O_2  and  C_3
REMARK    3  A    between atoms: C_6  and  C_7
REMARK    4  A    between atoms: C_8  and  C_9
REMARK    5  A    between atoms: N_11  and  C_12
REMARK    6  A    between atoms: C_15  and  C_16
REMARK    7  A    between atoms: C_22  and  C_23
REMARK                            x       y       z     vdW  Elec       q    Type
REMARK                         _______ _______ _______ _____ _____    ______ ____
ROOT
ATOM      1  C   UNL     1      -1.521  12.381  18.998  0.00  0.00    +0.000 A 
ATOM      2  C   UNL     1      -2.372  12.487  20.152  0.00  0.00    +0.000 A 
ATOM      3  N   UNL     1      -3.635  12.084  19.878  0.00  0.00    +0.000 NA
ATOM      4  N   UNL     1      -3.605  11.668  18.584  0.00  0.00    +0.000 N 
ATOM      5  C   UNL     1      -4.619  11.113  17.781  0.00  0.00    +0.000 A 
ATOM      6  C   UNL     1      -5.997  10.919  18.347  0.00  0.00    +0.000 C 
ATOM      7  C   UNL     1      -4.363  10.758  16.502  0.00  0.00    +0.000 A 
ATOM      8  C   UNL     1      -3.044  10.979  15.869  0.00  0.00    +0.000 A 
ATOM      9  O   UNL     1      -2.746  10.674  14.729  0.00  0.00    +0.000 OA
ATOM     10  N   UNL     1      -2.060  11.576  16.705  0.00  0.00    +0.000 N 
ATOM     11  C   UNL     1      -2.350  11.868  18.032  0.00  0.00    +0.000 A 
ATOM     12  H   UNL     1      -1.159  11.786  16.296  0.00  0.00    +0.000 HD
ENDROOT
BRANCH   1  16
ATOM     13  C   UNL     1       2.589  13.463  18.447  0.00  0.00    +0.000 A 
ATOM     14  C   UNL     1       1.613  14.448  18.554  0.00  0.00    +0.000 A 
ATOM     15  C   UNL     1       0.263  14.106  18.696  0.00  0.00    +0.000 A 
ATOM     16  C   UNL     1      -0.127  12.763  18.791  0.00  0.00    +0.000 A 
ATOM     17  C   UNL     1       0.867  11.782  18.682  0.00  0.00    +0.000 A 
ATOM     18  C   UNL     1       2.208  12.125  18.477  0.00  0.00    +0.000 A 
BRANCH  13  20
ATOM     19  C   UNL     1       4.182  15.136  18.943  0.00  0.00    +0.000 C 
ATOM     20  O   UNL     1       3.866  13.916  18.283  0.00  0.00    +0.000 OA
ENDBRANCH  13  20
ENDBRANCH   1  16
BRANCH   2  21
ATOM     21  C   UNL     1      -1.957  12.971  21.494  0.00  0.00    +0.000 C 
ATOM     22  O   UNL     1      -1.230  12.292  22.213  0.00  0.00    +0.000 OA
ATOM     23  N   UNL     1      -2.454  14.204  21.871  0.00  0.00    +0.000 N 
ATOM     24  H   UNL     1      -3.359  14.448  21.478  0.00  0.00    +0.000 HD
BRANCH  23  25
ATOM     25  C   UNL     1      -2.061  14.810  23.093  0.00  0.00    +0.000 A 
ATOM     26  C   UNL     1      -0.961  15.680  23.135  0.00  0.00    +0.000 A 
ATOM     27  C   UNL     1      -0.557  16.270  24.338  0.00  0.00    +0.000 A 
ATOM     28  C   UNL     1      -1.234  15.987  25.527  0.00  0.00    +0.000 A 
ATOM     29  C   UNL     1      -0.792  16.589  26.829  0.00  0.00    +0.000 C 
ATOM     30  C   UNL     1      -2.336  15.120  25.490  0.00  0.00    +0.000 A 
ATOM     31  C   UNL     1      -2.759  14.554  24.278  0.00  0.00    +0.000 A 
ATOM     32 CL   UNL     1      -4.092  13.454  24.301  0.00  0.00    +0.000 Cl
ENDBRANCH  23  25
ENDBRANCH   2  21
TORSDOF 4
ENDMDL
MODEL 6
REMARK VINA RESULT:      -7.4      4.913     10.097
REMARK  Name = 
REMARK  7 active torsions:
REMARK  status: ('A' for Active; 'I' for Inactive)
REMARK    1  A    between atoms: C_1  and  O_2
REMARK    2  A    between atoms: O_2  and  C_3
REMARK    3  A    between atoms: C_6  and  C_7
REMARK    4  A    between atoms: C_8  and  C_9
REMARK    5  A    between atoms: N_11  and  C_12
REMARK    6  A    between atoms: C_15  and  C_16
REMARK    7  A    between atoms: C_22  and  C_23
REMARK                            x       y       z     vdW  Elec       q    Type
REMARK                         _______ _______ _______ _____ _____    ______ ____
ROOT
ATOM      1  C   UNL     1      -2.163  12.350  19.953  0.00  0.00    +0.000 A 
ATOM      2  C   UNL     1      -0.868  12.183  20.555  0.00  0.00    +0.000 A 
ATOM      3  N   UNL     1      -0.766  12.872  21.716  0.00  0.00    +0.000 NA
ATOM      4  N   UNL     1      -1.987  13.437  21.905  0.00  0.00    +0.000 N 
ATOM      5  C   UNL     1      -2.471  14.231  22.963  0.00  0.00    +0.000 A 
ATOM      6  C   UNL     1      -1.567  14.576  24.111  0.00  0.00    +0.000 C 
ATOM      7  C   UNL     1      -3.743  14.689  22.949  0.00  0.00    +0.000 A 
ATOM      8  C   UNL     1      -4.664  14.433  21.819  0.00  0.00    +0.000 A 
ATOM      9  O   UNL     1      -5.820  14.808  21.750  0.00  0.00    +0.000 OA
ATOM     10  N   UNL     1      -4.121  13.660  20.755  0.00  0.00    +0.000 N 
ATOM     11  C   UNL     1      -2.829  13.159  20.840  0.00  0.00    +0.000 A 
ATOM     12  H   UNL     1      -4.704  13.503  19.943  0.00  0.00    +0.000 HD
ENDROOT
BRANCH   1  16
ATOM     13  C   UNL     1      -3.774  10.888  16.261  0.00  0.00    +0.000 A 
ATOM     14  C   UNL     1      -2.437  11.264  16.343  0.00  0.00    +0.000 A 
ATOM     15  C   UNL     1      -1.910  11.778  17.533  0.00  0.00    +0.000 A 
ATOM     16  C   UNL     1      -2.704  11.872  18.684  0.00  0.00    +0.000 A 
ATOM     17  C   UNL     1      -4.048  11.489  18.587  0.00  0.00    +0.000 A 
ATOM     18  C   UNL     1      -4.589  11.035  17.379  0.00  0.00    +0.000 A 
BRANCH  13  20
ATOM     19  C   UNL     1      -3.147  10.032  14.150  0.00  0.00    +0.000 C 
ATOM     20  O   UNL     1      -4.182  10.429  15.042  0.00  0.00    +0.000 OA
ENDBRANCH  13  20
ENDBRANCH   1  16
BRANCH   2  21
ATOM     21  C   UNL     1       0.244  11.364  20.008  0.00  0.00    +0.000 C 
ATOM     22  O   UNL     1       1.345  11.859  19.790  0.00  0.00    +0.000 OA
ATOM     23  N   UNL     1      -0.052  10.038  19.751  0.00  0.00    +0.000 N 
ATOM     24  H   UNL     1      -1.020   9.848  19.505  0.00  0.00    +0.000 HD
BRANCH  23  25
ATOM     25  C   UNL     1       0.950   9.137  19.307  0.00  0.00    +0.000 A 
ATOM     26  C   UNL     1       1.401   9.172  17.979  0.00  0.00    +0.000 A 
ATOM     27  C   UNL     1       2.379   8.278  17.528  0.00  0.00    +0.000 A 
ATOM     28  C   UNL     1       2.912   7.318  18.392  0.00  0.00    +0.000 A 
ATOM     29  C   UNL     1       3.939   6.333  17.913  0.00  0.00    +0.000 C 
ATOM     30  C   UNL     1       2.466   7.281  19.721  0.00  0.00    +0.000 A 
ATOM     31  C   UNL     1       1.509   8.197  20.180  0.00  0.00    +0.000 A 
ATOM     32 CL   UNL     1       0.961   8.072  21.815  0.00  0.00    +0.000 Cl
ENDBRANCH  23  25
ENDBRANCH   2  21
TORSDOF 4
ENDMDL
MODEL 7
REMARK VINA RESULT:      -7.4      5.520     10.960
REMARK  Name = 
REMARK  7 active torsions:
REMARK  status: ('A' for Active; 'I' for Inactive)
REMARK    1  A    between atoms: C_1  and  O_2
REMARK    2  A    between atoms: O_2  and  C_3
REMARK    3  A    between atoms: C_6  and  C_7
REMARK    4  A    between atoms: C_8  and  C_9
REMARK    5  A    between atoms: N_11  and  C_12
REMARK    6  A    between atoms: C_15  and  C_16
REMARK    7  A    between atoms: C_22  and  C_23
REMARK                            x       y       z     vdW  Elec       q    Type
REMARK                         _______ _______ _______ _____ _____    ______ ____
ROOT
ATOM      1  C   UNL     1      -1.051  14.312  21.471  0.00  0.00    +0.000 A 
ATOM      2  C   UNL     1      -0.881  12.909  21.734  0.00  0.00    +0.000 A 
ATOM      3  N   UNL     1      -1.778  12.461  22.643  0.00  0.00    +0.000 NA
ATOM      4  N   UNL     1      -2.560  13.533  22.934  0.00  0.00    +0.000 N 
ATOM      5  C   UNL     1      -3.675  13.645  23.786  0.00  0.00    +0.000 A 
ATOM      6  C   UNL     1      -4.151  12.445  24.553  0.00  0.00    +0.000 C 
ATOM      7  C   UNL     1      -4.317  14.827  23.923  0.00  0.00    +0.000 A 
ATOM      8  C   UNL     1      -3.861  16.058  23.241  0.00  0.00    +0.000 A 
ATOM      9  O   UNL     1      -4.398  17.148  23.313  0.00  0.00    +0.000 OA
ATOM     10  N   UNL     1      -2.708  15.908  22.420  0.00  0.00    +0.000 N 
ATOM     11  C   UNL     1      -2.118  14.661  22.262  0.00  0.00    +0.000 A 
ATOM     12  H   UNL     1      -2.337  16.737  21.974  0.00  0.00    +0.000 HD
ENDROOT
BRANCH   1  16
ATOM     13  C   UNL     1       1.184  17.075  19.076  0.00  0.00    +0.000 A 
ATOM     14  C   UNL     1       0.117  16.373  18.526  0.00  0.00    +0.000 A 
ATOM     15  C   UNL     1      -0.596  15.441  19.287  0.00  0.00    +0.000 A 
ATOM     16  C   UNL     1      -0.286  15.236  20.639  0.00  0.00    +0.000 A 
ATOM     17  C   UNL     1       0.791  15.950  21.180  0.00  0.00    +0.000 A 
ATOM     18  C   UNL     1       1.543  16.835  20.399  0.00  0.00    +0.000 A 
BRANCH  13  20
ATOM     19  C   UNL     1       1.085  18.336  17.080  0.00  0.00    +0.000 C 
ATOM     20  O   UNL     1       1.821  17.935  18.230  0.00  0.00    +0.000 OA
ENDBRANCH  13  20
ENDBRANCH   1  16
BRANCH   2  21
ATOM     21  C   UNL     1       0.135  12.025  21.106  0.00  0.00    +0.000 C 
ATOM     22  O   UNL     1       1.334  12.233  21.259  0.00  0.00    +0.000 OA
ATOM     23  N   UNL     1      -0.360  10.987  20.340  0.00  0.00    +0.000 N 
ATOM     24  H   UNL     1      -1.256  11.163  19.893  0.00  0.00    +0.000 HD
BRANCH  23  25
ATOM     25  C   UNL     1       0.509  10.026  19.759  0.00  0.00    +0.000 A 
ATOM     26  C   UNL     1       0.881  10.128  18.410  0.00  0.00    +0.000 A 
ATOM     27  C   UNL     1       1.727   9.178  17.825  0.00  0.00    +0.000 A 
ATOM     28  C   UNL     1       2.202   8.097  18.573  0.00  0.00    +0.000 A 
ATOM     29  C   UNL     1       3.084   7.054  17.949  0.00  0.00    +0.000 C 
ATOM     30  C   UNL     1       1.834   7.993  19.922  0.00  0.00    +0.000 A 
ATOM     31  C   UNL     1       1.012   8.963  20.516  0.00  0.00    +0.000 A 
ATOM     32 CL   UNL     1       0.552   8.757  22.169  0.00  0.00    +0.000 Cl
ENDBRANCH  23  25
ENDBRANCH   2  21
TORSDOF 4
ENDMDL
MODEL 8
REMARK VINA RESULT:      -7.4      4.564      9.562
REMARK  Name = 
REMARK  7 active torsions:
REMARK  status: ('A' for Active; 'I' for Inactive)
REMARK    1  A    between atoms: C_1  and  O_2
REMARK    2  A    between atoms: O_2  and  C_3
REMARK    3  A    between atoms: C_6  and  C_7
REMARK    4  A    between atoms: C_8  and  C_9
REMARK    5  A    between atoms: N_11  and  C_12
REMARK    6  A    between atoms: C_15  and  C_16
REMARK    7  A    between atoms: C_22  and  C_23
REMARK                            x       y       z     vdW  Elec       q    Type
REMARK                         _______ _______ _______ _____ _____    ______ ____
ROOT
ATOM      1  C   UNL     1       0.099  12.675  21.278  0.00  0.00    +0.000 A 
ATOM      2  C   UNL     1      -0.112  11.372  21.848  0.00  0.00    +0.000 A 
ATOM      3  N   UNL     1      -1.196  11.352  22.658  0.00  0.00    +0.000 NA
ATOM      4  N   UNL     1      -1.723  12.603  22.582  0.00  0.00    +0.000 N 
ATOM      5  C   UNL     1      -2.874  13.146  23.184  0.00  0.00    +0.000 A 
ATOM      6  C   UNL     1      -3.719  12.292  24.084  0.00  0.00    +0.000 C 
ATOM      7  C   UNL     1      -3.220  14.434  22.962  0.00  0.00    +0.000 A 
ATOM      8  C   UNL     1      -2.396  15.342  22.133  0.00  0.00    +0.000 A 
ATOM      9  O   UNL     1      -2.657  16.506  21.886  0.00  0.00    +0.000 OA
ATOM     10  N   UNL     1      -1.223  14.762  21.575  0.00  0.00    +0.000 N 
ATOM     11  C   UNL     1      -0.940  13.418  21.781  0.00  0.00    +0.000 A 
ATOM     12  H   UNL     1      -0.610  15.363  21.042  0.00  0.00    +0.000 HD
ENDROOT
BRANCH   1  16
ATOM     13  C   UNL     1       3.212  14.254  18.793  0.00  0.00    +0.000 A 
ATOM     14  C   UNL     1       2.146  13.562  18.228  0.00  0.00    +0.000 A 
ATOM     15  C   UNL     1       1.144  13.009  19.032  0.00  0.00    +0.000 A 
ATOM     16  C   UNL     1       1.163  13.191  20.422  0.00  0.00    +0.000 A 
ATOM     17  C   UNL     1       2.242  13.891  20.978  0.00  0.00    +0.000 A 
ATOM     18  C   UNL     1       3.275  14.388  20.177  0.00  0.00    +0.000 A 
BRANCH  13  20
ATOM     19  C   UNL     1       5.381  15.138  18.477  0.00  0.00    +0.000 C 
ATOM     20  O   UNL     1       4.143  14.722  17.912  0.00  0.00    +0.000 OA
ENDBRANCH  13  20
ENDBRANCH   1  16
BRANCH   2  21
ATOM     21  C   UNL     1       0.727  10.171  21.602  0.00  0.00    +0.000 C 
ATOM     22  O   UNL     1       1.499   9.754  22.458  0.00  0.00    +0.000 OA
ATOM     23  N   UNL     1       0.588   9.583  20.358  0.00  0.00    +0.000 N 
ATOM     24  H   UNL     1       0.335  10.215  19.603  0.00  0.00    +0.000 HD
BRANCH  23  25
ATOM     25  C   UNL     1       1.273   8.382  20.036  0.00  0.00    +0.000 A 
ATOM     26  C   UNL     1       1.232   7.284  20.909  0.00  0.00    +0.000 A 
ATOM     27  C   UNL     1       1.916   6.101  20.606  0.00  0.00    +0.000 A 
ATOM     28  C   UNL     1       2.670   5.998  19.434  0.00  0.00    +0.000 A 
ATOM     29  C   UNL     1       3.433   4.745  19.113  0.00  0.00    +0.000 C 
ATOM     30  C   UNL     1       2.711   7.093  18.558  0.00  0.00    +0.000 A 
ATOM     31  C   UNL     1       2.000   8.267  18.846  0.00  0.00    +0.000 A 
ATOM     32 CL   UNL     1       2.128   9.600  17.754  0.00  0.00    +0.000 Cl
ENDBRANCH  23  25
ENDBRANCH   2  21
TORSDOF 4
ENDMDL
MODEL 9
REMARK VINA RESULT:      -7.3      7.475     11.413
REMARK  Name = 
REMARK  7 active torsions:
REMARK  status: ('A' for Active; 'I' for Inactive)
REMARK    1  A    between atoms: C_1  and  O_2
REMARK    2  A    between atoms: O_2  and  C_3
REMARK    3  A    between atoms: C_6  and  C_7
REMARK    4  A    between atoms: C_8  and  C_9
REMARK    5  A    between atoms: N_11  and  C_12
REMARK    6  A    between atoms: C_15  and  C_16
REMARK    7  A    between atoms: C_22  and  C_23
REMARK                            x       y       z     vdW  Elec       q    Type
REMARK                         _______ _______ _______ _____ _____    ______ ____
ROOT
ATOM      1  C   UNL     1      -3.156  13.581  22.215  0.00  0.00    +0.000 A 
ATOM      2  C   UNL     1      -2.990  14.955  21.826  0.00  0.00    +0.000 A 
ATOM      3  N   UNL     1      -4.108  15.680  22.069  0.00  0.00    +0.000 NA
ATOM      4  N   UNL     1      -4.975  14.814  22.657  0.00  0.00    +0.000 N 
ATOM      5  C   UNL     1      -6.274  15.024  23.158  0.00  0.00    +0.000 A 
ATOM      6  C   UNL     1      -6.899  16.386  23.064  0.00  0.00    +0.000 C 
ATOM      7  C   UNL     1      -6.964  14.006  23.718  0.00  0.00    +0.000 A 
ATOM      8  C   UNL     1      -6.426  12.628  23.787  0.00  0.00    +0.000 A 
ATOM      9  O   UNL     1      -6.992  11.672  24.285  0.00  0.00    +0.000 OA
ATOM     10  N   UNL     1      -5.127  12.454  23.235  0.00  0.00    +0.000 N 
ATOM     11  C   UNL     1      -4.430  13.542  22.725  0.00  0.00    +0.000 A 
ATOM     12  H   UNL     1      -4.744  11.518  23.220  0.00  0.00    +0.000 HD
ENDROOT
BRANCH   1  16
ATOM     13  C   UNL     1      -0.513  10.227  21.861  0.00  0.00    +0.000 A 
ATOM     14  C   UNL     1      -0.921  10.921  20.727  0.00  0.00    +0.000 A 
ATOM     15  C   UNL     1      -1.814  11.994  20.826  0.00  0.00    +0.000 A 
ATOM     16  C   UNL     1      -2.271  12.428  22.078  0.00  0.00    +0.000 A 
ATOM     17  C   UNL     1      -1.851  11.720  23.212  0.00  0.00    +0.000 A 
ATOM     18  C   UNL     1      -1.008  10.608  23.104  0.00  0.00    +0.000 A 
BRANCH  13  20
ATOM     19  C   UNL     1       0.979   9.164  20.367  0.00  0.00    +0.000 C 
ATOM     20  O   UNL     1       0.335   9.181  21.636  0.00  0.00    +0.000 OA
ENDBRANCH  13  20
ENDBRANCH   1  16
BRANCH   2  21
ATOM     21  C   UNL     1      -1.764  15.547  21.232  0.00  0.00    +0.000 C 
ATOM     22  O   UNL     1      -0.991  16.214  21.912  0.00  0.00    +0.000 OA
ATOM     23  N   UNL     1      -1.572  15.309  19.884  0.00  0.00    +0.000 N 
ATOM     24  H   UNL     1      -2.420  15.192  19.337  0.00  0.00    +0.000 HD
BRANCH  23  25
ATOM     25  C   UNL     1      -0.395  15.750  19.223  0.00  0.00    +0.000 A 
ATOM     26  C   UNL     1       0.769  14.966  19.245  0.00  0.00    +0.000 A 
ATOM     27  C   UNL     1       1.938  15.399  18.608  0.00  0.00    +0.000 A 
ATOM     28  C   UNL     1       1.972  16.633  17.953  0.00  0.00    +0.000 A 
ATOM     29  C   UNL     1       3.229  17.122  17.294  0.00  0.00    +0.000 C 
ATOM     30  C   UNL     1       0.810  17.418  17.928  0.00  0.00    +0.000 A 
ATOM     31  C   UNL     1      -0.369  16.970  18.539  0.00  0.00    +0.000 A 
ATOM     32 CL   UNL     1      -1.756  18.002  18.517  0.00  0.00    +0.000 Cl
ENDBRANCH  23  25
ENDBRANCH   2  21
TORSDOF 4
ENDMDL
