MODEL 1
REMARK VINA RESULT:      -8.9      0.000      0.000
REMARK  Name = 
REMARK  6 active torsions:
REMARK  status: ('A' for Active; 'I' for Inactive)
REMARK    1  A    between atoms: C_5  and  C_6
REMARK    2  A    between atoms: N_12  and  C_13
REMARK    3  A    between atoms: C_13  and  C_14
REMARK    4  A    between atoms: C_14  and  C_15
REMARK    5  A    between atoms: C_17  and  C_18
REMARK    6  A    between atoms: C_23  and  C_24
REMARK                            x       y       z     vdW  Elec       q    Type
REMARK                         _______ _______ _______ _____ _____    ______ ____
ROOT
ATOM      1  C   UNL     1       2.978   6.785  18.767  0.00  0.00    +0.000 C 
ENDROOT
BRANCH   1   7
ATOM      2  N   UNL     1       1.371   4.374  18.783  0.00  0.00    +0.000 N 
ATOM      3  C   UNL     1       2.508   4.422  18.065  0.00  0.00    +0.000 C 
ATOM      4  N   UNL     1       3.003   3.373  17.477  0.00  0.00    +0.000 NA
ATOM      5  C   UNL     1       4.259   3.873  16.842  0.00  0.00    +0.000 C 
ATOM      6  C   UNL     1       4.308   5.407  17.062  0.00  0.00    +0.000 C 
ATOM      7  N   UNL     1       3.144   5.612  17.926  0.00  0.00    +0.000 N 
ATOM      8  H   UNL     1       0.915   3.476  18.658  0.00  0.00    +0.000 HD
ATOM      9  H   UNL     1       0.737   5.136  18.590  0.00  0.00    +0.000 HD
BRANCH   6  10
ATOM     10  C   UNL     1       5.631   5.893  17.616  0.00  0.00    +0.000 A 
ATOM     11  C   UNL     1       6.253   7.012  17.037  0.00  0.00    +0.000 A 
ATOM     12  C   UNL     1       7.457   7.505  17.544  0.00  0.00    +0.000 A 
ATOM     13  C   UNL     1       8.064   6.882  18.632  0.00  0.00    +0.000 A 
ATOM     14  C   UNL     1       7.475   5.753  19.200  0.00  0.00    +0.000 A 
ATOM     15  C   UNL     1       6.274   5.255  18.690  0.00  0.00    +0.000 A 
ENDBRANCH   6  10
ENDBRANCH   1   7
BRANCH   1  16
ATOM     16  C   UNL     1       2.629   8.047  17.963  0.00  0.00    +0.000 C 
BRANCH  16  17
ATOM     17  C   UNL     1       1.507   8.821  18.629  0.00  0.00    +0.000 A 
ATOM     18  C   UNL     1       1.436   8.872  20.029  0.00  0.00    +0.000 A 
ATOM     19  C   UNL     1       0.359   9.487  20.682  0.00  0.00    +0.000 A 
ATOM     20  C   UNL     1      -0.637  10.104  19.911  0.00  0.00    +0.000 A 
ATOM     21  C   UNL     1      -0.575  10.097  18.508  0.00  0.00    +0.000 A 
ATOM     22  C   UNL     1       0.503   9.449  17.877  0.00  0.00    +0.000 A 
BRANCH  19  23
ATOM     23  C   UNL     1       0.248   9.458  22.188  0.00  0.00    +0.000 C 
ATOM     24  F   UNL     1      -0.705   8.601  22.650  0.00  0.00    +0.000 F 
ATOM     25  F   UNL     1       1.411   9.089  22.789  0.00  0.00    +0.000 F 
ATOM     26  F   UNL     1      -0.070  10.679  22.701  0.00  0.00    +0.000 F 
ENDBRANCH  19  23
BRANCH  21  27
ATOM     27  C   UNL     1      -1.661  10.750  17.683  0.00  0.00    +0.000 C 
ATOM     28  F   UNL     1      -1.782  10.225  16.432  0.00  0.00    +0.000 F 
ATOM     29  F   UNL     1      -2.891  10.636  18.256  0.00  0.00    +0.000 F 
ATOM     30  F   UNL     1      -1.449  12.084  17.508  0.00  0.00    +0.000 F 
ENDBRANCH  21  27
ENDBRANCH  16  17
ENDBRANCH   1  16
TORSDOF 6
ENDMDL
MODEL 2
REMARK VINA RESULT:      -8.8      0.124      1.356
REMARK  Name = 
REMARK  6 active torsions:
REMARK  status: ('A' for Active; 'I' for Inactive)
REMARK    1  A    between atoms: C_5  and  C_6
REMARK    2  A    between atoms: N_12  and  C_13
REMARK    3  A    between atoms: C_13  and  C_14
REMARK    4  A    between atoms: C_14  and  C_15
REMARK    5  A    between atoms: C_17  and  C_18
REMARK    6  A    between atoms: C_23  and  C_24
REMARK                            x       y       z     vdW  Elec       q    Type
REMARK                         _______ _______ _______ _____ _____    ______ ____
ROOT
ATOM      1  C   UNL     1       2.973   6.848  18.857  0.00  0.00    +0.000 C 
ENDROOT
BRANCH   1   7
ATOM      2  N   UNL     1       1.396   4.423  19.029  0.00  0.00    +0.000 N 
ATOM      3  C   UNL     1       2.512   4.450  18.277  0.00  0.00    +0.000 C 
ATOM      4  N   UNL     1       3.003   3.381  17.725  0.00  0.00    +0.000 NA
ATOM      5  C   UNL     1       4.234   3.863  17.032  0.00  0.00    +0.000 C 
ATOM      6  C   UNL     1       4.271   5.407  17.180  0.00  0.00    +0.000 C 
ATOM      7  N   UNL     1       3.129   5.639  18.066  0.00  0.00    +0.000 N 
ATOM      8  H   UNL     1       0.947   3.516  18.958  0.00  0.00    +0.000 HD
ATOM      9  H   UNL     1       0.747   5.169  18.819  0.00  0.00    +0.000 HD
BRANCH   6  10
ATOM     10  C   UNL     1       5.604   5.931  17.674  0.00  0.00    +0.000 A 
ATOM     11  C   UNL     1       6.244   5.289  18.747  0.00  0.00    +0.000 A 
ATOM     12  C   UNL     1       7.488   5.727  19.205  0.00  0.00    +0.000 A 
ATOM     13  C   UNL     1       8.109   6.819  18.604  0.00  0.00    +0.000 A 
ATOM     14  C   UNL     1       7.474   7.486  17.556  0.00  0.00    +0.000 A 
ATOM     15  C   UNL     1       6.226   7.052  17.102  0.00  0.00    +0.000 A 
ENDBRANCH   6  10
ENDBRANCH   1   7
BRANCH   1  16
ATOM     16  C   UNL     1       2.576   8.065  18.008  0.00  0.00    +0.000 C 
BRANCH  16  17
ATOM     17  C   UNL     1       1.458   8.847  18.672  0.00  0.00    +0.000 A 
ATOM     18  C   UNL     1       1.368   8.875  20.071  0.00  0.00    +0.000 A 
ATOM     19  C   UNL     1       0.291   9.497  20.719  0.00  0.00    +0.000 A 
ATOM     20  C   UNL     1      -0.683  10.145  19.945  0.00  0.00    +0.000 A 
ATOM     21  C   UNL     1      -0.601  10.161  18.543  0.00  0.00    +0.000 A 
ATOM     22  C   UNL     1       0.476   9.505  17.917  0.00  0.00    +0.000 A 
BRANCH  19  23
ATOM     23  C   UNL     1       0.158   9.445  22.223  0.00  0.00    +0.000 C 
ATOM     24  F   UNL     1       1.279   9.002  22.856  0.00  0.00    +0.000 F 
ATOM     25  F   UNL     1      -0.124  10.661  22.763  0.00  0.00    +0.000 F 
ATOM     26  F   UNL     1      -0.846   8.615  22.619  0.00  0.00    +0.000 F 
ENDBRANCH  19  23
BRANCH  21  27
ATOM     27  C   UNL     1      -1.663  10.846  17.715  0.00  0.00    +0.000 C 
ATOM     28  F   UNL     1      -1.426  12.173  17.517  0.00  0.00    +0.000 F 
ATOM     29  F   UNL     1      -1.790  10.302  16.474  0.00  0.00    +0.000 F 
ATOM     30  F   UNL     1      -2.897  10.770  18.286  0.00  0.00    +0.000 F 
ENDBRANCH  21  27
ENDBRANCH  16  17
ENDBRANCH   1  16
TORSDOF 6
ENDMDL
MODEL 3
REMARK VINA RESULT:      -8.7      0.151      1.032
REMARK  Name = 
REMARK  6 active torsions:
REMARK  status: ('A' for Active; 'I' for Inactive)
REMARK    1  A    between atoms: C_5  and  C_6
REMARK    2  A    between atoms: N_12  and  C_13
REMARK    3  A    between atoms: C_13  and  C_14
REMARK    4  A    between atoms: C_14  and  C_15
REMARK    5  A    between atoms: C_17  and  C_18
REMARK    6  A    between atoms: C_23  and  C_24
REMARK                            x       y       z     vdW  Elec       q    Type
REMARK                         _______ _______ _______ _____ _____    ______ ____
ROOT
ATOM      1  C   UNL     1       3.096   6.858  18.846  0.00  0.00    +0.000 C 
ENDROOT
BRANCH   1   7
ATOM      2  N   UNL     1       1.468   4.476  19.097  0.00  0.00    +0.000 N 
ATOM      3  C   UNL     1       2.575   4.458  18.333  0.00  0.00    +0.000 C 
ATOM      4  N   UNL     1       3.035   3.364  17.802  0.00  0.00    +0.000 NA
ATOM      5  C   UNL     1       4.269   3.801  17.083  0.00  0.00    +0.000 C 
ATOM      6  C   UNL     1       4.342   5.346  17.192  0.00  0.00    +0.000 C 
ATOM      7  N   UNL     1       3.216   5.627  18.084  0.00  0.00    +0.000 N 
ATOM      8  H   UNL     1       0.997   3.577  19.055  0.00  0.00    +0.000 HD
ATOM      9  H   UNL     1       0.833   5.230  18.876  0.00  0.00    +0.000 HD
BRANCH   6  10
ATOM     10  C   UNL     1       5.692   5.853  17.657  0.00  0.00    +0.000 A 
ATOM     11  C   UNL     1       6.271   6.962  17.018  0.00  0.00    +0.000 A 
ATOM     12  C   UNL     1       7.498   7.474  17.442  0.00  0.00    +0.000 A 
ATOM     13  C   UNL     1       8.171   6.881  18.508  0.00  0.00    +0.000 A 
ATOM     14  C   UNL     1       7.625   5.762  19.135  0.00  0.00    +0.000 A 
ATOM     15  C   UNL     1       6.400   5.245  18.706  0.00  0.00    +0.000 A 
ENDBRANCH   6  10
ENDBRANCH   1   7
BRANCH   1  16
ATOM     16  C   UNL     1       2.661   8.051  17.981  0.00  0.00    +0.000 C 
BRANCH  16  17
ATOM     17  C   UNL     1       1.526   8.812  18.640  0.00  0.00    +0.000 A 
ATOM     18  C   UNL     1       1.434   8.846  20.039  0.00  0.00    +0.000 A 
ATOM     19  C   UNL     1       0.344   9.448  20.683  0.00  0.00    +0.000 A 
ATOM     20  C   UNL     1      -0.642  10.072  19.904  0.00  0.00    +0.000 A 
ATOM     21  C   UNL     1      -0.559  10.083  18.502  0.00  0.00    +0.000 A 
ATOM     22  C   UNL     1       0.532   9.446  17.880  0.00  0.00    +0.000 A 
BRANCH  19  23
ATOM     23  C   UNL     1       0.210   9.401  22.186  0.00  0.00    +0.000 C 
ATOM     24  F   UNL     1       0.005  10.621  22.755  0.00  0.00    +0.000 F 
ATOM     25  F   UNL     1      -0.826   8.617  22.592  0.00  0.00    +0.000 F 
ATOM     26  F   UNL     1       1.323   8.893  22.783  0.00  0.00    +0.000 F 
ENDBRANCH  19  23
BRANCH  21  27
ATOM     27  C   UNL     1      -1.634  10.741  17.669  0.00  0.00    +0.000 C 
ATOM     28  F   UNL     1      -2.878  10.654  18.219  0.00  0.00    +0.000 F 
ATOM     29  F   UNL     1      -1.405  12.069  17.475  0.00  0.00    +0.000 F 
ATOM     30  F   UNL     1      -1.739  10.193  16.427  0.00  0.00    +0.000 F 
ENDBRANCH  21  27
ENDBRANCH  16  17
ENDBRANCH   1  16
TORSDOF 6
ENDMDL
MODEL 4
REMARK VINA RESULT:      -8.7      0.132      3.321
REMARK  Name = 
REMARK  6 active torsions:
REMARK  status: ('A' for Active; 'I' for Inactive)
REMARK    1  A    between atoms: C_5  and  C_6
REMARK    2  A    between atoms: N_12  and  C_13
REMARK    3  A    between atoms: C_13  and  C_14
REMARK    4  A    between atoms: C_14  and  C_15
REMARK    5  A    between atoms: C_17  and  C_18
REMARK    6  A    between atoms: C_23  and  C_24
REMARK                            x       y       z     vdW  Elec       q    Type
REMARK                         _______ _______ _______ _____ _____    ______ ____
ROOT
ATOM      1  C   UNL     1       3.031   6.839  18.780  0.00  0.00    +0.000 C 
ENDROOT
BRANCH   1   7
ATOM      2  N   UNL     1       1.381   4.459  18.705  0.00  0.00    +0.000 N 
ATOM      3  C   UNL     1       2.523   4.510  17.995  0.00  0.00    +0.000 C 
ATOM      4  N   UNL     1       3.004   3.473  17.376  0.00  0.00    +0.000 NA
ATOM      5  C   UNL     1       4.272   3.971  16.765  0.00  0.00    +0.000 C 
ATOM      6  C   UNL     1       4.347   5.496  17.038  0.00  0.00    +0.000 C 
ATOM      7  N   UNL     1       3.181   5.693  17.900  0.00  0.00    +0.000 N 
ATOM      8  H   UNL     1       0.909   3.574  18.546  0.00  0.00    +0.000 HD
ATOM      9  H   UNL     1       0.761   5.238  18.534  0.00  0.00    +0.000 HD
BRANCH   6  10
ATOM     10  C   UNL     1       5.676   5.939  17.616  0.00  0.00    +0.000 A 
ATOM     11  C   UNL     1       6.329   7.055  17.069  0.00  0.00    +0.000 A 
ATOM     12  C   UNL     1       7.538   7.510  17.599  0.00  0.00    +0.000 A 
ATOM     13  C   UNL     1       8.119   6.849  18.679  0.00  0.00    +0.000 A 
ATOM     14  C   UNL     1       7.498   5.721  19.216  0.00  0.00    +0.000 A 
ATOM     15  C   UNL     1       6.291   5.263  18.681  0.00  0.00    +0.000 A 
ENDBRANCH   6  10
ENDBRANCH   1   7
BRANCH   1  16
ATOM     16  C   UNL     1       2.597   8.109  18.031  0.00  0.00    +0.000 C 
BRANCH  16  17
ATOM     17  C   UNL     1       1.427   8.776  18.729  0.00  0.00    +0.000 A 
ATOM     18  C   UNL     1       0.440   9.420  17.967  0.00  0.00    +0.000 A 
ATOM     19  C   UNL     1      -0.599  10.137  18.577  0.00  0.00    +0.000 A 
ATOM     20  C   UNL     1      -0.673  10.162  19.977  0.00  0.00    +0.000 A 
ATOM     21  C   UNL     1       0.282   9.499  20.765  0.00  0.00    +0.000 A 
ATOM     22  C   UNL     1       1.331   8.810  20.128  0.00  0.00    +0.000 A 
BRANCH  19  23
ATOM     23  C   UNL     1      -1.604  10.899  17.747  0.00  0.00    +0.000 C 
ATOM     24  F   UNL     1      -1.270  12.204  17.548  0.00  0.00    +0.000 F 
ATOM     25  F   UNL     1      -1.774  10.360  16.509  0.00  0.00    +0.000 F 
ATOM     26  F   UNL     1      -2.837  10.914  18.323  0.00  0.00    +0.000 F 
ENDBRANCH  19  23
BRANCH  21  27
ATOM     27  C   UNL     1       0.206   9.546  22.274  0.00  0.00    +0.000 C 
ATOM     28  F   UNL     1      -0.723   8.697  22.797  0.00  0.00    +0.000 F 
ATOM     29  F   UNL     1       1.386   9.217  22.867  0.00  0.00    +0.000 F 
ATOM     30  F   UNL     1      -0.118  10.784  22.740  0.00  0.00    +0.000 F 
ENDBRANCH  21  27
ENDBRANCH  16  17
ENDBRANCH   1  16
TORSDOF 6
ENDMDL
MODEL 5
REMARK VINA RESULT:      -8.7      1.482      4.652
REMARK  Name = 
REMARK  6 active torsions:
REMARK  status: ('A' for Active; 'I' for Inactive)
REMARK    1  A    between atoms: C_5  and  C_6
REMARK    2  A    between atoms: N_12  and  C_13
REMARK    3  A    between atoms: C_13  and  C_14
REMARK    4  A    between atoms: C_14  and  C_15
REMARK    5  A    between atoms: C_17  and  C_18
REMARK    6  A    between atoms: C_23  and  C_24
REMARK                            x       y       z     vdW  Elec       q    Type
REMARK                         _______ _______ _______ _____ _____    ______ ____
ROOT
ATOM      1  C   UNL     1       2.759   7.026  17.613  0.00  0.00    +0.000 C 
ENDROOT
BRANCH   1   7
ATOM      2  N   UNL     1       5.156   6.947  15.988  0.00  0.00    +0.000 N 
ATOM      3  C   UNL     1       5.066   6.185  17.093  0.00  0.00    +0.000 C 
ATOM      4  N   UNL     1       5.962   5.293  17.397  0.00  0.00    +0.000 NA
ATOM      5  C   UNL     1       5.447   4.677  18.656  0.00  0.00    +0.000 C 
ATOM      6  C   UNL     1       4.181   5.470  19.073  0.00  0.00    +0.000 C 
ATOM      7  N   UNL     1       4.018   6.373  17.932  0.00  0.00    +0.000 N 
ATOM      8  H   UNL     1       6.065   6.827  15.552  0.00  0.00    +0.000 HD
ATOM      9  H   UNL     1       4.957   7.924  16.151  0.00  0.00    +0.000 HD
BRANCH   6  10
ATOM     10  C   UNL     1       2.993   4.585  19.387  0.00  0.00    +0.000 A 
ATOM     11  C   UNL     1       2.665   3.534  18.514  0.00  0.00    +0.000 A 
ATOM     12  C   UNL     1       1.596   2.679  18.790  0.00  0.00    +0.000 A 
ATOM     13  C   UNL     1       0.833   2.866  19.940  0.00  0.00    +0.000 A 
ATOM     14  C   UNL     1       1.127   3.921  20.803  0.00  0.00    +0.000 A 
ATOM     15  C   UNL     1       2.192   4.781  20.523  0.00  0.00    +0.000 A 
ENDBRANCH   6  10
ENDBRANCH   1   7
BRANCH   1  16
ATOM     16  C   UNL     1       2.797   8.542  17.863  0.00  0.00    +0.000 C 
BRANCH  16  17
ATOM     17  C   UNL     1       1.541   9.004  18.576  0.00  0.00    +0.000 A 
ATOM     18  C   UNL     1       0.488   9.560  17.834  0.00  0.00    +0.000 A 
ATOM     19  C   UNL     1      -0.645  10.095  18.465  0.00  0.00    +0.000 A 
ATOM     20  C   UNL     1      -0.739  10.022  19.862  0.00  0.00    +0.000 A 
ATOM     21  C   UNL     1       0.285   9.441  20.628  0.00  0.00    +0.000 A 
ATOM     22  C   UNL     1       1.424   8.937  19.972  0.00  0.00    +0.000 A 
BRANCH  19  23
ATOM     23  C   UNL     1      -1.731  10.770  17.663  0.00  0.00    +0.000 C 
ATOM     24  F   UNL     1      -2.972  10.644  18.209  0.00  0.00    +0.000 F 
ATOM     25  F   UNL     1      -1.518  12.106  17.517  0.00  0.00    +0.000 F 
ATOM     26  F   UNL     1      -1.826  10.264  16.402  0.00  0.00    +0.000 F 
ENDBRANCH  19  23
BRANCH  21  27
ATOM     27  C   UNL     1       0.184   9.382  22.135  0.00  0.00    +0.000 C 
ATOM     28  F   UNL     1      -0.050  10.594  22.712  0.00  0.00    +0.000 F 
ATOM     29  F   UNL     1      -0.820   8.567  22.560  0.00  0.00    +0.000 F 
ATOM     30  F   UNL     1       1.323   8.909  22.714  0.00  0.00    +0.000 F 
ENDBRANCH  21  27
ENDBRANCH  16  17
ENDBRANCH   1  16
TORSDOF 6
ENDMDL
MODEL 6
REMARK VINA RESULT:      -8.6      0.667      1.347
REMARK  Name = 
REMARK  6 active torsions:
REMARK  status: ('A' for Active; 'I' for Inactive)
REMARK    1  A    between atoms: C_5  and  C_6
REMARK    2  A    between atoms: N_12  and  C_13
REMARK    3  A    between atoms: C_13  and  C_14
REMARK    4  A    between atoms: C_14  and  C_15
REMARK    5  A    between atoms: C_17  and  C_18
REMARK    6  A    between atoms: C_23  and  C_24
REMARK                            x       y       z     vdW  Elec       q    Type
REMARK                         _______ _______ _______ _____ _____    ______ ____
ROOT
ATOM      1  C   UNL     1       2.748   6.882  19.323  0.00  0.00    +0.000 C 
ENDROOT
BRANCH   1   7
ATOM      2  N   UNL     1       1.186   4.536  19.993  0.00  0.00    +0.000 N 
ATOM      3  C   UNL     1       2.185   4.447  19.096  0.00  0.00    +0.000 C 
ATOM      4  N   UNL     1       2.582   3.309  18.608  0.00  0.00    +0.000 NA
ATOM      5  C   UNL     1       3.708   3.677  17.700  0.00  0.00    +0.000 C 
ATOM      6  C   UNL     1       3.781   5.226  17.661  0.00  0.00    +0.000 C 
ATOM      7  N   UNL     1       2.779   5.587  18.664  0.00  0.00    +0.000 N 
ATOM      8  H   UNL     1       0.722   3.638  20.092  0.00  0.00    +0.000 HD
ATOM      9  H   UNL     1       0.522   5.269  19.791  0.00  0.00    +0.000 HD
BRANCH   6  10
ATOM     10  C   UNL     1       5.176   5.768  17.900  0.00  0.00    +0.000 A 
ATOM     11  C   UNL     1       5.957   5.230  18.936  0.00  0.00    +0.000 A 
ATOM     12  C   UNL     1       7.258   5.683  19.162  0.00  0.00    +0.000 A 
ATOM     13  C   UNL     1       7.796   6.689  18.362  0.00  0.00    +0.000 A 
ATOM     14  C   UNL     1       7.024   7.254  17.348  0.00  0.00    +0.000 A 
ATOM     15  C   UNL     1       5.720   6.804  17.125  0.00  0.00    +0.000 A 
ENDBRANCH   6  10
ENDBRANCH   1   7
BRANCH   1  16
ATOM     16  C   UNL     1       2.359   8.024  18.372  0.00  0.00    +0.000 C 
BRANCH  16  17
ATOM     17  C   UNL     1       1.312   8.922  19.003  0.00  0.00    +0.000 A 
ATOM     18  C   UNL     1       1.178   8.956  20.399  0.00  0.00    +0.000 A 
ATOM     19  C   UNL     1       0.156   9.691  21.015  0.00  0.00    +0.000 A 
ATOM     20  C   UNL     1      -0.713  10.445  20.213  0.00  0.00    +0.000 A 
ATOM     21  C   UNL     1      -0.582  10.457  18.815  0.00  0.00    +0.000 A 
ATOM     22  C   UNL     1       0.435   9.687  18.220  0.00  0.00    +0.000 A 
BRANCH  19  23
ATOM     23  C   UNL     1      -0.033   9.650  22.513  0.00  0.00    +0.000 C 
ATOM     24  F   UNL     1      -0.932   8.713  22.924  0.00  0.00    +0.000 F 
ATOM     25  F   UNL     1       1.123   9.379  23.177  0.00  0.00    +0.000 F 
ATOM     26  F   UNL     1      -0.481  10.837  23.006  0.00  0.00    +0.000 F 
ENDBRANCH  19  23
BRANCH  21  27
ATOM     27  C   UNL     1      -1.534  11.258  17.956  0.00  0.00    +0.000 C 
ATOM     28  F   UNL     1      -2.754  11.451  18.532  0.00  0.00    +0.000 F 
ATOM     29  F   UNL     1      -1.057  12.500  17.668  0.00  0.00    +0.000 F 
ATOM     30  F   UNL     1      -1.779  10.661  16.757  0.00  0.00    +0.000 F 
ENDBRANCH  21  27
ENDBRANCH  16  17
ENDBRANCH   1  16
TORSDOF 6
ENDMDL
MODEL 7
REMARK VINA RESULT:      -8.6      1.465      4.703
REMARK  Name = 
REMARK  6 active torsions:
REMARK  status: ('A' for Active; 'I' for Inactive)
REMARK    1  A    between atoms: C_5  and  C_6
REMARK    2  A    between atoms: N_12  and  C_13
REMARK    3  A    between atoms: C_13  and  C_14
REMARK    4  A    between atoms: C_14  and  C_15
REMARK    5  A    between atoms: C_17  and  C_18
REMARK    6  A    between atoms: C_23  and  C_24
REMARK                            x       y       z     vdW  Elec       q    Type
REMARK                         _______ _______ _______ _____ _____    ______ ____
ROOT
ATOM      1  C   UNL     1       2.789   7.030  17.658  0.00  0.00    +0.000 C 
ENDROOT
BRANCH   1   7
ATOM      2  N   UNL     1       5.254   7.041  16.136  0.00  0.00    +0.000 N 
ATOM      3  C   UNL     1       5.136   6.256  17.223  0.00  0.00    +0.000 C 
ATOM      4  N   UNL     1       6.041   5.381  17.549  0.00  0.00    +0.000 NA
ATOM      5  C   UNL     1       5.489   4.729  18.774  0.00  0.00    +0.000 C 
ATOM      6  C   UNL     1       4.187   5.483  19.150  0.00  0.00    +0.000 C 
ATOM      7  N   UNL     1       4.049   6.402  18.019  0.00  0.00    +0.000 N 
ATOM      8  H   UNL     1       6.183   6.952  15.738  0.00  0.00    +0.000 HD
ATOM      9  H   UNL     1       5.023   8.009  16.308  0.00  0.00    +0.000 HD
BRANCH   6  10
ATOM     10  C   UNL     1       3.009   4.562  19.397  0.00  0.00    +0.000 A 
ATOM     11  C   UNL     1       2.242   4.719  20.563  0.00  0.00    +0.000 A 
ATOM     12  C   UNL     1       1.131   3.909  20.805  0.00  0.00    +0.000 A 
ATOM     13  C   UNL     1       0.774   2.922  19.889  0.00  0.00    +0.000 A 
ATOM     14  C   UNL     1       1.542   2.733  18.741  0.00  0.00    +0.000 A 
ATOM     15  C   UNL     1       2.657   3.539  18.501  0.00  0.00    +0.000 A 
ENDBRANCH   6  10
ENDBRANCH   1   7
BRANCH   1  16
ATOM     16  C   UNL     1       2.802   8.551  17.868  0.00  0.00    +0.000 C 
BRANCH  16  17
ATOM     17  C   UNL     1       1.543   9.010  18.581  0.00  0.00    +0.000 A 
ATOM     18  C   UNL     1       0.495   9.577  17.841  0.00  0.00    +0.000 A 
ATOM     19  C   UNL     1      -0.638  10.108  18.473  0.00  0.00    +0.000 A 
ATOM     20  C   UNL     1      -0.739  10.020  19.869  0.00  0.00    +0.000 A 
ATOM     21  C   UNL     1       0.281   9.428  20.633  0.00  0.00    +0.000 A 
ATOM     22  C   UNL     1       1.421   8.928  19.976  0.00  0.00    +0.000 A 
BRANCH  19  23
ATOM     23  C   UNL     1      -1.719  10.795  17.673  0.00  0.00    +0.000 C 
ATOM     24  F   UNL     1      -1.502  12.128  17.493  0.00  0.00    +0.000 F 
ATOM     25  F   UNL     1      -1.864  10.265  16.429  0.00  0.00    +0.000 F 
ATOM     26  F   UNL     1      -2.939  10.695  18.269  0.00  0.00    +0.000 F 
ENDBRANCH  19  23
BRANCH  21  27
ATOM     27  C   UNL     1       0.173   9.353  22.139  0.00  0.00    +0.000 C 
ATOM     28  F   UNL     1       1.299   8.876  22.741  0.00  0.00    +0.000 F 
ATOM     29  F   UNL     1      -0.067  10.566  22.707  0.00  0.00    +0.000 F 
ATOM     30  F   UNL     1      -0.839   8.539  22.547  0.00  0.00    +0.000 F 
ENDBRANCH  21  27
ENDBRANCH  16  17
ENDBRANCH   1  16
TORSDOF 6
ENDMDL
MODEL 8
REMARK VINA RESULT:      -8.6      1.527      3.255
REMARK  Name = 
REMARK  6 active torsions:
REMARK  status: ('A' for Active; 'I' for Inactive)
REMARK    1  A    between atoms: C_5  and  C_6
REMARK    2  A    between atoms: N_12  and  C_13
REMARK    3  A    between atoms: C_13  and  C_14
REMARK    4  A    between atoms: C_14  and  C_15
REMARK    5  A    between atoms: C_17  and  C_18
REMARK    6  A    between atoms: C_23  and  C_24
REMARK                            x       y       z     vdW  Elec       q    Type
REMARK                         _______ _______ _______ _____ _____    ______ ____
ROOT
ATOM      1  C   UNL     1       2.734   7.139  17.527  0.00  0.00    +0.000 C 
ENDROOT
BRANCH   1   7
ATOM      2  N   UNL     1       5.009   6.981  15.740  0.00  0.00    +0.000 N 
ATOM      3  C   UNL     1       4.949   6.189  16.827  0.00  0.00    +0.000 C 
ATOM      4  N   UNL     1       5.811   5.240  17.044  0.00  0.00    +0.000 NA
ATOM      5  C   UNL     1       5.347   4.613  18.317  0.00  0.00    +0.000 C 
ATOM      6  C   UNL     1       4.159   5.461  18.841  0.00  0.00    +0.000 C 
ATOM      7  N   UNL     1       3.971   6.407  17.741  0.00  0.00    +0.000 N 
ATOM      8  H   UNL     1       5.879   6.825  15.240  0.00  0.00    +0.000 HD
ATOM      9  H   UNL     1       4.877   7.961  15.944  0.00  0.00    +0.000 HD
BRANCH   6  10
ATOM     10  C   UNL     1       2.946   4.632  19.210  0.00  0.00    +0.000 A 
ATOM     11  C   UNL     1       2.523   3.606  18.350  0.00  0.00    +0.000 A 
ATOM     12  C   UNL     1       1.429   2.802  18.675  0.00  0.00    +0.000 A 
ATOM     13  C   UNL     1       0.734   3.017  19.863  0.00  0.00    +0.000 A 
ATOM     14  C   UNL     1       1.122   4.050  20.715  0.00  0.00    +0.000 A 
ATOM     15  C   UNL     1       2.213   4.859  20.387  0.00  0.00    +0.000 A 
ENDBRANCH   6  10
ENDBRANCH   1   7
BRANCH   1  16
ATOM     16  C   UNL     1       2.862   8.633  17.862  0.00  0.00    +0.000 C 
BRANCH  16  17
ATOM     17  C   UNL     1       1.598   9.149  18.524  0.00  0.00    +0.000 A 
ATOM     18  C   UNL     1       1.463   9.069  19.917  0.00  0.00    +0.000 A 
ATOM     19  C   UNL     1       0.270   9.438  20.556  0.00  0.00    +0.000 A 
ATOM     20  C   UNL     1      -0.784   9.944  19.781  0.00  0.00    +0.000 A 
ATOM     21  C   UNL     1      -0.665  10.066  18.387  0.00  0.00    +0.000 A 
ATOM     22  C   UNL     1       0.534   9.662  17.768  0.00  0.00    +0.000 A 
BRANCH  19  23
ATOM     23  C   UNL     1       0.104   9.264  22.046  0.00  0.00    +0.000 C 
ATOM     24  F   UNL     1      -0.878   8.384  22.388  0.00  0.00    +0.000 F 
ATOM     25  F   UNL     1       1.239   8.815  22.648  0.00  0.00    +0.000 F 
ATOM     26  F   UNL     1      -0.213  10.434  22.666  0.00  0.00    +0.000 F 
ENDBRANCH  19  23
BRANCH  21  27
ATOM     27  C   UNL     1      -1.811  10.596  17.556  0.00  0.00    +0.000 C 
ATOM     28  F   UNL     1      -1.885  10.040  16.314  0.00  0.00    +0.000 F 
ATOM     29  F   UNL     1      -3.022  10.373  18.136  0.00  0.00    +0.000 F 
ATOM     30  F   UNL     1      -1.731  11.941  17.358  0.00  0.00    +0.000 F 
ENDBRANCH  21  27
ENDBRANCH  16  17
ENDBRANCH   1  16
TORSDOF 6
ENDMDL
MODEL 9
REMARK VINA RESULT:      -8.6      1.517      3.408
REMARK  Name = 
REMARK  6 active torsions:
REMARK  status: ('A' for Active; 'I' for Inactive)
REMARK    1  A    between atoms: C_5  and  C_6
REMARK    2  A    between atoms: N_12  and  C_13
REMARK    3  A    between atoms: C_13  and  C_14
REMARK    4  A    between atoms: C_14  and  C_15
REMARK    5  A    between atoms: C_17  and  C_18
REMARK    6  A    between atoms: C_23  and  C_24
REMARK                            x       y       z     vdW  Elec       q    Type
REMARK                         _______ _______ _______ _____ _____    ______ ____
ROOT
ATOM      1  C   UNL     1       2.745   7.120  17.570  0.00  0.00    +0.000 C 
ENDROOT
BRANCH   1   7
ATOM      2  N   UNL     1       5.044   6.980  15.812  0.00  0.00    +0.000 N 
ATOM      3  C   UNL     1       4.975   6.186  16.896  0.00  0.00    +0.000 C 
ATOM      4  N   UNL     1       5.840   5.242  17.123  0.00  0.00    +0.000 NA
ATOM      5  C   UNL     1       5.363   4.609  18.389  0.00  0.00    +0.000 C 
ATOM      6  C   UNL     1       4.164   5.449  18.900  0.00  0.00    +0.000 C 
ATOM      7  N   UNL     1       3.984   6.396  17.798  0.00  0.00    +0.000 N 
ATOM      8  H   UNL     1       5.921   6.830  15.323  0.00  0.00    +0.000 HD
ATOM      9  H   UNL     1       4.903   7.959  16.016  0.00  0.00    +0.000 HD
BRANCH   6  10
ATOM     10  C   UNL     1       2.951   4.611  19.251  0.00  0.00    +0.000 A 
ATOM     11  C   UNL     1       2.547   3.583  18.384  0.00  0.00    +0.000 A 
ATOM     12  C   UNL     1       1.454   2.772  18.694  0.00  0.00    +0.000 A 
ATOM     13  C   UNL     1       0.741   2.981  19.873  0.00  0.00    +0.000 A 
ATOM     14  C   UNL     1       1.111   4.016  20.731  0.00  0.00    +0.000 A 
ATOM     15  C   UNL     1       2.201   4.832  20.418  0.00  0.00    +0.000 A 
ENDBRANCH   6  10
ENDBRANCH   1   7
BRANCH   1  16
ATOM     16  C   UNL     1       2.869   8.620  17.877  0.00  0.00    +0.000 C 
BRANCH  16  17
ATOM     17  C   UNL     1       1.609   9.142  18.541  0.00  0.00    +0.000 A 
ATOM     18  C   UNL     1       1.484   9.078  19.937  0.00  0.00    +0.000 A 
ATOM     19  C   UNL     1       0.295   9.453  20.580  0.00  0.00    +0.000 A 
ATOM     20  C   UNL     1      -0.766   9.948  19.807  0.00  0.00    +0.000 A 
ATOM     21  C   UNL     1      -0.657  10.054  18.410  0.00  0.00    +0.000 A 
ATOM     22  C   UNL     1       0.538   9.644  17.788  0.00  0.00    +0.000 A 
BRANCH  19  23
ATOM     23  C   UNL     1       0.140   9.297  22.073  0.00  0.00    +0.000 C 
ATOM     24  F   UNL     1       1.258   8.824  22.692  0.00  0.00    +0.000 F 
ATOM     25  F   UNL     1      -0.165  10.470  22.691  0.00  0.00    +0.000 F 
ATOM     26  F   UNL     1      -0.859   8.430  22.397  0.00  0.00    +0.000 F 
ENDBRANCH  19  23
BRANCH  21  27
ATOM     27  C   UNL     1      -1.810  10.571  17.582  0.00  0.00    +0.000 C 
ATOM     28  F   UNL     1      -3.031  10.320  18.133  0.00  0.00    +0.000 F 
ATOM     29  F   UNL     1      -1.756  11.918  17.396  0.00  0.00    +0.000 F 
ATOM     30  F   UNL     1      -1.845  10.020  16.337  0.00  0.00    +0.000 F 
ENDBRANCH  21  27
ENDBRANCH  16  17
ENDBRANCH   1  16
TORSDOF 6
ENDMDL
