MODEL 1
REMARK VINA RESULT:      -7.1      0.000      0.000
REMARK  Name = 
REMARK  2 active torsions:
REMARK  status: ('A' for Active; 'I' for Inactive)
REMARK    1  A    between atoms: N_10  and  C_11
REMARK    2  A    between atoms: C_11  and  C_12
REMARK                            x       y       z     vdW  Elec       q    Type
REMARK                         _______ _______ _______ _____ _____    ______ ____
ROOT
ATOM      1  O   UNL     1       5.233   2.420  20.301  0.00  0.00    +0.000 OA
ATOM      2  S   UNL     1       3.914   2.549  19.709  0.00  0.00    +0.000 S 
ATOM      3  O   UNL     1       3.463   1.523  18.790  0.00  0.00    +0.000 OA
ATOM      4  C   UNL     1       2.774   2.700  21.069  0.00  0.00    +0.000 C 
ATOM      5  C   UNL     1       1.348   3.086  20.757  0.00  0.00    +0.000 C 
ATOM      6  O   UNL     1       0.830   2.443  19.606  0.00  0.00    +0.000 OA
ATOM      7  C   UNL     1       0.481   3.322  18.543  0.00  0.00    +0.000 C 
ATOM      8  C   UNL     1       1.671   3.794  17.707  0.00  0.00    +0.000 C 
ATOM      9  C   UNL     1       2.658   4.680  18.457  0.00  0.00    +0.000 C 
ATOM     10  N   UNL     1       3.928   4.025  18.876  0.00  0.00    +0.000 NA
ENDROOT
BRANCH  10  11
ATOM     11  C   UNL     1       4.954   3.997  17.772  0.00  0.00    +0.000 C 
BRANCH  11  12
ATOM     12  C   UNL     1       5.881   5.194  17.776  0.00  0.00    +0.000 A 
ATOM     13  C   UNL     1       6.994   5.222  18.629  0.00  0.00    +0.000 A 
ATOM     14  C   UNL     1       7.800   6.359  18.700  0.00  0.00    +0.000 A 
ATOM     15  C   UNL     1       7.503   7.470  17.913  0.00  0.00    +0.000 A 
ATOM     16 CL   UNL     1       8.463   8.891  18.040  0.00  0.00    +0.000 Cl
ATOM     17  C   UNL     1       6.421   7.444  17.035  0.00  0.00    +0.000 A 
ATOM     18  C   UNL     1       5.615   6.306  16.961  0.00  0.00    +0.000 A 
ENDBRANCH  11  12
ENDBRANCH  10  11
TORSDOF 2
ENDMDL
MODEL 2
REMARK VINA RESULT:      -6.8      1.332      1.453
REMARK  Name = 
REMARK  2 active torsions:
REMARK  status: ('A' for Active; 'I' for Inactive)
REMARK    1  A    between atoms: N_10  and  C_11
REMARK    2  A    between atoms: C_11  and  C_12
REMARK                            x       y       z     vdW  Elec       q    Type
REMARK                         _______ _______ _______ _____ _____    ______ ____
ROOT
ATOM      1  O   UNL     1       3.611   1.206  18.510  0.00  0.00    +0.000 OA
ATOM      2  S   UNL     1       2.880   2.395  18.907  0.00  0.00    +0.000 S 
ATOM      3  O   UNL     1       1.806   2.866  18.055  0.00  0.00    +0.000 OA
ATOM      4  C   UNL     1       2.268   2.075  20.548  0.00  0.00    +0.000 C 
ATOM      5  C   UNL     1       1.666   3.227  21.317  0.00  0.00    +0.000 C 
ATOM      6  O   UNL     1       0.848   4.066  20.522  0.00  0.00    +0.000 OA
ATOM      7  C   UNL     1       1.315   5.406  20.400  0.00  0.00    +0.000 C 
ATOM      8  C   UNL     1       2.438   5.585  19.379  0.00  0.00    +0.000 C 
ATOM      9  C   UNL     1       3.744   4.892  19.748  0.00  0.00    +0.000 C 
ATOM     10  N   UNL     1       4.037   3.629  19.015  0.00  0.00    +0.000 NA
ENDROOT
BRANCH  10  11
ATOM     11  C   UNL     1       4.671   3.877  17.670  0.00  0.00    +0.000 C 
BRANCH  11  12
ATOM     12  C   UNL     1       5.624   5.054  17.657  0.00  0.00    +0.000 A 
ATOM     13  C   UNL     1       6.832   4.992  18.365  0.00  0.00    +0.000 A 
ATOM     14  C   UNL     1       7.672   6.104  18.428  0.00  0.00    +0.000 A 
ATOM     15  C   UNL     1       7.310   7.283  17.777  0.00  0.00    +0.000 A 
ATOM     16 CL   UNL     1       8.317   8.672  17.900  0.00  0.00    +0.000 Cl
ATOM     17  C   UNL     1       6.129   7.349  17.041  0.00  0.00    +0.000 A 
ATOM     18  C   UNL     1       5.289   6.235  16.976  0.00  0.00    +0.000 A 
ENDBRANCH  11  12
ENDBRANCH  10  11
TORSDOF 2
ENDMDL
MODEL 3
REMARK VINA RESULT:      -6.8      0.758      1.387
REMARK  Name = 
REMARK  2 active torsions:
REMARK  status: ('A' for Active; 'I' for Inactive)
REMARK    1  A    between atoms: N_10  and  C_11
REMARK    2  A    between atoms: C_11  and  C_12
REMARK                            x       y       z     vdW  Elec       q    Type
REMARK                         _______ _______ _______ _____ _____    ______ ____
ROOT
ATOM      1  O   UNL     1       5.237   1.584  20.250  0.00  0.00    +0.000 OA
ATOM      2  S   UNL     1       3.961   2.220  19.979  0.00  0.00    +0.000 S 
ATOM      3  O   UNL     1       3.134   1.690  18.914  0.00  0.00    +0.000 OA
ATOM      4  C   UNL     1       3.065   2.208  21.517  0.00  0.00    +0.000 C 
ATOM      5  C   UNL     1       1.792   3.016  21.602  0.00  0.00    +0.000 C 
ATOM      6  O   UNL     1       0.991   2.926  20.437  0.00  0.00    +0.000 OA
ATOM      7  C   UNL     1       0.809   4.158  19.747  0.00  0.00    +0.000 C 
ATOM      8  C   UNL     1       1.992   4.560  18.865  0.00  0.00    +0.000 C 
ATOM      9  C   UNL     1       3.269   4.883  19.631  0.00  0.00    +0.000 C 
ATOM     10  N   UNL     1       4.325   3.832  19.602  0.00  0.00    +0.000 NA
ENDROOT
BRANCH  10  11
ATOM     11  C   UNL     1       5.175   3.904  18.360  0.00  0.00    +0.000 C 
BRANCH  11  12
ATOM     12  C   UNL     1       5.948   5.200  18.229  0.00  0.00    +0.000 A 
ATOM     13  C   UNL     1       5.496   6.206  17.363  0.00  0.00    +0.000 A 
ATOM     14  C   UNL     1       6.251   7.364  17.172  0.00  0.00    +0.000 A 
ATOM     15  C   UNL     1       7.456   7.527  17.853  0.00  0.00    +0.000 A 
ATOM     16 CL   UNL     1       8.413   8.928  17.577  0.00  0.00    +0.000 Cl
ATOM     17  C   UNL     1       7.900   6.551  18.743  0.00  0.00    +0.000 A 
ATOM     18  C   UNL     1       7.145   5.392  18.936  0.00  0.00    +0.000 A 
ENDBRANCH  11  12
ENDBRANCH  10  11
TORSDOF 2
ENDMDL
MODEL 4
REMARK VINA RESULT:      -6.7      1.345      1.862
REMARK  Name = 
REMARK  2 active torsions:
REMARK  status: ('A' for Active; 'I' for Inactive)
REMARK    1  A    between atoms: N_10  and  C_11
REMARK    2  A    between atoms: C_11  and  C_12
REMARK                            x       y       z     vdW  Elec       q    Type
REMARK                         _______ _______ _______ _____ _____    ______ ____
ROOT
ATOM      1  O   UNL     1       3.566   1.270  18.166  0.00  0.00    +0.000 OA
ATOM      2  S   UNL     1       2.826   2.427  18.640  0.00  0.00    +0.000 S 
ATOM      3  O   UNL     1       1.796   2.987  17.790  0.00  0.00    +0.000 OA
ATOM      4  C   UNL     1       2.139   1.962  20.216  0.00  0.00    +0.000 C 
ATOM      5  C   UNL     1       1.512   3.045  21.061  0.00  0.00    +0.000 C 
ATOM      6  O   UNL     1       0.737   3.965  20.313  0.00  0.00    +0.000 OA
ATOM      7  C   UNL     1       1.220   5.304  20.338  0.00  0.00    +0.000 C 
ATOM      8  C   UNL     1       2.389   5.563  19.388  0.00  0.00    +0.000 C 
ATOM      9  C   UNL     1       3.671   4.824  19.749  0.00  0.00    +0.000 C 
ATOM     10  N   UNL     1       3.988   3.631  18.914  0.00  0.00    +0.000 NA
ENDROOT
BRANCH  10  11
ATOM     11  C   UNL     1       4.683   3.995  17.628  0.00  0.00    +0.000 C 
BRANCH  11  12
ATOM     12  C   UNL     1       5.585   5.206  17.749  0.00  0.00    +0.000 A 
ATOM     13  C   UNL     1       5.252   6.401  17.095  0.00  0.00    +0.000 A 
ATOM     14  C   UNL     1       6.122   7.491  17.131  0.00  0.00    +0.000 A 
ATOM     15  C   UNL     1       7.326   7.395  17.827  0.00  0.00    +0.000 A 
ATOM     16 CL   UNL     1       8.424   8.718  17.826  0.00  0.00    +0.000 Cl
ATOM     17  C   UNL     1       7.654   6.226  18.511  0.00  0.00    +0.000 A 
ATOM     18  C   UNL     1       6.782   5.135  18.477  0.00  0.00    +0.000 A 
ENDBRANCH  11  12
ENDBRANCH  10  11
TORSDOF 2
ENDMDL
MODEL 5
REMARK VINA RESULT:      -6.6      3.727      4.524
REMARK  Name = 
REMARK  2 active torsions:
REMARK  status: ('A' for Active; 'I' for Inactive)
REMARK    1  A    between atoms: N_10  and  C_11
REMARK    2  A    between atoms: C_11  and  C_12
REMARK                            x       y       z     vdW  Elec       q    Type
REMARK                         _______ _______ _______ _____ _____    ______ ____
ROOT
ATOM      1  O   UNL     1       5.759   5.477  19.528  0.00  0.00    +0.000 OA
ATOM      2  S   UNL     1       4.863   4.559  18.849  0.00  0.00    +0.000 S 
ATOM      3  O   UNL     1       5.158   4.186  17.481  0.00  0.00    +0.000 OA
ATOM      4  C   UNL     1       4.771   3.107  19.877  0.00  0.00    +0.000 C 
ATOM      5  C   UNL     1       3.726   2.070  19.545  0.00  0.00    +0.000 C 
ATOM      6  O   UNL     1       3.590   1.834  18.154  0.00  0.00    +0.000 OA
ATOM      7  C   UNL     1       2.313   2.166  17.619  0.00  0.00    +0.000 C 
ATOM      8  C   UNL     1       2.116   3.659  17.354  0.00  0.00    +0.000 C 
ATOM      9  C   UNL     1       2.101   4.525  18.607  0.00  0.00    +0.000 C 
ATOM     10  N   UNL     1       3.342   5.307  18.869  0.00  0.00    +0.000 NA
ENDROOT
BRANCH  10  11
ATOM     11  C   UNL     1       3.381   6.602  18.100  0.00  0.00    +0.000 C 
BRANCH  11  12
ATOM     12  C   UNL     1       2.478   7.675  18.673  0.00  0.00    +0.000 A 
ATOM     13  C   UNL     1       2.093   7.628  20.020  0.00  0.00    +0.000 A 
ATOM     14  C   UNL     1       1.192   8.563  20.530  0.00  0.00    +0.000 A 
ATOM     15  C   UNL     1       0.677   9.555  19.697  0.00  0.00    +0.000 A 
ATOM     16 CL   UNL     1      -0.476  10.674  20.310  0.00  0.00    +0.000 Cl
ATOM     17  C   UNL     1       1.077   9.635  18.365  0.00  0.00    +0.000 A 
ATOM     18  C   UNL     1       1.981   8.701  17.854  0.00  0.00    +0.000 A 
ENDBRANCH  11  12
ENDBRANCH  10  11
TORSDOF 2
ENDMDL
MODEL 6
REMARK VINA RESULT:      -6.4      3.711      4.589
REMARK  Name = 
REMARK  2 active torsions:
REMARK  status: ('A' for Active; 'I' for Inactive)
REMARK    1  A    between atoms: N_10  and  C_11
REMARK    2  A    between atoms: C_11  and  C_12
REMARK                            x       y       z     vdW  Elec       q    Type
REMARK                         _______ _______ _______ _____ _____    ______ ____
ROOT
ATOM      1  O   UNL     1       5.857   5.181  18.801  0.00  0.00    +0.000 OA
ATOM      2  S   UNL     1       4.665   4.410  18.498  0.00  0.00    +0.000 S 
ATOM      3  O   UNL     1       4.449   3.976  17.133  0.00  0.00    +0.000 OA
ATOM      4  C   UNL     1       4.690   3.007  19.594  0.00  0.00    +0.000 C 
ATOM      5  C   UNL     1       3.451   2.148  19.673  0.00  0.00    +0.000 C 
ATOM      6  O   UNL     1       2.846   1.918  18.413  0.00  0.00    +0.000 OA
ATOM      7  C   UNL     1       1.529   2.445  18.283  0.00  0.00    +0.000 C 
ATOM      8  C   UNL     1       1.483   3.946  17.997  0.00  0.00    +0.000 C 
ATOM      9  C   UNL     1       1.997   4.821  19.134  0.00  0.00    +0.000 C 
ATOM     10  N   UNL     1       3.359   5.395  18.944  0.00  0.00    +0.000 NA
ENDROOT
BRANCH  10  11
ATOM     11  C   UNL     1       3.344   6.656  18.119  0.00  0.00    +0.000 C 
BRANCH  11  12
ATOM     12  C   UNL     1       2.368   7.699  18.625  0.00  0.00    +0.000 A 
ATOM     13  C   UNL     1       1.845   8.659  17.748  0.00  0.00    +0.000 A 
ATOM     14  C   UNL     1       1.016   9.674  18.227  0.00  0.00    +0.000 A 
ATOM     15  C   UNL     1       0.700   9.730  19.584  0.00  0.00    +0.000 A 
ATOM     16 CL   UNL     1      -0.276  11.012  20.184  0.00  0.00    +0.000 Cl
ATOM     17  C   UNL     1       1.185   8.762  20.461  0.00  0.00    +0.000 A 
ATOM     18  C   UNL     1       2.013   7.745  19.983  0.00  0.00    +0.000 A 
ENDBRANCH  11  12
ENDBRANCH  10  11
TORSDOF 2
ENDMDL
MODEL 7
REMARK VINA RESULT:      -6.4      3.719      4.543
REMARK  Name = 
REMARK  2 active torsions:
REMARK  status: ('A' for Active; 'I' for Inactive)
REMARK    1  A    between atoms: N_10  and  C_11
REMARK    2  A    between atoms: C_11  and  C_12
REMARK                            x       y       z     vdW  Elec       q    Type
REMARK                         _______ _______ _______ _____ _____    ______ ____
ROOT
ATOM      1  O   UNL     1       2.302   4.947  21.559  0.00  0.00    +0.000 OA
ATOM      2  S   UNL     1       2.577   4.147  20.378  0.00  0.00    +0.000 S 
ATOM      3  O   UNL     1       3.924   3.655  20.173  0.00  0.00    +0.000 OA
ATOM      4  C   UNL     1       1.425   2.790  20.420  0.00  0.00    +0.000 C 
ATOM      5  C   UNL     1       1.315   1.917  19.193  0.00  0.00    +0.000 C 
ATOM      6  O   UNL     1       2.567   1.628  18.595  0.00  0.00    +0.000 OA
ATOM      7  C   UNL     1       2.721   2.130  17.272  0.00  0.00    +0.000 C 
ATOM      8  C   UNL     1       3.068   3.617  17.205  0.00  0.00    +0.000 C 
ATOM      9  C   UNL     1       1.967   4.545  17.703  0.00  0.00    +0.000 C 
ATOM     10  N   UNL     1       2.176   5.130  19.057  0.00  0.00    +0.000 NA
ENDROOT
BRANCH  10  11
ATOM     11  C   UNL     1       3.051   6.356  19.027  0.00  0.00    +0.000 C 
BRANCH  11  12
ATOM     12  C   UNL     1       2.275   7.657  19.084  0.00  0.00    +0.000 A 
ATOM     13  C   UNL     1       1.676   8.069  20.282  0.00  0.00    +0.000 A 
ATOM     14  C   UNL     1       0.888   9.219  20.318  0.00  0.00    +0.000 A 
ATOM     15  C   UNL     1       0.701   9.968  19.157  0.00  0.00    +0.000 A 
ATOM     16 CL   UNL     1      -0.315  11.355  19.187  0.00  0.00    +0.000 Cl
ATOM     17  C   UNL     1       1.319   9.590  17.967  0.00  0.00    +0.000 A 
ATOM     18  C   UNL     1       2.110   8.440  17.930  0.00  0.00    +0.000 A 
ENDBRANCH  11  12
ENDBRANCH  10  11
TORSDOF 2
ENDMDL
MODEL 8
REMARK VINA RESULT:      -6.3      3.670      4.551
REMARK  Name = 
REMARK  2 active torsions:
REMARK  status: ('A' for Active; 'I' for Inactive)
REMARK    1  A    between atoms: N_10  and  C_11
REMARK    2  A    between atoms: C_11  and  C_12
REMARK                            x       y       z     vdW  Elec       q    Type
REMARK                         _______ _______ _______ _____ _____    ______ ____
ROOT
ATOM      1  O   UNL     1       2.217   4.923  21.553  0.00  0.00    +0.000 OA
ATOM      2  S   UNL     1       2.536   4.128  20.381  0.00  0.00    +0.000 S 
ATOM      3  O   UNL     1       3.891   3.642  20.221  0.00  0.00    +0.000 OA
ATOM      4  C   UNL     1       1.389   2.765  20.380  0.00  0.00    +0.000 C 
ATOM      5  C   UNL     1       1.325   1.895  19.148  0.00  0.00    +0.000 C 
ATOM      6  O   UNL     1       2.597   1.613  18.593  0.00  0.00    +0.000 OA
ATOM      7  C   UNL     1       2.794   2.119  17.277  0.00  0.00    +0.000 C 
ATOM      8  C   UNL     1       3.137   3.608  17.226  0.00  0.00    +0.000 C 
ATOM      9  C   UNL     1       2.015   4.529  17.687  0.00  0.00    +0.000 C 
ATOM     10  N   UNL     1       2.175   5.112  19.049  0.00  0.00    +0.000 NA
ENDROOT
BRANCH  10  11
ATOM     11  C   UNL     1       3.045   6.342  19.052  0.00  0.00    +0.000 C 
BRANCH  11  12
ATOM     12  C   UNL     1       2.262   7.639  19.050  0.00  0.00    +0.000 A 
ATOM     13  C   UNL     1       2.222   8.438  17.899  0.00  0.00    +0.000 A 
ATOM     14  C   UNL     1       1.575   9.674  17.920  0.00  0.00    +0.000 A 
ATOM     15  C   UNL     1       0.959  10.115  19.090  0.00  0.00    +0.000 A 
ATOM     16 CL   UNL     1       0.210  11.662  19.133  0.00  0.00    +0.000 Cl
ATOM     17  C   UNL     1       0.960   9.316  20.232  0.00  0.00    +0.000 A 
ATOM     18  C   UNL     1       1.605   8.077  20.211  0.00  0.00    +0.000 A 
ENDBRANCH  11  12
ENDBRANCH  10  11
TORSDOF 2
ENDMDL
MODEL 9
REMARK VINA RESULT:      -6.3      2.597      3.313
REMARK  Name = 
REMARK  2 active torsions:
REMARK  status: ('A' for Active; 'I' for Inactive)
REMARK    1  A    between atoms: N_10  and  C_11
REMARK    2  A    between atoms: C_11  and  C_12
REMARK                            x       y       z     vdW  Elec       q    Type
REMARK                         _______ _______ _______ _____ _____    ______ ____
ROOT
ATOM      1  O   UNL     1       2.762   5.719  17.677  0.00  0.00    +0.000 OA
ATOM      2  S   UNL     1       2.663   4.861  18.844  0.00  0.00    +0.000 S 
ATOM      3  O   UNL     1       2.834   5.451  20.156  0.00  0.00    +0.000 OA
ATOM      4  C   UNL     1       1.078   4.057  18.733  0.00  0.00    +0.000 C 
ATOM      5  C   UNL     1       0.791   2.922  19.687  0.00  0.00    +0.000 C 
ATOM      6  O   UNL     1       1.253   3.166  21.004  0.00  0.00    +0.000 OA
ATOM      7  C   UNL     1       2.257   2.263  21.456  0.00  0.00    +0.000 C 
ATOM      8  C   UNL     1       3.660   2.579  20.939  0.00  0.00    +0.000 C 
ATOM      9  C   UNL     1       3.829   2.415  19.433  0.00  0.00    +0.000 C 
ATOM     10  N   UNL     1       3.861   3.678  18.644  0.00  0.00    +0.000 NA
ENDROOT
BRANCH  10  11
ATOM     11  C   UNL     1       5.228   4.312  18.624  0.00  0.00    +0.000 C 
BRANCH  11  12
ATOM     12  C   UNL     1       5.827   4.417  17.236  0.00  0.00    +0.000 A 
ATOM     13  C   UNL     1       7.007   5.144  17.030  0.00  0.00    +0.000 A 
ATOM     14  C   UNL     1       7.514   5.318  15.742  0.00  0.00    +0.000 A 
ATOM     15  C   UNL     1       6.847   4.758  14.653  0.00  0.00    +0.000 A 
ATOM     16 CL   UNL     1       7.439   5.017  13.060  0.00  0.00    +0.000 Cl
ATOM     17  C   UNL     1       5.692   4.003  14.846  0.00  0.00    +0.000 A 
ATOM     18  C   UNL     1       5.185   3.827  16.135  0.00  0.00    +0.000 A 
ENDBRANCH  11  12
ENDBRANCH  10  11
TORSDOF 2
ENDMDL
