MODEL 1
REMARK VINA RESULT:      -8.0      0.000      0.000
REMARK  Name = 
REMARK  9 active torsions:
REMARK  status: ('A' for Active; 'I' for Inactive)
REMARK    1  A    between atoms: C_1  and  C_2
REMARK    2  A    between atoms: C_2  and  C_3
REMARK    3  A    between atoms: C_3  and  O_4
REMARK    4  A    between atoms: O_4  and  C_5
REMARK    5  A    between atoms: N_13  and  S_14
REMARK    6  A    between atoms: S_14  and  N_15
REMARK    7  A    between atoms: C_18  and  C_19
REMARK    8  A    between atoms: C_22  and  S_23
REMARK    9  A    between atoms: S_23  and  N_24
REMARK                            x       y       z     vdW  Elec       q    Type
REMARK                         _______ _______ _______ _____ _____    ______ ____
ROOT
ATOM      1  C   UNL     1       7.226   7.107  18.028  0.00  0.00    +0.000 A 
ATOM      2  C   UNL     1       6.331   7.486  17.026  0.00  0.00    +0.000 A 
ATOM      3  C   UNL     1       5.089   6.860  16.913  0.00  0.00    +0.000 A 
ATOM      4  C   UNL     1       4.729   5.835  17.796  0.00  0.00    +0.000 A 
ATOM      5  C   UNL     1       5.671   5.376  18.730  0.00  0.00    +0.000 A 
ATOM      6  C   UNL     1       6.899   6.037  18.867  0.00  0.00    +0.000 A 
ATOM      7  C   UNL     1       5.311   4.196  19.589  0.00  0.00    +0.000 C 
ATOM      8  C   UNL     1       4.389   3.244  18.825  0.00  0.00    +0.000 C 
ATOM      9  N   UNL     1       3.203   3.901  18.248  0.00  0.00    +0.000 NA
ATOM     10  C   UNL     1       3.282   5.329  17.865  0.00  0.00    +0.000 C 
ENDROOT
BRANCH  10  11
ATOM     11  C   UNL     1       2.485   6.302  18.754  0.00  0.00    +0.000 A 
ATOM     12  C   UNL     1       2.142   5.994  20.084  0.00  0.00    +0.000 A 
ATOM     13  C   UNL     1       1.603   6.965  20.930  0.00  0.00    +0.000 A 
ATOM     14  C   UNL     1       1.420   8.264  20.456  0.00  0.00    +0.000 A 
ATOM     15  C   UNL     1       1.682   8.580  19.123  0.00  0.00    +0.000 A 
ATOM     16  C   UNL     1       2.203   7.598  18.279  0.00  0.00    +0.000 A 
BRANCH  14  17
ATOM     17  S   UNL     1       0.892   9.540  21.568  0.00  0.00    +0.000 S 
ATOM     18  O   UNL     1       1.803   9.568  22.688  0.00  0.00    +0.000 OA
ATOM     19  O   UNL     1       0.551  10.713  20.797  0.00  0.00    +0.000 OA
BRANCH  17  20
ATOM     20  N   UNL     1      -0.545   8.882  22.122  0.00  0.00    +0.000 NA
ATOM     21  H   UNL     1      -0.474   8.413  23.022  0.00  0.00    +0.000 HD
ATOM     22  H   UNL     1      -1.117   8.453  21.399  0.00  0.00    +0.000 HD
ENDBRANCH  17  20
ENDBRANCH  14  17
ENDBRANCH  10  11
BRANCH   9  23
ATOM     23  S   UNL     1       1.720   3.164  18.271  0.00  0.00    +0.000 S 
ATOM     24  O   UNL     1       1.410   2.802  19.630  0.00  0.00    +0.000 OA
ATOM     25  O   UNL     1       0.815   3.867  17.399  0.00  0.00    +0.000 OA
BRANCH  23  26
ATOM     26  N   UNL     1       2.138   1.759  17.496  0.00  0.00    +0.000 NA
ATOM     27  H   UNL     1       1.731   1.668  16.571  0.00  0.00    +0.000 HD
ATOM     28  H   UNL     1       2.149   0.951  18.106  0.00  0.00    +0.000 HD
ENDBRANCH  23  26
ENDBRANCH   9  23
BRANCH   1  29
ATOM     29  O   UNL     1       8.434   7.704  18.281  0.00  0.00    +0.000 OA
BRANCH  29  30
ATOM     30  C   UNL     1       8.502   9.105  18.007  0.00  0.00    +0.000 C 
BRANCH  30  32
ATOM     31  C   UNL     1       9.560  11.241  18.767  0.00  0.00    +0.000 C 
ATOM     32  C   UNL     1       9.210   9.814  19.153  0.00  0.00    +0.000 C 
ENDBRANCH  30  32
ENDBRANCH  29  30
ENDBRANCH   1  29
TORSDOF 8
ENDMDL
MODEL 2
REMARK VINA RESULT:      -7.4      0.941      1.134
REMARK  Name = 
REMARK  9 active torsions:
REMARK  status: ('A' for Active; 'I' for Inactive)
REMARK    1  A    between atoms: C_1  and  C_2
REMARK    2  A    between atoms: C_2  and  C_3
REMARK    3  A    between atoms: C_3  and  O_4
REMARK    4  A    between atoms: O_4  and  C_5
REMARK    5  A    between atoms: N_13  and  S_14
REMARK    6  A    between atoms: S_14  and  N_15
REMARK    7  A    between atoms: C_18  and  C_19
REMARK    8  A    between atoms: C_22  and  S_23
REMARK    9  A    between atoms: S_23  and  N_24
REMARK                            x       y       z     vdW  Elec       q    Type
REMARK                         _______ _______ _______ _____ _____    ______ ____
ROOT
ATOM      1  C   UNL     1       7.299   7.125  18.103  0.00  0.00    +0.000 A 
ATOM      2  C   UNL     1       6.422   7.497  17.082  0.00  0.00    +0.000 A 
ATOM      3  C   UNL     1       5.192   6.855  16.938  0.00  0.00    +0.000 A 
ATOM      4  C   UNL     1       4.825   5.820  17.808  0.00  0.00    +0.000 A 
ATOM      5  C   UNL     1       5.752   5.369  18.761  0.00  0.00    +0.000 A 
ATOM      6  C   UNL     1       6.968   6.046  18.929  0.00  0.00    +0.000 A 
ATOM      7  C   UNL     1       5.389   4.180  19.605  0.00  0.00    +0.000 C 
ATOM      8  C   UNL     1       4.499   3.219  18.816  0.00  0.00    +0.000 C 
ATOM      9  N   UNL     1       3.316   3.863  18.215  0.00  0.00    +0.000 NA
ATOM     10  C   UNL     1       3.385   5.294  17.841  0.00  0.00    +0.000 C 
ENDROOT
BRANCH  10  11
ATOM     11  C   UNL     1       2.554   6.251  18.716  0.00  0.00    +0.000 A 
ATOM     12  C   UNL     1       2.255   5.968  20.062  0.00  0.00    +0.000 A 
ATOM     13  C   UNL     1       1.680   6.936  20.888  0.00  0.00    +0.000 A 
ATOM     14  C   UNL     1       1.419   8.208  20.378  0.00  0.00    +0.000 A 
ATOM     15  C   UNL     1       1.638   8.494  19.031  0.00  0.00    +0.000 A 
ATOM     16  C   UNL     1       2.194   7.515  18.207  0.00  0.00    +0.000 A 
BRANCH  14  17
ATOM     17  S   UNL     1       0.845   9.489  21.461  0.00  0.00    +0.000 S 
ATOM     18  O   UNL     1       1.047  10.760  20.805  0.00  0.00    +0.000 OA
ATOM     19  O   UNL     1      -0.421   9.084  22.026  0.00  0.00    +0.000 OA
BRANCH  17  20
ATOM     20  N   UNL     1       1.983   9.383  22.685  0.00  0.00    +0.000 NA
ATOM     21  H   UNL     1       2.753  10.044  22.603  0.00  0.00    +0.000 HD
ATOM     22  H   UNL     1       2.194   8.434  22.982  0.00  0.00    +0.000 HD
ENDBRANCH  17  20
ENDBRANCH  14  17
ENDBRANCH  10  11
BRANCH   9  23
ATOM     23  S   UNL     1       1.844   3.106  18.201  0.00  0.00    +0.000 S 
ATOM     24  O   UNL     1       1.971   1.872  17.469  0.00  0.00    +0.000 OA
ATOM     25  O   UNL     1       1.230   3.212  19.498  0.00  0.00    +0.000 OA
BRANCH  23  26
ATOM     26  N   UNL     1       1.042   4.160  17.203  0.00  0.00    +0.000 NA
ATOM     27  H   UNL     1       1.571   4.419  16.376  0.00  0.00    +0.000 HD
ATOM     28  H   UNL     1       0.534   4.880  17.702  0.00  0.00    +0.000 HD
ENDBRANCH  23  26
ENDBRANCH   9  23
BRANCH   1  29
ATOM     29  O   UNL     1       8.493   7.737  18.386  0.00  0.00    +0.000 OA
BRANCH  29  30
ATOM     30  C   UNL     1       8.555   9.135  18.098  0.00  0.00    +0.000 C 
BRANCH  30  32
ATOM     31  C   UNL     1       9.990  11.043  18.849  0.00  0.00    +0.000 C 
ATOM     32  C   UNL     1       9.124   9.878  19.300  0.00  0.00    +0.000 C 
ENDBRANCH  30  32
ENDBRANCH  29  30
ENDBRANCH   1  29
TORSDOF 8
ENDMDL
MODEL 3
REMARK VINA RESULT:      -7.3      1.114      1.354
REMARK  Name = 
REMARK  9 active torsions:
REMARK  status: ('A' for Active; 'I' for Inactive)
REMARK    1  A    between atoms: C_1  and  C_2
REMARK    2  A    between atoms: C_2  and  C_3
REMARK    3  A    between atoms: C_3  and  O_4
REMARK    4  A    between atoms: O_4  and  C_5
REMARK    5  A    between atoms: N_13  and  S_14
REMARK    6  A    between atoms: S_14  and  N_15
REMARK    7  A    between atoms: C_18  and  C_19
REMARK    8  A    between atoms: C_22  and  S_23
REMARK    9  A    between atoms: S_23  and  N_24
REMARK                            x       y       z     vdW  Elec       q    Type
REMARK                         _______ _______ _______ _____ _____    ______ ____
ROOT
ATOM      1  C   UNL     1       7.454   7.271  18.138  0.00  0.00    +0.000 A 
ATOM      2  C   UNL     1       6.670   7.626  17.039  0.00  0.00    +0.000 A 
ATOM      3  C   UNL     1       5.446   6.997  16.810  0.00  0.00    +0.000 A 
ATOM      4  C   UNL     1       4.992   5.993  17.674  0.00  0.00    +0.000 A 
ATOM      5  C   UNL     1       5.829   5.556  18.713  0.00  0.00    +0.000 A 
ATOM      6  C   UNL     1       7.037   6.221  18.962  0.00  0.00    +0.000 A 
ATOM      7  C   UNL     1       5.378   4.397  19.556  0.00  0.00    +0.000 C 
ATOM      8  C   UNL     1       4.541   3.427  18.721  0.00  0.00    +0.000 C 
ATOM      9  N   UNL     1       3.423   4.069  18.006  0.00  0.00    +0.000 NA
ATOM     10  C   UNL     1       3.545   5.488  17.600  0.00  0.00    +0.000 C 
ENDROOT
BRANCH  10  11
ATOM     11  C   UNL     1       2.661   6.482  18.377  0.00  0.00    +0.000 A 
ATOM     12  C   UNL     1       2.413   6.346  19.755  0.00  0.00    +0.000 A 
ATOM     13  C   UNL     1       1.782   7.363  20.475  0.00  0.00    +0.000 A 
ATOM     14  C   UNL     1       1.410   8.538  19.821  0.00  0.00    +0.000 A 
ATOM     15  C   UNL     1       1.578   8.670  18.444  0.00  0.00    +0.000 A 
ATOM     16  C   UNL     1       2.192   7.641  17.728  0.00  0.00    +0.000 A 
BRANCH  14  17
ATOM     17  S   UNL     1       0.761   9.896  20.757  0.00  0.00    +0.000 S 
ATOM     18  O   UNL     1      -0.682   9.826  20.714  0.00  0.00    +0.000 OA
ATOM     19  O   UNL     1       1.509  10.011  21.987  0.00  0.00    +0.000 OA
BRANCH  17  20
ATOM     20  N   UNL     1       1.218  11.181  19.784  0.00  0.00    +0.000 NA
ATOM     21  H   UNL     1       2.082  11.636  20.066  0.00  0.00    +0.000 HD
ATOM     22  H   UNL     1       0.446  11.764  19.469  0.00  0.00    +0.000 HD
ENDBRANCH  17  20
ENDBRANCH  14  17
ENDBRANCH  10  11
BRANCH   9  23
ATOM     23  S   UNL     1       1.945   3.333  17.889  0.00  0.00    +0.000 S 
ATOM     24  O   UNL     1       1.013   4.268  17.312  0.00  0.00    +0.000 OA
ATOM     25  O   UNL     1       2.111   1.978  17.433  0.00  0.00    +0.000 OA
BRANCH  23  26
ATOM     26  N   UNL     1       1.587   3.254  19.506  0.00  0.00    +0.000 NA
ATOM     27  H   UNL     1       2.295   2.778  20.057  0.00  0.00    +0.000 HD
ATOM     28  H   UNL     1       0.611   3.060  19.695  0.00  0.00    +0.000 HD
ENDBRANCH  23  26
ENDBRANCH   9  23
BRANCH   1  29
ATOM     29  O   UNL     1       8.630   7.874  18.504  0.00  0.00    +0.000 OA
BRANCH  29  30
ATOM     30  C   UNL     1       8.711   9.277  18.246  0.00  0.00    +0.000 C 
BRANCH  30  32
ATOM     31  C   UNL     1      10.134  11.181  19.030  0.00  0.00    +0.000 C 
ATOM     32  C   UNL     1       9.301   9.984  19.459  0.00  0.00    +0.000 C 
ENDBRANCH  30  32
ENDBRANCH  29  30
ENDBRANCH   1  29
TORSDOF 8
ENDMDL
MODEL 4
REMARK VINA RESULT:      -7.0      0.901      1.288
REMARK  Name = 
REMARK  9 active torsions:
REMARK  status: ('A' for Active; 'I' for Inactive)
REMARK    1  A    between atoms: C_1  and  C_2
REMARK    2  A    between atoms: C_2  and  C_3
REMARK    3  A    between atoms: C_3  and  O_4
REMARK    4  A    between atoms: O_4  and  C_5
REMARK    5  A    between atoms: N_13  and  S_14
REMARK    6  A    between atoms: S_14  and  N_15
REMARK    7  A    between atoms: C_18  and  C_19
REMARK    8  A    between atoms: C_22  and  S_23
REMARK    9  A    between atoms: S_23  and  N_24
REMARK                            x       y       z     vdW  Elec       q    Type
REMARK                         _______ _______ _______ _____ _____    ______ ____
ROOT
ATOM      1  C   UNL     1       7.369   7.099  17.706  0.00  0.00    +0.000 A 
ATOM      2  C   UNL     1       6.449   7.570  16.768  0.00  0.00    +0.000 A 
ATOM      3  C   UNL     1       5.152   7.058  16.732  0.00  0.00    +0.000 A 
ATOM      4  C   UNL     1       4.759   6.057  17.629  0.00  0.00    +0.000 A 
ATOM      5  C   UNL     1       5.714   5.504  18.496  0.00  0.00    +0.000 A 
ATOM      6  C   UNL     1       7.003   6.051  18.556  0.00  0.00    +0.000 A 
ATOM      7  C   UNL     1       5.306   4.349  19.367  0.00  0.00    +0.000 C 
ATOM      8  C   UNL     1       4.257   3.492  18.658  0.00  0.00    +0.000 C 
ATOM      9  N   UNL     1       3.099   4.259  18.164  0.00  0.00    +0.000 NA
ATOM     10  C   UNL     1       3.280   5.680  17.788  0.00  0.00    +0.000 C 
ENDROOT
BRANCH  10  11
ATOM     11  C   UNL     1       2.632   6.708  18.734  0.00  0.00    +0.000 A 
ATOM     12  C   UNL     1       2.149   7.948  18.277  0.00  0.00    +0.000 A 
ATOM     13  C   UNL     1       1.388   8.772  19.108  0.00  0.00    +0.000 A 
ATOM     14  C   UNL     1       1.083   8.350  20.402  0.00  0.00    +0.000 A 
ATOM     15  C   UNL     1       1.608   7.161  20.906  0.00  0.00    +0.000 A 
ATOM     16  C   UNL     1       2.386   6.352  20.075  0.00  0.00    +0.000 A 
BRANCH  14  17
ATOM     17  S   UNL     1      -0.018   9.312  21.404  0.00  0.00    +0.000 S 
ATOM     18  O   UNL     1      -0.943   8.411  22.052  0.00  0.00    +0.000 OA
ATOM     19  O   UNL     1       0.753  10.302  22.120  0.00  0.00    +0.000 OA
BRANCH  17  20
ATOM     20  N   UNL     1      -0.877  10.124  20.217  0.00  0.00    +0.000 NA
ATOM     21  H   UNL     1      -1.785  10.470  20.517  0.00  0.00    +0.000 HD
ATOM     22  H   UNL     1      -0.799   9.715  19.289  0.00  0.00    +0.000 HD
ENDBRANCH  17  20
ENDBRANCH  14  17
ENDBRANCH  10  11
BRANCH   9  23
ATOM     23  S   UNL     1       1.560   3.657  18.278  0.00  0.00    +0.000 S 
ATOM     24  O   UNL     1       1.183   3.626  19.668  0.00  0.00    +0.000 OA
ATOM     25  O   UNL     1       0.742   4.215  17.234  0.00  0.00    +0.000 OA
BRANCH  23  26
ATOM     26  N   UNL     1       1.884   2.089  17.847  0.00  0.00    +0.000 NA
ATOM     27  H   UNL     1       1.070   1.582  17.516  0.00  0.00    +0.000 HD
ATOM     28  H   UNL     1       2.528   1.623  18.475  0.00  0.00    +0.000 HD
ENDBRANCH  23  26
ENDBRANCH   9  23
BRANCH   1  29
ATOM     29  O   UNL     1       8.640   7.583  17.884  0.00  0.00    +0.000 OA
BRANCH  29  30
ATOM     30  C   UNL     1       8.778   8.612  18.867  0.00  0.00    +0.000 C 
BRANCH  30  32
ATOM     31  C   UNL     1       9.622  10.967  18.958  0.00  0.00    +0.000 C 
ATOM     32  C   UNL     1       8.773   9.973  18.182  0.00  0.00    +0.000 C 
ENDBRANCH  30  32
ENDBRANCH  29  30
ENDBRANCH   1  29
TORSDOF 8
ENDMDL
MODEL 5
REMARK VINA RESULT:      -6.9      1.127      1.192
REMARK  Name = 
REMARK  9 active torsions:
REMARK  status: ('A' for Active; 'I' for Inactive)
REMARK    1  A    between atoms: C_1  and  C_2
REMARK    2  A    between atoms: C_2  and  C_3
REMARK    3  A    between atoms: C_3  and  O_4
REMARK    4  A    between atoms: O_4  and  C_5
REMARK    5  A    between atoms: N_13  and  S_14
REMARK    6  A    between atoms: S_14  and  N_15
REMARK    7  A    between atoms: C_18  and  C_19
REMARK    8  A    between atoms: C_22  and  S_23
REMARK    9  A    between atoms: S_23  and  N_24
REMARK                            x       y       z     vdW  Elec       q    Type
REMARK                         _______ _______ _______ _____ _____    ______ ____
ROOT
ATOM      1  C   UNL     1       7.116   7.092  17.427  0.00  0.00    +0.000 A 
ATOM      2  C   UNL     1       6.194   7.252  16.391  0.00  0.00    +0.000 A 
ATOM      3  C   UNL     1       4.942   6.641  16.458  0.00  0.00    +0.000 A 
ATOM      4  C   UNL     1       4.596   5.850  17.560  0.00  0.00    +0.000 A 
ATOM      5  C   UNL     1       5.561   5.596  18.547  0.00  0.00    +0.000 A 
ATOM      6  C   UNL     1       6.802   6.246  18.496  0.00  0.00    +0.000 A 
ATOM      7  C   UNL     1       5.214   4.649  19.661  0.00  0.00    +0.000 C 
ATOM      8  C   UNL     1       4.257   3.566  19.159  0.00  0.00    +0.000 C 
ATOM      9  N   UNL     1       3.061   4.098  18.481  0.00  0.00    +0.000 NA
ATOM     10  C   UNL     1       3.146   5.401  17.782  0.00  0.00    +0.000 C 
ENDROOT
BRANCH  10  11
ATOM     11  C   UNL     1       2.390   6.566  18.449  0.00  0.00    +0.000 A 
ATOM     12  C   UNL     1       2.339   6.725  19.846  0.00  0.00    +0.000 A 
ATOM     13  C   UNL     1       1.826   7.890  20.418  0.00  0.00    +0.000 A 
ATOM     14  C   UNL     1       1.377   8.921  19.592  0.00  0.00    +0.000 A 
ATOM     15  C   UNL     1       1.348   8.762  18.207  0.00  0.00    +0.000 A 
ATOM     16  C   UNL     1       1.845   7.585  17.644  0.00  0.00    +0.000 A 
BRANCH  14  17
ATOM     17  S   UNL     1       0.879  10.466  20.304  0.00  0.00    +0.000 S 
ATOM     18  O   UNL     1       1.011  10.365  21.739  0.00  0.00    +0.000 OA
ATOM     19  O   UNL     1       1.459  11.539  19.531  0.00  0.00    +0.000 OA
BRANCH  17  20
ATOM     20  N   UNL     1      -0.760  10.444  19.960  0.00  0.00    +0.000 NA
ATOM     21  H   UNL     1      -1.151   9.514  19.831  0.00  0.00    +0.000 HD
ATOM     22  H   UNL     1      -1.068  11.187  19.337  0.00  0.00    +0.000 HD
ENDBRANCH  17  20
ENDBRANCH  14  17
ENDBRANCH  10  11
BRANCH   9  23
ATOM     23  S   UNL     1       1.570   3.416  18.711  0.00  0.00    +0.000 S 
ATOM     24  O   UNL     1       1.683   1.994  18.511  0.00  0.00    +0.000 OA
ATOM     25  O   UNL     1       0.930   4.019  19.850  0.00  0.00    +0.000 OA
BRANCH  23  26
ATOM     26  N   UNL     1       0.819   4.020  17.363  0.00  0.00    +0.000 NA
ATOM     27  H   UNL     1      -0.193   4.052  17.441  0.00  0.00    +0.000 HD
ATOM     28  H   UNL     1       1.231   3.701  16.494  0.00  0.00    +0.000 HD
ENDBRANCH  23  26
ENDBRANCH   9  23
BRANCH   1  29
ATOM     29  O   UNL     1       8.339   7.707  17.505  0.00  0.00    +0.000 OA
BRANCH  29  30
ATOM     30  C   UNL     1       8.526   8.574  18.625  0.00  0.00    +0.000 C 
BRANCH  30  32
ATOM     31  C   UNL     1       9.794  10.707  18.947  0.00  0.00    +0.000 C 
ATOM     32  C   UNL     1       8.719  10.003  18.136  0.00  0.00    +0.000 C 
ENDBRANCH  30  32
ENDBRANCH  29  30
ENDBRANCH   1  29
TORSDOF 8
ENDMDL
MODEL 6
REMARK VINA RESULT:      -6.7      0.747      1.183
REMARK  Name = 
REMARK  9 active torsions:
REMARK  status: ('A' for Active; 'I' for Inactive)
REMARK    1  A    between atoms: C_1  and  C_2
REMARK    2  A    between atoms: C_2  and  C_3
REMARK    3  A    between atoms: C_3  and  O_4
REMARK    4  A    between atoms: O_4  and  C_5
REMARK    5  A    between atoms: N_13  and  S_14
REMARK    6  A    between atoms: S_14  and  N_15
REMARK    7  A    between atoms: C_18  and  C_19
REMARK    8  A    between atoms: C_22  and  S_23
REMARK    9  A    between atoms: S_23  and  N_24
REMARK                            x       y       z     vdW  Elec       q    Type
REMARK                         _______ _______ _______ _____ _____    ______ ____
ROOT
ATOM      1  C   UNL     1       7.028   6.932  17.209  0.00  0.00    +0.000 A 
ATOM      2  C   UNL     1       5.976   7.247  16.347  0.00  0.00    +0.000 A 
ATOM      3  C   UNL     1       4.710   6.697  16.546  0.00  0.00    +0.000 A 
ATOM      4  C   UNL     1       4.480   5.812  17.607  0.00  0.00    +0.000 A 
ATOM      5  C   UNL     1       5.561   5.407  18.405  0.00  0.00    +0.000 A 
ATOM      6  C   UNL     1       6.820   5.996  18.227  0.00  0.00    +0.000 A 
ATOM      7  C   UNL     1       5.320   4.367  19.462  0.00  0.00    +0.000 C 
ATOM      8  C   UNL     1       4.230   3.393  19.012  0.00  0.00    +0.000 C 
ATOM      9  N   UNL     1       2.985   4.053  18.580  0.00  0.00    +0.000 NA
ATOM     10  C   UNL     1       3.052   5.416  18.004  0.00  0.00    +0.000 C 
ENDROOT
BRANCH  10  11
ATOM     11  C   UNL     1       2.481   6.541  18.888  0.00  0.00    +0.000 A 
ATOM     12  C   UNL     1       2.104   7.791  18.362  0.00  0.00    +0.000 A 
ATOM     13  C   UNL     1       1.404   8.715  19.139  0.00  0.00    +0.000 A 
ATOM     14  C   UNL     1       1.055   8.388  20.449  0.00  0.00    +0.000 A 
ATOM     15  C   UNL     1       1.478   7.188  21.020  0.00  0.00    +0.000 A 
ATOM     16  C   UNL     1       2.194   6.277  20.242  0.00  0.00    +0.000 A 
BRANCH  14  17
ATOM     17  S   UNL     1       0.026   9.486  21.386  0.00  0.00    +0.000 S 
ATOM     18  O   UNL     1       0.874  10.269  22.254  0.00  0.00    +0.000 OA
ATOM     19  O   UNL     1      -0.952  10.072  20.499  0.00  0.00    +0.000 OA
BRANCH  17  20
ATOM     20  N   UNL     1      -0.786   8.388  22.355  0.00  0.00    +0.000 NA
ATOM     21  H   UNL     1      -0.674   7.416  22.076  0.00  0.00    +0.000 HD
ATOM     22  H   UNL     1      -1.705   8.697  22.661  0.00  0.00    +0.000 HD
ENDBRANCH  17  20
ENDBRANCH  14  17
ENDBRANCH  10  11
BRANCH   9  23
ATOM     23  S   UNL     1       1.503   3.426  18.969  0.00  0.00    +0.000 S 
ATOM     24  O   UNL     1       1.287   3.607  20.382  0.00  0.00    +0.000 OA
ATOM     25  O   UNL     1       0.543   3.782  17.957  0.00  0.00    +0.000 OA
BRANCH  23  26
ATOM     26  N   UNL     1       1.857   1.821  18.752  0.00  0.00    +0.000 NA
ATOM     27  H   UNL     1       2.043   1.573  17.785  0.00  0.00    +0.000 HD
ATOM     28  H   UNL     1       1.285   1.202  19.313  0.00  0.00    +0.000 HD
ENDBRANCH  23  26
ENDBRANCH   9  23
BRANCH   1  29
ATOM     29  O   UNL     1       8.287   7.473  17.156  0.00  0.00    +0.000 OA
BRANCH  29  30
ATOM     30  C   UNL     1       8.370   8.874  17.425  0.00  0.00    +0.000 C 
BRANCH  30  32
ATOM     31  C   UNL     1       9.343  10.487  19.073  0.00  0.00    +0.000 C 
ATOM     32  C   UNL     1       8.774   9.091  18.877  0.00  0.00    +0.000 C 
ENDBRANCH  30  32
ENDBRANCH  29  30
ENDBRANCH   1  29
TORSDOF 8
ENDMDL
MODEL 7
REMARK VINA RESULT:      -6.5      5.375      8.248
REMARK  Name = 
REMARK  9 active torsions:
REMARK  status: ('A' for Active; 'I' for Inactive)
REMARK    1  A    between atoms: C_1  and  C_2
REMARK    2  A    between atoms: C_2  and  C_3
REMARK    3  A    between atoms: C_3  and  O_4
REMARK    4  A    between atoms: O_4  and  C_5
REMARK    5  A    between atoms: N_13  and  S_14
REMARK    6  A    between atoms: S_14  and  N_15
REMARK    7  A    between atoms: C_18  and  C_19
REMARK    8  A    between atoms: C_22  and  S_23
REMARK    9  A    between atoms: S_23  and  N_24
REMARK                            x       y       z     vdW  Elec       q    Type
REMARK                         _______ _______ _______ _____ _____    ______ ____
ROOT
ATOM      1  C   UNL     1       1.758   7.543  19.898  0.00  0.00    +0.000 A 
ATOM      2  C   UNL     1       1.219   8.031  21.090  0.00  0.00    +0.000 A 
ATOM      3  C   UNL     1       0.848   9.371  21.201  0.00  0.00    +0.000 A 
ATOM      4  C   UNL     1       1.020  10.247  20.122  0.00  0.00    +0.000 A 
ATOM      5  C   UNL     1       1.665   9.785  18.963  0.00  0.00    +0.000 A 
ATOM      6  C   UNL     1       1.997   8.428  18.843  0.00  0.00    +0.000 A 
ATOM      7  C   UNL     1       1.949  10.767  17.863  0.00  0.00    +0.000 C 
ATOM      8  C   UNL     1       2.217  12.156  18.444  0.00  0.00    +0.000 C 
ATOM      9  N   UNL     1       1.163  12.629  19.360  0.00  0.00    +0.000 NA
ATOM     10  C   UNL     1       0.373  11.638  20.127  0.00  0.00    +0.000 C 
ENDROOT
BRANCH  10  11
ATOM     11  C   UNL     1      -1.095  11.476  19.691  0.00  0.00    +0.000 A 
ATOM     12  C   UNL     1      -2.139  12.212  20.282  0.00  0.00    +0.000 A 
ATOM     13  C   UNL     1      -3.424  12.200  19.737  0.00  0.00    +0.000 A 
ATOM     14  C   UNL     1      -3.672  11.464  18.579  0.00  0.00    +0.000 A 
ATOM     15  C   UNL     1      -2.677  10.667  18.014  0.00  0.00    +0.000 A 
ATOM     16  C   UNL     1      -1.399  10.670  18.576  0.00  0.00    +0.000 A 
BRANCH  14  17
ATOM     17  S   UNL     1      -5.255  11.574  17.789  0.00  0.00    +0.000 S 
ATOM     18  O   UNL     1      -6.095  10.520  18.308  0.00  0.00    +0.000 OA
ATOM     19  O   UNL     1      -5.659  12.961  17.755  0.00  0.00    +0.000 OA
BRANCH  17  20
ATOM     20  N   UNL     1      -4.843  11.145  16.223  0.00  0.00    +0.000 NA
ATOM     21  H   UNL     1      -5.563  11.337  15.530  0.00  0.00    +0.000 HD
ATOM     22  H   UNL     1      -4.324  10.274  16.149  0.00  0.00    +0.000 HD
ENDBRANCH  17  20
ENDBRANCH  14  17
ENDBRANCH  10  11
BRANCH   9  23
ATOM     23  S   UNL     1       0.662  14.207  19.347  0.00  0.00    +0.000 S 
ATOM     24  O   UNL     1      -0.280  14.379  18.271  0.00  0.00    +0.000 OA
ATOM     25  O   UNL     1       0.433  14.655  20.695  0.00  0.00    +0.000 OA
BRANCH  23  26
ATOM     26  N   UNL     1       2.079  14.905  18.843  0.00  0.00    +0.000 NA
ATOM     27  H   UNL     1       2.749  15.050  19.592  0.00  0.00    +0.000 HD
ATOM     28  H   UNL     1       1.947  15.639  18.158  0.00  0.00    +0.000 HD
ENDBRANCH  23  26
ENDBRANCH   9  23
BRANCH   1  29
ATOM     29  O   UNL     1       2.083   6.233  19.652  0.00  0.00    +0.000 OA
BRANCH  29  30
ATOM     30  C   UNL     1       1.925   5.339  20.755  0.00  0.00    +0.000 C 
BRANCH  30  32
ATOM     31  C   UNL     1       1.341   2.946  21.200  0.00  0.00    +0.000 C 
ATOM     32  C   UNL     1       1.053   4.163  20.336  0.00  0.00    +0.000 C 
ENDBRANCH  30  32
ENDBRANCH  29  30
ENDBRANCH   1  29
TORSDOF 8
ENDMDL
MODEL 8
REMARK VINA RESULT:      -6.5      5.076      8.061
REMARK  Name = 
REMARK  9 active torsions:
REMARK  status: ('A' for Active; 'I' for Inactive)
REMARK    1  A    between atoms: C_1  and  C_2
REMARK    2  A    between atoms: C_2  and  C_3
REMARK    3  A    between atoms: C_3  and  O_4
REMARK    4  A    between atoms: O_4  and  C_5
REMARK    5  A    between atoms: N_13  and  S_14
REMARK    6  A    between atoms: S_14  and  N_15
REMARK    7  A    between atoms: C_18  and  C_19
REMARK    8  A    between atoms: C_22  and  S_23
REMARK    9  A    between atoms: S_23  and  N_24
REMARK                            x       y       z     vdW  Elec       q    Type
REMARK                         _______ _______ _______ _____ _____    ______ ____
ROOT
ATOM      1  C   UNL     1       2.235   7.641  19.425  0.00  0.00    +0.000 A 
ATOM      2  C   UNL     1       2.120   8.237  18.168  0.00  0.00    +0.000 A 
ATOM      3  C   UNL     1       1.476   9.467  18.025  0.00  0.00    +0.000 A 
ATOM      4  C   UNL     1       0.927  10.114  19.138  0.00  0.00    +0.000 A 
ATOM      5  C   UNL     1       0.942   9.464  20.382  0.00  0.00    +0.000 A 
ATOM      6  C   UNL     1       1.627   8.250  20.528  0.00  0.00    +0.000 A 
ATOM      7  C   UNL     1       0.243  10.118  21.540  0.00  0.00    +0.000 C 
ATOM      8  C   UNL     1      -0.969  10.912  21.050  0.00  0.00    +0.000 C 
ATOM      9  N   UNL     1      -0.658  11.866  19.971  0.00  0.00    +0.000 NA
ATOM     10  C   UNL     1       0.465  11.574  19.050  0.00  0.00    +0.000 C 
ENDROOT
BRANCH  10  11
ATOM     11  C   UNL     1       1.707  12.471  19.209  0.00  0.00    +0.000 A 
ATOM     12  C   UNL     1       2.431  12.952  18.102  0.00  0.00    +0.000 A 
ATOM     13  C   UNL     1       3.423  13.922  18.260  0.00  0.00    +0.000 A 
ATOM     14  C   UNL     1       3.685  14.436  19.530  0.00  0.00    +0.000 A 
ATOM     15  C   UNL     1       3.035  13.926  20.653  0.00  0.00    +0.000 A 
ATOM     16  C   UNL     1       2.059  12.943  20.489  0.00  0.00    +0.000 A 
BRANCH  14  17
ATOM     17  S   UNL     1       4.824  15.782  19.715  0.00  0.00    +0.000 S 
ATOM     18  O   UNL     1       4.827  16.184  21.103  0.00  0.00    +0.000 OA
ATOM     19  O   UNL     1       6.028  15.474  18.980  0.00  0.00    +0.000 OA
BRANCH  17  20
ATOM     20  N   UNL     1       4.020  16.978  18.861  0.00  0.00    +0.000 NA
ATOM     21  H   UNL     1       4.096  16.897  17.851  0.00  0.00    +0.000 HD
ATOM     22  H   UNL     1       4.084  17.905  19.276  0.00  0.00    +0.000 HD
ENDBRANCH  17  20
ENDBRANCH  14  17
ENDBRANCH  10  11
BRANCH   9  23
ATOM     23  S   UNL     1      -1.348  13.371  19.932  0.00  0.00    +0.000 S 
ATOM     24  O   UNL     1      -1.383  13.893  21.274  0.00  0.00    +0.000 OA
ATOM     25  O   UNL     1      -0.853  14.103  18.796  0.00  0.00    +0.000 OA
BRANCH  23  26
ATOM     26  N   UNL     1      -2.900  12.913  19.568  0.00  0.00    +0.000 NA
ATOM     27  H   UNL     1      -3.017  12.599  18.610  0.00  0.00    +0.000 HD
ATOM     28  H   UNL     1      -3.604  13.518  19.972  0.00  0.00    +0.000 HD
ENDBRANCH  23  26
ENDBRANCH   9  23
BRANCH   1  29
ATOM     29  O   UNL     1       2.913   6.480  19.695  0.00  0.00    +0.000 OA
BRANCH  29  30
ATOM     30  C   UNL     1       2.198   5.271  19.427  0.00  0.00    +0.000 C 
BRANCH  30  32
ATOM     31  C   UNL     1       1.048   3.318  20.488  0.00  0.00    +0.000 C 
ATOM     32  C   UNL     1       1.828   4.598  20.742  0.00  0.00    +0.000 C 
ENDBRANCH  30  32
ENDBRANCH  29  30
ENDBRANCH   1  29
TORSDOF 8
ENDMDL
MODEL 9
REMARK VINA RESULT:      -6.5      5.062      8.001
REMARK  Name = 
REMARK  9 active torsions:
REMARK  status: ('A' for Active; 'I' for Inactive)
REMARK    1  A    between atoms: C_1  and  C_2
REMARK    2  A    between atoms: C_2  and  C_3
REMARK    3  A    between atoms: C_3  and  O_4
REMARK    4  A    between atoms: O_4  and  C_5
REMARK    5  A    between atoms: N_13  and  S_14
REMARK    6  A    between atoms: S_14  and  N_15
REMARK    7  A    between atoms: C_18  and  C_19
REMARK    8  A    between atoms: C_22  and  S_23
REMARK    9  A    between atoms: S_23  and  N_24
REMARK                            x       y       z     vdW  Elec       q    Type
REMARK                         _______ _______ _______ _____ _____    ______ ____
ROOT
ATOM      1  C   UNL     1       1.853   8.266  18.635  0.00  0.00    +0.000 A 
ATOM      2  C   UNL     1       1.010   9.017  17.813  0.00  0.00    +0.000 A 
ATOM      3  C   UNL     1       0.211  10.024  18.353  0.00  0.00    +0.000 A 
ATOM      4  C   UNL     1       0.235  10.289  19.728  0.00  0.00    +0.000 A 
ATOM      5  C   UNL     1       0.995   9.461  20.570  0.00  0.00    +0.000 A 
ATOM      6  C   UNL     1       1.828   8.479  20.017  0.00  0.00    +0.000 A 
ATOM      7  C   UNL     1       0.915   9.683  22.054  0.00  0.00    +0.000 C 
ATOM      8  C   UNL     1      -0.478  10.182  22.443  0.00  0.00    +0.000 C 
ATOM      9  N   UNL     1      -0.923  11.358  21.675  0.00  0.00    +0.000 NA
ATOM     10  C   UNL     1      -0.419  11.555  20.297  0.00  0.00    +0.000 C 
ENDROOT
BRANCH  10  11
ATOM     11  C   UNL     1       0.573  12.720  20.110  0.00  0.00    +0.000 A 
ATOM     12  C   UNL     1       1.749  12.833  20.875  0.00  0.00    +0.000 A 
ATOM     13  C   UNL     1       2.727  13.776  20.551  0.00  0.00    +0.000 A 
ATOM     14  C   UNL     1       2.544  14.602  19.443  0.00  0.00    +0.000 A 
ATOM     15  C   UNL     1       1.358  14.562  18.712  0.00  0.00    +0.000 A 
ATOM     16  C   UNL     1       0.376  13.630  19.053  0.00  0.00    +0.000 A 
BRANCH  14  17
ATOM     17  S   UNL     1       3.851  15.685  18.928  0.00  0.00    +0.000 S 
ATOM     18  O   UNL     1       3.405  17.047  19.105  0.00  0.00    +0.000 OA
ATOM     19  O   UNL     1       5.099  15.187  19.459  0.00  0.00    +0.000 OA
BRANCH  17  20
ATOM     20  N   UNL     1       3.864  15.383  17.281  0.00  0.00    +0.000 NA
ATOM     21  H   UNL     1       4.342  14.526  17.014  0.00  0.00    +0.000 HD
ATOM     22  H   UNL     1       3.998  16.209  16.704  0.00  0.00    +0.000 HD
ENDBRANCH  17  20
ENDBRANCH  14  17
ENDBRANCH  10  11
BRANCH   9  23
ATOM     23  S   UNL     1      -1.749  12.595  22.404  0.00  0.00    +0.000 S 
ATOM     24  O   UNL     1      -0.859  13.260  23.321  0.00  0.00    +0.000 OA
ATOM     25  O   UNL     1      -2.559  13.278  21.431  0.00  0.00    +0.000 OA
BRANCH  23  26
ATOM     26  N   UNL     1      -2.778  11.683  23.330  0.00  0.00    +0.000 NA
ATOM     27  H   UNL     1      -2.309  11.149  24.054  0.00  0.00    +0.000 HD
ATOM     28  H   UNL     1      -3.514  11.238  22.795  0.00  0.00    +0.000 HD
ENDBRANCH  23  26
ENDBRANCH   9  23
BRANCH   1  29
ATOM     29  O   UNL     1       2.737   7.310  18.204  0.00  0.00    +0.000 OA
BRANCH  29  30
ATOM     30  C   UNL     1       2.671   6.056  18.886  0.00  0.00    +0.000 C 
BRANCH  30  32
ATOM     31  C   UNL     1       1.493   4.112  17.837  0.00  0.00    +0.000 C 
ATOM     32  C   UNL     1       2.780   4.921  17.876  0.00  0.00    +0.000 C 
ENDBRANCH  30  32
ENDBRANCH  29  30
ENDBRANCH   1  29
TORSDOF 8
ENDMDL
