MODEL 1
REMARK VINA RESULT:      -7.5      0.000      0.000
REMARK  Name = 
REMARK  9 active torsions:
REMARK  status: ('A' for Active; 'I' for Inactive)
REMARK    1  A    between atoms: C_1  and  O_2
REMARK    2  A    between atoms: O_2  and  C_3
REMARK    3  A    between atoms: C_3  and  C_4
REMARK    4  A    between atoms: C_4  and  N_5
REMARK    5  A    between atoms: N_5  and  C_6
REMARK    6  A    between atoms: C_12  and  N_13
REMARK    7  A    between atoms: N_16  and  C_17
REMARK    8  A    between atoms: C_17  and  C_18
REMARK    9  A    between atoms: C_17  and  C_19
REMARK                            x       y       z     vdW  Elec       q    Type
REMARK                         _______ _______ _______ _____ _____    ______ ____
ROOT
ATOM      1  N   UNL     1       0.497  11.088  19.662  0.00  0.00    +0.000 N 
ATOM      2  C   UNL     1      -0.075  12.157  18.853  0.00  0.00    +0.000 C 
ATOM      3  C   UNL     1       1.196  10.113  18.996  0.00  0.00    +0.000 A 
ATOM      4  N   UNL     1       1.657  10.240  17.746  0.00  0.00    +0.000 NA
ATOM      5  N   UNL     1       2.267   9.075  17.482  0.00  0.00    +0.000 N 
ATOM      6  C   UNL     1       2.176   8.151  18.483  0.00  0.00    +0.000 A 
ATOM      7  C   UNL     1       2.615   6.824  18.597  0.00  0.00    +0.000 A 
ATOM      8  C   UNL     1       2.286   6.195  19.792  0.00  0.00    +0.000 A 
ATOM      9  N   UNL     1       1.597   6.811  20.777  0.00  0.00    +0.000 NA
ATOM     10  C   UNL     1       1.199   8.091  20.651  0.00  0.00    +0.000 A 
ATOM     11  C   UNL     1       1.479   8.805  19.494  0.00  0.00    +0.000 A 
ATOM     12  H   UNL     1       2.712   8.967  16.578  0.00  0.00    +0.000 HD
ENDROOT
BRANCH   8  13
ATOM     13  N   UNL     1       2.650   4.852  20.002  0.00  0.00    +0.000 N 
ATOM     14  C   UNL     1       3.855   4.260  19.704  0.00  0.00    +0.000 C 
ATOM     15  O   UNL     1       4.026   3.069  19.939  0.00  0.00    +0.000 OA
ATOM     16  N   UNL     1       4.799   5.065  19.152  0.00  0.00    +0.000 N 
ATOM     17  H   UNL     1       1.971   4.226  20.407  0.00  0.00    +0.000 HD
ATOM     18  H   UNL     1       4.511   6.030  19.020  0.00  0.00    +0.000 HD
BRANCH  16  19
ATOM     19  C   UNL     1       6.118   4.690  18.710  0.00  0.00    +0.000 C 
ATOM     20  C   UNL     1       7.176   5.688  19.183  0.00  0.00    +0.000 C 
BRANCH  19  21
ATOM     21  C   UNL     1       6.140   4.573  17.191  0.00  0.00    +0.000 A 
ATOM     22  C   UNL     1       7.336   4.786  16.492  0.00  0.00    +0.000 A 
ATOM     23  C   UNL     1       7.357   4.772  15.095  0.00  0.00    +0.000 A 
ATOM     24  C   UNL     1       6.187   4.531  14.378  0.00  0.00    +0.000 A 
ATOM     25  C   UNL     1       5.000   4.268  15.057  0.00  0.00    +0.000 A 
ATOM     26  C   UNL     1       4.977   4.278  16.453  0.00  0.00    +0.000 A 
ENDBRANCH  19  21
ENDBRANCH  16  19
ENDBRANCH   8  13
BRANCH   1  27
ATOM     27  C   UNL     1       0.606  11.218  21.124  0.00  0.00    +0.000 C 
BRANCH  27  28
ATOM     28  C   UNL     1      -0.094  12.415  21.771  0.00  0.00    +0.000 C 
BRANCH  28  30
ATOM     29  C   UNL     1      -1.144  10.778  23.098  0.00  0.00    +0.000 C 
ATOM     30  O   UNL     1      -0.520  12.057  23.091  0.00  0.00    +0.000 OA
ENDBRANCH  28  30
ENDBRANCH  27  28
ENDBRANCH   1  27
TORSDOF 6
ENDMDL
MODEL 2
REMARK VINA RESULT:      -7.4      2.380      8.144
REMARK  Name = 
REMARK  9 active torsions:
REMARK  status: ('A' for Active; 'I' for Inactive)
REMARK    1  A    between atoms: C_1  and  O_2
REMARK    2  A    between atoms: O_2  and  C_3
REMARK    3  A    between atoms: C_3  and  C_4
REMARK    4  A    between atoms: C_4  and  N_5
REMARK    5  A    between atoms: N_5  and  C_6
REMARK    6  A    between atoms: C_12  and  N_13
REMARK    7  A    between atoms: N_16  and  C_17
REMARK    8  A    between atoms: C_17  and  C_18
REMARK    9  A    between atoms: C_17  and  C_19
REMARK                            x       y       z     vdW  Elec       q    Type
REMARK                         _______ _______ _______ _____ _____    ______ ____
ROOT
ATOM      1  N   UNL     1       5.050   4.667  16.368  0.00  0.00    +0.000 N 
ATOM      2  C   UNL     1       5.325   3.447  15.620  0.00  0.00    +0.000 C 
ATOM      3  C   UNL     1       4.401   4.526  17.568  0.00  0.00    +0.000 A 
ATOM      4  N   UNL     1       4.301   3.370  18.236  0.00  0.00    +0.000 NA
ATOM      5  N   UNL     1       3.597   3.669  19.339  0.00  0.00    +0.000 N 
ATOM      6  C   UNL     1       3.167   4.964  19.401  0.00  0.00    +0.000 A 
ATOM      7  C   UNL     1       2.380   5.662  20.328  0.00  0.00    +0.000 A 
ATOM      8  C   UNL     1       2.131   6.991  20.006  0.00  0.00    +0.000 A 
ATOM      9  N   UNL     1       2.612   7.574  18.887  0.00  0.00    +0.000 NA
ATOM     10  C   UNL     1       3.379   6.888  18.020  0.00  0.00    +0.000 A 
ATOM     11  C   UNL     1       3.683   5.554  18.251  0.00  0.00    +0.000 A 
ATOM     12  H   UNL     1       3.422   2.925  20.005  0.00  0.00    +0.000 HD
ENDROOT
BRANCH   8  13
ATOM     13  N   UNL     1       1.326   7.778  20.849  0.00  0.00    +0.000 N 
ATOM     14  C   UNL     1       0.785   9.011  20.570  0.00  0.00    +0.000 C 
ATOM     15  O   UNL     1       0.105   9.586  21.413  0.00  0.00    +0.000 OA
ATOM     16  N   UNL     1       1.053   9.519  19.340  0.00  0.00    +0.000 N 
ATOM     17  H   UNL     1       1.111   7.432  21.772  0.00  0.00    +0.000 HD
ATOM     18  H   UNL     1       1.627   8.926  18.750  0.00  0.00    +0.000 HD
BRANCH  16  19
ATOM     19  C   UNL     1       0.647  10.799  18.815  0.00  0.00    +0.000 C 
ATOM     20  C   UNL     1       0.968  11.935  19.788  0.00  0.00    +0.000 C 
BRANCH  19  21
ATOM     21  C   UNL     1      -0.843  10.777  18.498  0.00  0.00    +0.000 A 
ATOM     22  C   UNL     1      -1.345   9.856  17.568  0.00  0.00    +0.000 A 
ATOM     23  C   UNL     1      -2.691   9.879  17.198  0.00  0.00    +0.000 A 
ATOM     24  C   UNL     1      -3.558  10.813  17.762  0.00  0.00    +0.000 A 
ATOM     25  C   UNL     1      -3.087  11.703  18.723  0.00  0.00    +0.000 A 
ATOM     26  C   UNL     1      -1.742  11.679  19.098  0.00  0.00    +0.000 A 
ENDBRANCH  19  21
ENDBRANCH  16  19
ENDBRANCH   8  13
BRANCH   1  27
ATOM     27  C   UNL     1       5.715   5.935  16.023  0.00  0.00    +0.000 C 
BRANCH  27  28
ATOM     28  C   UNL     1       6.974   6.298  16.813  0.00  0.00    +0.000 C 
BRANCH  28  30
ATOM     29  C   UNL     1       8.010   8.112  17.897  0.00  0.00    +0.000 C 
ATOM     30  O   UNL     1       7.097   7.723  16.878  0.00  0.00    +0.000 OA
ENDBRANCH  28  30
ENDBRANCH  27  28
ENDBRANCH   1  27
TORSDOF 6
ENDMDL
MODEL 3
REMARK VINA RESULT:      -7.4      2.537      4.531
REMARK  Name = 
REMARK  9 active torsions:
REMARK  status: ('A' for Active; 'I' for Inactive)
REMARK    1  A    between atoms: C_1  and  O_2
REMARK    2  A    between atoms: O_2  and  C_3
REMARK    3  A    between atoms: C_3  and  C_4
REMARK    4  A    between atoms: C_4  and  N_5
REMARK    5  A    between atoms: N_5  and  C_6
REMARK    6  A    between atoms: C_12  and  N_13
REMARK    7  A    between atoms: N_16  and  C_17
REMARK    8  A    between atoms: C_17  and  C_18
REMARK    9  A    between atoms: C_17  and  C_19
REMARK                            x       y       z     vdW  Elec       q    Type
REMARK                         _______ _______ _______ _____ _____    ______ ____
ROOT
ATOM      1  N   UNL     1      -0.585  11.144  20.332  0.00  0.00    +0.000 N 
ATOM      2  C   UNL     1      -1.103  11.657  21.595  0.00  0.00    +0.000 C 
ATOM      3  C   UNL     1       0.121   9.969  20.384  0.00  0.00    +0.000 A 
ATOM      4  N   UNL     1       0.089   9.117  21.417  0.00  0.00    +0.000 NA
ATOM      5  N   UNL     1       0.912   8.118  21.066  0.00  0.00    +0.000 N 
ATOM      6  C   UNL     1       1.542   8.299  19.868  0.00  0.00    +0.000 A 
ATOM      7  C   UNL     1       2.497   7.545  19.170  0.00  0.00    +0.000 A 
ATOM      8  C   UNL     1       2.926   8.101  17.972  0.00  0.00    +0.000 A 
ATOM      9  N   UNL     1       2.460   9.280  17.504  0.00  0.00    +0.000 NA
ATOM     10  C   UNL     1       1.532   9.979  18.184  0.00  0.00    +0.000 A 
ATOM     11  C   UNL     1       1.041   9.507  19.393  0.00  0.00    +0.000 A 
ATOM     12  H   UNL     1       1.017   7.342  21.710  0.00  0.00    +0.000 HD
ENDROOT
BRANCH   8  13
ATOM     13  N   UNL     1       3.905   7.444  17.203  0.00  0.00    +0.000 N 
ATOM     14  C   UNL     1       4.146   6.092  17.143  0.00  0.00    +0.000 C 
ATOM     15  O   UNL     1       5.045   5.662  16.428  0.00  0.00    +0.000 OA
ATOM     16  N   UNL     1       3.345   5.304  17.906  0.00  0.00    +0.000 N 
ATOM     17  H   UNL     1       4.519   8.000  16.628  0.00  0.00    +0.000 HD
ATOM     18  H   UNL     1       2.643   5.805  18.442  0.00  0.00    +0.000 HD
BRANCH  16  19
ATOM     19  C   UNL     1       3.414   3.873  18.057  0.00  0.00    +0.000 C 
ATOM     20  C   UNL     1       2.758   3.150  16.878  0.00  0.00    +0.000 C 
BRANCH  19  21
ATOM     21  C   UNL     1       2.754   3.460  19.366  0.00  0.00    +0.000 A 
ATOM     22  C   UNL     1       3.504   2.794  20.345  0.00  0.00    +0.000 A 
ATOM     23  C   UNL     1       2.897   2.329  21.514  0.00  0.00    +0.000 A 
ATOM     24  C   UNL     1       1.536   2.535  21.727  0.00  0.00    +0.000 A 
ATOM     25  C   UNL     1       0.786   3.238  20.788  0.00  0.00    +0.000 A 
ATOM     26  C   UNL     1       1.392   3.707  19.621  0.00  0.00    +0.000 A 
ENDBRANCH  19  21
ENDBRANCH  16  19
ENDBRANCH   8  13
BRANCH   1  27
ATOM     27  C   UNL     1      -1.067  11.669  19.044  0.00  0.00    +0.000 C 
BRANCH  27  28
ATOM     28  C   UNL     1      -2.476  11.259  18.609  0.00  0.00    +0.000 C 
BRANCH  28  30
ATOM     29  C   UNL     1      -2.222   9.956  16.665  0.00  0.00    +0.000 C 
ATOM     30  O   UNL     1      -2.543  11.243  17.178  0.00  0.00    +0.000 OA
ENDBRANCH  28  30
ENDBRANCH  27  28
ENDBRANCH   1  27
TORSDOF 6
ENDMDL
MODEL 4
REMARK VINA RESULT:      -7.3      2.035      7.974
REMARK  Name = 
REMARK  9 active torsions:
REMARK  status: ('A' for Active; 'I' for Inactive)
REMARK    1  A    between atoms: C_1  and  O_2
REMARK    2  A    between atoms: O_2  and  C_3
REMARK    3  A    between atoms: C_3  and  C_4
REMARK    4  A    between atoms: C_4  and  N_5
REMARK    5  A    between atoms: N_5  and  C_6
REMARK    6  A    between atoms: C_12  and  N_13
REMARK    7  A    between atoms: N_16  and  C_17
REMARK    8  A    between atoms: C_17  and  C_18
REMARK    9  A    between atoms: C_17  and  C_19
REMARK                            x       y       z     vdW  Elec       q    Type
REMARK                         _______ _______ _______ _____ _____    ______ ____
ROOT
ATOM      1  N   UNL     1       4.592   5.174  16.861  0.00  0.00    +0.000 N 
ATOM      2  C   UNL     1       4.822   3.998  16.031  0.00  0.00    +0.000 C 
ATOM      3  C   UNL     1       3.853   4.992  18.003  0.00  0.00    +0.000 A 
ATOM      4  N   UNL     1       3.619   3.799  18.563  0.00  0.00    +0.000 NA
ATOM      5  N   UNL     1       2.866   4.066  19.641  0.00  0.00    +0.000 N 
ATOM      6  C   UNL     1       2.534   5.383  19.786  0.00  0.00    +0.000 A 
ATOM      7  C   UNL     1       1.742   6.068  20.718  0.00  0.00    +0.000 A 
ATOM      8  C   UNL     1       1.619   7.434  20.496  0.00  0.00    +0.000 A 
ATOM      9  N   UNL     1       2.219   8.063  19.462  0.00  0.00    +0.000 NA
ATOM     10  C   UNL     1       2.988   7.387  18.589  0.00  0.00    +0.000 A 
ATOM     11  C   UNL     1       3.172   6.018  18.725  0.00  0.00    +0.000 A 
ATOM     12  H   UNL     1       2.589   3.289  20.230  0.00  0.00    +0.000 HD
ENDROOT
BRANCH   8  13
ATOM     13  N   UNL     1       0.822   8.216  21.352  0.00  0.00    +0.000 N 
ATOM     14  C   UNL     1       0.010   9.269  21.002  0.00  0.00    +0.000 C 
ATOM     15  O   UNL     1      -0.625   9.865  21.864  0.00  0.00    +0.000 OA
ATOM     16  N   UNL     1      -0.032   9.582  19.681  0.00  0.00    +0.000 N 
ATOM     17  H   UNL     1       0.832   8.013  22.339  0.00  0.00    +0.000 HD
ATOM     18  H   UNL     1       0.546   8.995  19.087  0.00  0.00    +0.000 HD
BRANCH  16  19
ATOM     19  C   UNL     1      -0.762  10.657  19.059  0.00  0.00    +0.000 C 
ATOM     20  C   UNL     1      -1.410  10.213  17.747  0.00  0.00    +0.000 C 
BRANCH  19  21
ATOM     21  C   UNL     1       0.166  11.841  18.820  0.00  0.00    +0.000 A 
ATOM     22  C   UNL     1       1.531  11.620  18.586  0.00  0.00    +0.000 A 
ATOM     23  C   UNL     1       2.414  12.694  18.453  0.00  0.00    +0.000 A 
ATOM     24  C   UNL     1       1.943  14.004  18.536  0.00  0.00    +0.000 A 
ATOM     25  C   UNL     1       0.583  14.241  18.719  0.00  0.00    +0.000 A 
ATOM     26  C   UNL     1      -0.302  13.168  18.849  0.00  0.00    +0.000 A 
ENDBRANCH  19  21
ENDBRANCH  16  19
ENDBRANCH   8  13
BRANCH   1  27
ATOM     27  C   UNL     1       5.375   6.406  16.667  0.00  0.00    +0.000 C 
BRANCH  27  28
ATOM     28  C   UNL     1       6.897   6.286  16.769  0.00  0.00    +0.000 C 
BRANCH  28  30
ATOM     29  C   UNL     1       7.670   5.892  18.957  0.00  0.00    +0.000 C 
ATOM     30  O   UNL     1       7.337   6.884  17.994  0.00  0.00    +0.000 OA
ENDBRANCH  28  30
ENDBRANCH  27  28
ENDBRANCH   1  27
TORSDOF 6
ENDMDL
MODEL 5
REMARK VINA RESULT:      -7.3      2.109      8.171
REMARK  Name = 
REMARK  9 active torsions:
REMARK  status: ('A' for Active; 'I' for Inactive)
REMARK    1  A    between atoms: C_1  and  O_2
REMARK    2  A    between atoms: O_2  and  C_3
REMARK    3  A    between atoms: C_3  and  C_4
REMARK    4  A    between atoms: C_4  and  N_5
REMARK    5  A    between atoms: N_5  and  C_6
REMARK    6  A    between atoms: C_12  and  N_13
REMARK    7  A    between atoms: N_16  and  C_17
REMARK    8  A    between atoms: C_17  and  C_18
REMARK    9  A    between atoms: C_17  and  C_19
REMARK                            x       y       z     vdW  Elec       q    Type
REMARK                         _______ _______ _______ _____ _____    ______ ____
ROOT
ATOM      1  N   UNL     1       4.249   4.819  17.177  0.00  0.00    +0.000 N 
ATOM      2  C   UNL     1       4.382   3.584  16.414  0.00  0.00    +0.000 C 
ATOM      3  C   UNL     1       3.507   4.758  18.330  0.00  0.00    +0.000 A 
ATOM      4  N   UNL     1       3.185   3.621  18.957  0.00  0.00    +0.000 NA
ATOM      5  N   UNL     1       2.463   4.005  20.021  0.00  0.00    +0.000 N 
ATOM      6  C   UNL     1       2.235   5.350  20.092  0.00  0.00    +0.000 A 
ATOM      7  C   UNL     1       1.504   6.145  20.987  0.00  0.00    +0.000 A 
ATOM      8  C   UNL     1       1.485   7.502  20.688  0.00  0.00    +0.000 A 
ATOM      9  N   UNL     1       2.124   8.024  19.618  0.00  0.00    +0.000 NA
ATOM     10  C   UNL     1       2.833   7.242  18.782  0.00  0.00    +0.000 A 
ATOM     11  C   UNL     1       2.911   5.873  18.995  0.00  0.00    +0.000 A 
ATOM     12  H   UNL     1       2.131   3.286  20.653  0.00  0.00    +0.000 HD
ENDROOT
BRANCH   8  13
ATOM     13  N   UNL     1       0.757   8.390  21.500  0.00  0.00    +0.000 N 
ATOM     14  C   UNL     1      -0.021   9.446  21.090  0.00  0.00    +0.000 C 
ATOM     15  O   UNL     1      -0.596  10.142  21.920  0.00  0.00    +0.000 OA
ATOM     16  N   UNL     1      -0.099   9.649  19.749  0.00  0.00    +0.000 N 
ATOM     17  H   UNL     1       0.795   8.270  22.501  0.00  0.00    +0.000 HD
ATOM     18  H   UNL     1       0.429   8.988  19.188  0.00  0.00    +0.000 HD
BRANCH  16  19
ATOM     19  C   UNL     1      -0.805  10.702  19.063  0.00  0.00    +0.000 C 
ATOM     20  C   UNL     1      -1.306  10.244  17.692  0.00  0.00    +0.000 C 
BRANCH  19  21
ATOM     21  C   UNL     1       0.099  11.920  18.919  0.00  0.00    +0.000 A 
ATOM     22  C   UNL     1      -0.447  13.208  19.003  0.00  0.00    +0.000 A 
ATOM     23  C   UNL     1       0.348  14.335  18.785  0.00  0.00    +0.000 A 
ATOM     24  C   UNL     1       1.704  14.191  18.494  0.00  0.00    +0.000 A 
ATOM     25  C   UNL     1       2.273  12.921  18.455  0.00  0.00    +0.000 A 
ATOM     26  C   UNL     1       1.480  11.793  18.677  0.00  0.00    +0.000 A 
ENDBRANCH  19  21
ENDBRANCH  16  19
ENDBRANCH   8  13
BRANCH   1  27
ATOM     27  C   UNL     1       5.123   5.973  16.912  0.00  0.00    +0.000 C 
BRANCH  27  28
ATOM     28  C   UNL     1       6.202   5.798  15.842  0.00  0.00    +0.000 C 
BRANCH  28  30
ATOM     29  C   UNL     1       7.293   6.852  17.642  0.00  0.00    +0.000 C 
ATOM     30  O   UNL     1       7.436   6.344  16.321  0.00  0.00    +0.000 OA
ENDBRANCH  28  30
ENDBRANCH  27  28
ENDBRANCH   1  27
TORSDOF 6
ENDMDL
MODEL 6
REMARK VINA RESULT:      -7.2      2.657      8.413
REMARK  Name = 
REMARK  9 active torsions:
REMARK  status: ('A' for Active; 'I' for Inactive)
REMARK    1  A    between atoms: C_1  and  O_2
REMARK    2  A    between atoms: O_2  and  C_3
REMARK    3  A    between atoms: C_3  and  C_4
REMARK    4  A    between atoms: C_4  and  N_5
REMARK    5  A    between atoms: N_5  and  C_6
REMARK    6  A    between atoms: C_12  and  N_13
REMARK    7  A    between atoms: N_16  and  C_17
REMARK    8  A    between atoms: C_17  and  C_18
REMARK    9  A    between atoms: C_17  and  C_19
REMARK                            x       y       z     vdW  Elec       q    Type
REMARK                         _______ _______ _______ _____ _____    ______ ____
ROOT
ATOM      1  N   UNL     1       2.727   5.809  19.665  0.00  0.00    +0.000 N 
ATOM      2  C   UNL     1       3.734   5.119  18.868  0.00  0.00    +0.000 C 
ATOM      3  C   UNL     1       2.346   7.055  19.237  0.00  0.00    +0.000 A 
ATOM      4  N   UNL     1       2.575   7.530  18.007  0.00  0.00    +0.000 NA
ATOM      5  N   UNL     1       2.051   8.765  18.011  0.00  0.00    +0.000 N 
ATOM      6  C   UNL     1       1.540   9.159  19.214  0.00  0.00    +0.000 A 
ATOM      7  C   UNL     1       0.961  10.357  19.657  0.00  0.00    +0.000 A 
ATOM      8  C   UNL     1       0.592  10.372  20.997  0.00  0.00    +0.000 A 
ATOM      9  N   UNL     1       0.769   9.314  21.817  0.00  0.00    +0.000 NA
ATOM     10  C   UNL     1       1.312   8.168  21.364  0.00  0.00    +0.000 A 
ATOM     11  C   UNL     1       1.716   8.054  20.041  0.00  0.00    +0.000 A 
ATOM     12  H   UNL     1       2.100   9.303  17.153  0.00  0.00    +0.000 HD
ENDROOT
BRANCH   8  13
ATOM     13  N   UNL     1       0.029  11.534  21.556  0.00  0.00    +0.000 N 
ATOM     14  C   UNL     1      -1.069  12.227  21.106  0.00  0.00    +0.000 C 
ATOM     15  O   UNL     1      -1.442  13.234  21.698  0.00  0.00    +0.000 OA
ATOM     16  N   UNL     1      -1.683  11.728  20.002  0.00  0.00    +0.000 N 
ATOM     17  H   UNL     1       0.462  11.933  22.375  0.00  0.00    +0.000 HD
ATOM     18  H   UNL     1      -1.261  10.885  19.626  0.00  0.00    +0.000 HD
BRANCH  16  19
ATOM     19  C   UNL     1      -2.818  12.282  19.307  0.00  0.00    +0.000 C 
ATOM     20  C   UNL     1      -4.069  12.289  20.187  0.00  0.00    +0.000 C 
BRANCH  19  21
ATOM     21  C   UNL     1      -3.073  11.494  18.028  0.00  0.00    +0.000 A 
ATOM     22  C   UNL     1      -2.142  10.536  17.602  0.00  0.00    +0.000 A 
ATOM     23  C   UNL     1      -2.314   9.868  16.387  0.00  0.00    +0.000 A 
ATOM     24  C   UNL     1      -3.424  10.137  15.589  0.00  0.00    +0.000 A 
ATOM     25  C   UNL     1      -4.383  11.050  16.020  0.00  0.00    +0.000 A 
ATOM     26  C   UNL     1      -4.215  11.716  17.236  0.00  0.00    +0.000 A 
ENDBRANCH  19  21
ENDBRANCH  16  19
ENDBRANCH   8  13
BRANCH   1  27
ATOM     27  C   UNL     1       1.928   5.087  20.669  0.00  0.00    +0.000 C 
BRANCH  27  28
ATOM     28  C   UNL     1       0.964   4.017  20.154  0.00  0.00    +0.000 C 
BRANCH  28  30
ATOM     29  C   UNL     1       2.156   2.711  21.707  0.00  0.00    +0.000 C 
ATOM     30  O   UNL     1       1.494   2.720  20.448  0.00  0.00    +0.000 OA
ENDBRANCH  28  30
ENDBRANCH  27  28
ENDBRANCH   1  27
TORSDOF 6
ENDMDL
MODEL 7
REMARK VINA RESULT:      -7.2      2.342      4.418
REMARK  Name = 
REMARK  9 active torsions:
REMARK  status: ('A' for Active; 'I' for Inactive)
REMARK    1  A    between atoms: C_1  and  O_2
REMARK    2  A    between atoms: O_2  and  C_3
REMARK    3  A    between atoms: C_3  and  C_4
REMARK    4  A    between atoms: C_4  and  N_5
REMARK    5  A    between atoms: N_5  and  C_6
REMARK    6  A    between atoms: C_12  and  N_13
REMARK    7  A    between atoms: N_16  and  C_17
REMARK    8  A    between atoms: C_17  and  C_18
REMARK    9  A    between atoms: C_17  and  C_19
REMARK                            x       y       z     vdW  Elec       q    Type
REMARK                         _______ _______ _______ _____ _____    ______ ____
ROOT
ATOM      1  N   UNL     1      -0.646  10.867  20.505  0.00  0.00    +0.000 N 
ATOM      2  C   UNL     1      -1.054  11.466  21.769  0.00  0.00    +0.000 C 
ATOM      3  C   UNL     1       0.211   9.797  20.573  0.00  0.00    +0.000 A 
ATOM      4  N   UNL     1       0.429   9.080  21.682  0.00  0.00    +0.000 NA
ATOM      5  N   UNL     1       1.323   8.147  21.319  0.00  0.00    +0.000 N 
ATOM      6  C   UNL     1       1.758   8.254  20.029  0.00  0.00    +0.000 A 
ATOM      7  C   UNL     1       2.701   7.536  19.280  0.00  0.00    +0.000 A 
ATOM      8  C   UNL     1       2.889   7.988  17.980  0.00  0.00    +0.000 A 
ATOM      9  N   UNL     1       2.213   9.039  17.467  0.00  0.00    +0.000 NA
ATOM     10  C   UNL     1       1.300   9.703  18.200  0.00  0.00    +0.000 A 
ATOM     11  C   UNL     1       1.042   9.328  19.511  0.00  0.00    +0.000 A 
ATOM     12  H   UNL     1       1.615   7.474  22.018  0.00  0.00    +0.000 HD
ENDROOT
BRANCH   8  13
ATOM     13  N   UNL     1       3.834   7.361  17.148  0.00  0.00    +0.000 N 
ATOM     14  C   UNL     1       4.131   6.020  17.089  0.00  0.00    +0.000 C 
ATOM     15  O   UNL     1       4.990   5.617  16.312  0.00  0.00    +0.000 OA
ATOM     16  N   UNL     1       3.427   5.212  17.922  0.00  0.00    +0.000 N 
ATOM     17  H   UNL     1       4.377   7.932  16.518  0.00  0.00    +0.000 HD
ATOM     18  H   UNL     1       2.746   5.690  18.504  0.00  0.00    +0.000 HD
BRANCH  16  19
ATOM     19  C   UNL     1       3.572   3.787  18.089  0.00  0.00    +0.000 C 
ATOM     20  C   UNL     1       3.063   3.023  16.865  0.00  0.00    +0.000 C 
BRANCH  19  21
ATOM     21  C   UNL     1       2.831   3.337  19.341  0.00  0.00    +0.000 A 
ATOM     22  C   UNL     1       1.481   3.671  19.512  0.00  0.00    +0.000 A 
ATOM     23  C   UNL     1       0.809   3.345  20.692  0.00  0.00    +0.000 A 
ATOM     24  C   UNL     1       1.474   2.667  21.713  0.00  0.00    +0.000 A 
ATOM     25  C   UNL     1       2.801   2.284  21.541  0.00  0.00    +0.000 A 
ATOM     26  C   UNL     1       3.473   2.606  20.360  0.00  0.00    +0.000 A 
ENDBRANCH  19  21
ENDBRANCH  16  19
ENDBRANCH   8  13
BRANCH   1  27
ATOM     27  C   UNL     1      -1.361  11.172  19.254  0.00  0.00    +0.000 C 
BRANCH  27  28
ATOM     28  C   UNL     1      -0.917  12.418  18.485  0.00  0.00    +0.000 C 
BRANCH  28  30
ATOM     29  C   UNL     1      -0.252  14.564  19.188  0.00  0.00    +0.000 C 
ATOM     30  O   UNL     1       0.002  13.167  19.287  0.00  0.00    +0.000 OA
ENDBRANCH  28  30
ENDBRANCH  27  28
ENDBRANCH   1  27
TORSDOF 6
ENDMDL
MODEL 8
REMARK VINA RESULT:      -7.2      2.130      8.374
REMARK  Name = 
REMARK  9 active torsions:
REMARK  status: ('A' for Active; 'I' for Inactive)
REMARK    1  A    between atoms: C_1  and  O_2
REMARK    2  A    between atoms: O_2  and  C_3
REMARK    3  A    between atoms: C_3  and  C_4
REMARK    4  A    between atoms: C_4  and  N_5
REMARK    5  A    between atoms: N_5  and  C_6
REMARK    6  A    between atoms: C_12  and  N_13
REMARK    7  A    between atoms: N_16  and  C_17
REMARK    8  A    between atoms: C_17  and  C_18
REMARK    9  A    between atoms: C_17  and  C_19
REMARK                            x       y       z     vdW  Elec       q    Type
REMARK                         _______ _______ _______ _____ _____    ______ ____
ROOT
ATOM      1  N   UNL     1       4.224   4.160  17.562  0.00  0.00    +0.000 N 
ATOM      2  C   UNL     1       4.261   2.872  16.880  0.00  0.00    +0.000 C 
ATOM      3  C   UNL     1       3.363   4.275  18.624  0.00  0.00    +0.000 A 
ATOM      4  N   UNL     1       2.818   3.234  19.265  0.00  0.00    +0.000 NA
ATOM      5  N   UNL     1       2.049   3.780  20.219  0.00  0.00    +0.000 N 
ATOM      6  C   UNL     1       2.008   5.145  20.199  0.00  0.00    +0.000 A 
ATOM      7  C   UNL     1       1.306   6.088  20.964  0.00  0.00    +0.000 A 
ATOM      8  C   UNL     1       1.512   7.412  20.599  0.00  0.00    +0.000 A 
ATOM      9  N   UNL     1       2.328   7.773  19.586  0.00  0.00    +0.000 NA
ATOM     10  C   UNL     1       3.004   6.851  18.875  0.00  0.00    +0.000 A 
ATOM     11  C   UNL     1       2.864   5.500  19.162  0.00  0.00    +0.000 A 
ATOM     12  H   UNL     1       1.553   3.154  20.844  0.00  0.00    +0.000 HD
ENDROOT
BRANCH   8  13
ATOM     13  N   UNL     1       0.835   8.441  21.280  0.00  0.00    +0.000 N 
ATOM     14  C   UNL     1       0.363   9.619  20.750  0.00  0.00    +0.000 C 
ATOM     15  O   UNL     1      -0.207  10.430  21.472  0.00  0.00    +0.000 OA
ATOM     16  N   UNL     1       0.568   9.804  19.420  0.00  0.00    +0.000 N 
ATOM     17  H   UNL     1       0.669   8.337  22.269  0.00  0.00    +0.000 HD
ATOM     18  H   UNL     1       1.050   9.042  18.954  0.00  0.00    +0.000 HD
BRANCH  16  19
ATOM     19  C   UNL     1       0.214  10.958  18.633  0.00  0.00    +0.000 C 
ATOM     20  C   UNL     1       0.478  12.260  19.392  0.00  0.00    +0.000 C 
BRANCH  19  21
ATOM     21  C   UNL     1      -1.250  10.872  18.221  0.00  0.00    +0.000 A 
ATOM     22  C   UNL     1      -2.187  11.747  18.786  0.00  0.00    +0.000 A 
ATOM     23  C   UNL     1      -3.547  11.626  18.489  0.00  0.00    +0.000 A 
ATOM     24  C   UNL     1      -3.987  10.637  17.610  0.00  0.00    +0.000 A 
ATOM     25  C   UNL     1      -3.064   9.791  17.001  0.00  0.00    +0.000 A 
ATOM     26  C   UNL     1      -1.704   9.913  17.295  0.00  0.00    +0.000 A 
ENDBRANCH  19  21
ENDBRANCH  16  19
ENDBRANCH   8  13
BRANCH   1  27
ATOM     27  C   UNL     1       5.276   5.166  17.342  0.00  0.00    +0.000 C 
BRANCH  27  28
ATOM     28  C   UNL     1       6.678   4.647  17.015  0.00  0.00    +0.000 C 
BRANCH  28  30
ATOM     29  C   UNL     1       7.496   5.747  18.928  0.00  0.00    +0.000 C 
ATOM     30  O   UNL     1       7.427   4.511  18.228  0.00  0.00    +0.000 OA
ENDBRANCH  28  30
ENDBRANCH  27  28
ENDBRANCH   1  27
TORSDOF 6
ENDMDL
MODEL 9
REMARK VINA RESULT:      -7.2      2.060      8.168
REMARK  Name = 
REMARK  9 active torsions:
REMARK  status: ('A' for Active; 'I' for Inactive)
REMARK    1  A    between atoms: C_1  and  O_2
REMARK    2  A    between atoms: O_2  and  C_3
REMARK    3  A    between atoms: C_3  and  C_4
REMARK    4  A    between atoms: C_4  and  N_5
REMARK    5  A    between atoms: N_5  and  C_6
REMARK    6  A    between atoms: C_12  and  N_13
REMARK    7  A    between atoms: N_16  and  C_17
REMARK    8  A    between atoms: C_17  and  C_18
REMARK    9  A    between atoms: C_17  and  C_19
REMARK                            x       y       z     vdW  Elec       q    Type
REMARK                         _______ _______ _______ _____ _____    ______ ____
ROOT
ATOM      1  N   UNL     1       5.038   4.340  16.693  0.00  0.00    +0.000 N 
ATOM      2  C   UNL     1       5.157   3.435  15.556  0.00  0.00    +0.000 C 
ATOM      3  C   UNL     1       3.969   4.147  17.530  0.00  0.00    +0.000 A 
ATOM      4  N   UNL     1       3.240   3.025  17.570  0.00  0.00    +0.000 NA
ATOM      5  N   UNL     1       2.307   3.253  18.508  0.00  0.00    +0.000 N 
ATOM      6  C   UNL     1       2.345   4.506  19.049  0.00  0.00    +0.000 A 
ATOM      7  C   UNL     1       1.542   5.159  19.996  0.00  0.00    +0.000 A 
ATOM      8  C   UNL     1       1.895   6.477  20.258  0.00  0.00    +0.000 A 
ATOM      9  N   UNL     1       2.936   7.090  19.653  0.00  0.00    +0.000 NA
ATOM     10  C   UNL     1       3.702   6.437  18.759  0.00  0.00    +0.000 A 
ATOM     11  C   UNL     1       3.430   5.118  18.428  0.00  0.00    +0.000 A 
ATOM     12  H   UNL     1       1.652   2.508  18.715  0.00  0.00    +0.000 HD
ENDROOT
BRANCH   8  13
ATOM     13  N   UNL     1       1.140   7.238  21.169  0.00  0.00    +0.000 N 
ATOM     14  C   UNL     1       0.751   8.550  21.036  0.00  0.00    +0.000 C 
ATOM     15  O   UNL     1       0.095   9.087  21.922  0.00  0.00    +0.000 OA
ATOM     16  N   UNL     1       1.133   9.176  19.894  0.00  0.00    +0.000 N 
ATOM     17  H   UNL     1       0.841   6.804  22.029  0.00  0.00    +0.000 HD
ATOM     18  H   UNL     1       1.669   8.600  19.251  0.00  0.00    +0.000 HD
BRANCH  16  19
ATOM     19  C   UNL     1       0.896  10.550  19.528  0.00  0.00    +0.000 C 
ATOM     20  C   UNL     1       1.003  11.482  20.737  0.00  0.00    +0.000 C 
BRANCH  19  21
ATOM     21  C   UNL     1      -0.475  10.681  18.877  0.00  0.00    +0.000 A 
ATOM     22  C   UNL     1      -1.412  11.583  19.399  0.00  0.00    +0.000 A 
ATOM     23  C   UNL     1      -2.704  11.653  18.872  0.00  0.00    +0.000 A 
ATOM     24  C   UNL     1      -3.073  10.834  17.807  0.00  0.00    +0.000 A 
ATOM     25  C   UNL     1      -2.140   9.967  17.244  0.00  0.00    +0.000 A 
ATOM     26  C   UNL     1      -0.846   9.898  17.767  0.00  0.00    +0.000 A 
ENDBRANCH  19  21
ENDBRANCH  16  19
ENDBRANCH   8  13
BRANCH   1  27
ATOM     27  C   UNL     1       6.165   5.193  17.106  0.00  0.00    +0.000 C 
BRANCH  27  28
ATOM     28  C   UNL     1       7.534   4.521  17.239  0.00  0.00    +0.000 C 
BRANCH  28  30
ATOM     29  C   UNL     1       7.723   5.885  19.148  0.00  0.00    +0.000 C 
ATOM     30  O   UNL     1       7.965   4.594  18.603  0.00  0.00    +0.000 OA
ENDBRANCH  28  30
ENDBRANCH  27  28
ENDBRANCH   1  27
TORSDOF 6
ENDMDL
