MODEL 1
REMARK VINA RESULT:      -8.6      0.000      0.000
REMARK  Name = 
REMARK  8 active torsions:
REMARK  status: ('A' for Active; 'I' for Inactive)
REMARK    1  A    between atoms: C_1  and  C_2
REMARK    2  A    between atoms: C_2  and  N_3
REMARK    3  A    between atoms: N_3  and  C_4
REMARK    4  A    between atoms: N_3  and  S_12
REMARK    5  A    between atoms: C_6  and  C_7
REMARK    6  A    between atoms: C_9  and  C_10
REMARK    7  A    between atoms: S_12  and  C_15
REMARK    8  A    between atoms: C_20  and  C_22
REMARK                            x       y       z     vdW  Elec       q    Type
REMARK                         _______ _______ _______ _____ _____    ______ ____
ROOT
ATOM      1  C   UNL     1       0.628  10.668  21.061  0.00  0.00    +0.000 A 
ATOM      2  N   UNL     1       0.740  10.177  22.281  0.00  0.00    +0.000 NA
ATOM      3  N   UNL     1       1.174   8.862  22.251  0.00  0.00    +0.000 NA
ATOM      4  C   UNL     1       1.389   8.437  21.022  0.00  0.00    +0.000 A 
ATOM      5  N   UNL     1       1.911   7.191  20.757  0.00  0.00    +0.000 N 
ATOM      6  C   UNL     1       2.360   6.734  19.534  0.00  0.00    +0.000 C 
ATOM      7  O   UNL     1       2.293   7.343  18.472  0.00  0.00    +0.000 OA
ATOM      8  S   UNL     1       0.968   9.558  19.809  0.00  0.00    +0.000 S 
ATOM      9  H   UNL     1       2.097   6.649  21.590  0.00  0.00    +0.000 HD
ENDROOT
BRANCH   6  10
ATOM     10  C   UNL     1       3.031   5.351  19.630  0.00  0.00    +0.000 C 
ATOM     11  C   UNL     1       2.405   4.463  20.711  0.00  0.00    +0.000 C 
ATOM     12  C   UNL     1       1.047   3.897  20.298  0.00  0.00    +0.000 C 
ATOM     13  C   UNL     1       1.111   3.163  18.964  0.00  0.00    +0.000 C 
ATOM     14  C   UNL     1       1.727   4.020  17.865  0.00  0.00    +0.000 C 
ATOM     15  C   UNL     1       3.071   4.620  18.278  0.00  0.00    +0.000 C 
ENDBRANCH   6  10
BRANCH   1  16
ATOM     16  S   UNL     1       0.158  12.309  20.610  0.00  0.00    +0.000 S 
ATOM     17  O   UNL     1       0.443  12.386  19.188  0.00  0.00    +0.000 OA
ATOM     18  O   UNL     1       0.859  13.171  21.545  0.00  0.00    +0.000 OA
BRANCH  16  19
ATOM     19  N   UNL     1      -1.508  12.521  20.826  0.00  0.00    +0.000 N 
BRANCH  19  20
ATOM     20  C   UNL     1      -2.390  12.089  19.790  0.00  0.00    +0.000 A 
ATOM     21  C   UNL     1      -3.719  12.520  19.814  0.00  0.00    +0.000 A 
ATOM     22  C   UNL     1      -4.621  12.093  18.834  0.00  0.00    +0.000 A 
ATOM     23  C   UNL     1      -6.067  12.496  18.887  0.00  0.00    +0.000 C 
ATOM     24  C   UNL     1      -4.164  11.263  17.801  0.00  0.00    +0.000 A 
ATOM     25  C   UNL     1      -2.830  10.840  17.757  0.00  0.00    +0.000 A 
ATOM     26  C   UNL     1      -2.337   9.968  16.641  0.00  0.00    +0.000 C 
ATOM     27  C   UNL     1      -1.950  11.249  18.767  0.00  0.00    +0.000 A 
ENDBRANCH  19  20
BRANCH  19  29
ATOM     28  C   UNL     1      -2.267  12.463  23.198  0.00  0.00    +0.000 C 
ATOM     29  C   UNL     1      -2.029  13.302  21.958  0.00  0.00    +0.000 C 
ENDBRANCH  19  29
ENDBRANCH  16  19
ENDBRANCH   1  16
TORSDOF 5
ENDMDL
MODEL 2
REMARK VINA RESULT:      -8.5      2.240      3.038
REMARK  Name = 
REMARK  8 active torsions:
REMARK  status: ('A' for Active; 'I' for Inactive)
REMARK    1  A    between atoms: C_1  and  C_2
REMARK    2  A    between atoms: C_2  and  N_3
REMARK    3  A    between atoms: N_3  and  C_4
REMARK    4  A    between atoms: N_3  and  S_12
REMARK    5  A    between atoms: C_6  and  C_7
REMARK    6  A    between atoms: C_9  and  C_10
REMARK    7  A    between atoms: S_12  and  C_15
REMARK    8  A    between atoms: C_20  and  C_22
REMARK                            x       y       z     vdW  Elec       q    Type
REMARK                         _______ _______ _______ _____ _____    ______ ____
ROOT
ATOM      1  C   UNL     1       1.189   9.499  19.081  0.00  0.00    +0.000 A 
ATOM      2  N   UNL     1       1.568   9.618  17.822  0.00  0.00    +0.000 NA
ATOM      3  N   UNL     1       2.418   8.586  17.459  0.00  0.00    +0.000 NA
ATOM      4  C   UNL     1       2.618   7.735  18.445  0.00  0.00    +0.000 A 
ATOM      5  N   UNL     1       3.354   6.584  18.283  0.00  0.00    +0.000 N 
ATOM      6  C   UNL     1       3.451   5.539  19.181  0.00  0.00    +0.000 C 
ATOM      7  O   UNL     1       2.953   5.507  20.301  0.00  0.00    +0.000 OA
ATOM      8  S   UNL     1       1.887   8.185  19.918  0.00  0.00    +0.000 S 
ATOM      9  H   UNL     1       3.724   6.472  17.349  0.00  0.00    +0.000 HD
ENDROOT
BRANCH   6  10
ATOM     10  C   UNL     1       4.229   4.339  18.610  0.00  0.00    +0.000 C 
ATOM     11  C   UNL     1       4.165   3.106  19.520  0.00  0.00    +0.000 C 
ATOM     12  C   UNL     1       2.812   2.398  19.463  0.00  0.00    +0.000 C 
ATOM     13  C   UNL     1       2.410   2.040  18.037  0.00  0.00    +0.000 C 
ATOM     14  C   UNL     1       2.460   3.246  17.106  0.00  0.00    +0.000 C 
ATOM     15  C   UNL     1       3.797   3.983  17.178  0.00  0.00    +0.000 C 
ENDBRANCH   6  10
BRANCH   1  16
ATOM     16  S   UNL     1       0.075  10.547  19.964  0.00  0.00    +0.000 S 
ATOM     17  O   UNL     1       0.910  11.213  20.948  0.00  0.00    +0.000 OA
ATOM     18  O   UNL     1      -1.005   9.673  20.390  0.00  0.00    +0.000 OA
BRANCH  16  19
ATOM     19  N   UNL     1      -0.563  11.726  18.929  0.00  0.00    +0.000 N 
BRANCH  19  20
ATOM     20  C   UNL     1      -1.817  11.472  18.296  0.00  0.00    +0.000 A 
ATOM     21  C   UNL     1      -1.828  10.822  17.059  0.00  0.00    +0.000 A 
ATOM     22  C   UNL     1      -3.035  10.584  16.394  0.00  0.00    +0.000 A 
ATOM     23  C   UNL     1      -3.054   9.947  15.034  0.00  0.00    +0.000 C 
ATOM     24  C   UNL     1      -4.237  10.964  17.004  0.00  0.00    +0.000 A 
ATOM     25  C   UNL     1      -4.239  11.600  18.252  0.00  0.00    +0.000 A 
ATOM     26  C   UNL     1      -5.527  11.989  18.914  0.00  0.00    +0.000 C 
ATOM     27  C   UNL     1      -3.019  11.862  18.888  0.00  0.00    +0.000 A 
ENDBRANCH  19  20
BRANCH  19  29
ATOM     28  C   UNL     1      -0.321  14.201  19.071  0.00  0.00    +0.000 C 
ATOM     29  C   UNL     1       0.235  12.897  18.535  0.00  0.00    +0.000 C 
ENDBRANCH  19  29
ENDBRANCH  16  19
ENDBRANCH   1  16
TORSDOF 5
ENDMDL
MODEL 3
REMARK VINA RESULT:      -8.5      1.231      2.278
REMARK  Name = 
REMARK  8 active torsions:
REMARK  status: ('A' for Active; 'I' for Inactive)
REMARK    1  A    between atoms: C_1  and  C_2
REMARK    2  A    between atoms: C_2  and  N_3
REMARK    3  A    between atoms: N_3  and  C_4
REMARK    4  A    between atoms: N_3  and  S_12
REMARK    5  A    between atoms: C_6  and  C_7
REMARK    6  A    between atoms: C_9  and  C_10
REMARK    7  A    between atoms: S_12  and  C_15
REMARK    8  A    between atoms: C_20  and  C_22
REMARK                            x       y       z     vdW  Elec       q    Type
REMARK                         _______ _______ _______ _____ _____    ______ ____
ROOT
ATOM      1  C   UNL     1       0.068  10.673  21.680  0.00  0.00    +0.000 A 
ATOM      2  N   UNL     1       0.330  10.119  22.848  0.00  0.00    +0.000 NA
ATOM      3  N   UNL     1       0.933   8.881  22.687  0.00  0.00    +0.000 NA
ATOM      4  C   UNL     1       1.114   8.577  21.418  0.00  0.00    +0.000 A 
ATOM      5  N   UNL     1       1.777   7.438  21.024  0.00  0.00    +0.000 N 
ATOM      6  C   UNL     1       2.195   7.133  19.744  0.00  0.00    +0.000 C 
ATOM      7  O   UNL     1       1.973   7.800  18.739  0.00  0.00    +0.000 OA
ATOM      8  S   UNL     1       0.463   9.712  20.326  0.00  0.00    +0.000 S 
ATOM      9  H   UNL     1       2.093   6.870  21.799  0.00  0.00    +0.000 HD
ENDROOT
BRANCH   6  10
ATOM     10  C   UNL     1       3.050   5.853  19.689  0.00  0.00    +0.000 C 
ATOM     11  C   UNL     1       2.583   4.787  20.688  0.00  0.00    +0.000 C 
ATOM     12  C   UNL     1       1.302   4.083  20.246  0.00  0.00    +0.000 C 
ATOM     13  C   UNL     1       1.423   3.496  18.844  0.00  0.00    +0.000 C 
ATOM     14  C   UNL     1       1.882   4.531  17.825  0.00  0.00    +0.000 C 
ATOM     15  C   UNL     1       3.145   5.267  18.271  0.00  0.00    +0.000 C 
ENDBRANCH   6  10
BRANCH   1  16
ATOM     16  S   UNL     1      -0.647  12.261  21.389  0.00  0.00    +0.000 S 
ATOM     17  O   UNL     1       0.336  13.199  21.903  0.00  0.00    +0.000 OA
ATOM     18  O   UNL     1      -1.973  12.191  21.979  0.00  0.00    +0.000 OA
BRANCH  16  19
ATOM     19  N   UNL     1      -0.813  12.532  19.725  0.00  0.00    +0.000 N 
BRANCH  19  20
ATOM     20  C   UNL     1      -1.956  11.998  19.058  0.00  0.00    +0.000 A 
ATOM     21  C   UNL     1      -1.764  11.183  17.938  0.00  0.00    +0.000 A 
ATOM     22  C   UNL     1      -2.860  10.668  17.240  0.00  0.00    +0.000 A 
ATOM     23  C   UNL     1      -2.667   9.848  15.997  0.00  0.00    +0.000 C 
ATOM     24  C   UNL     1      -4.154  10.941  17.703  0.00  0.00    +0.000 A 
ATOM     25  C   UNL     1      -4.358  11.741  18.834  0.00  0.00    +0.000 A 
ATOM     26  C   UNL     1      -5.743  12.017  19.341  0.00  0.00    +0.000 C 
ATOM     27  C   UNL     1      -3.249  12.278  19.501  0.00  0.00    +0.000 A 
ENDBRANCH  19  20
BRANCH  19  29
ATOM     28  C   UNL     1       0.030  14.584  18.591  0.00  0.00    +0.000 C 
ATOM     29  C   UNL     1       0.281  13.132  18.945  0.00  0.00    +0.000 C 
ENDBRANCH  19  29
ENDBRANCH  16  19
ENDBRANCH   1  16
TORSDOF 5
ENDMDL
MODEL 4
REMARK VINA RESULT:      -8.5      2.238      2.594
REMARK  Name = 
REMARK  8 active torsions:
REMARK  status: ('A' for Active; 'I' for Inactive)
REMARK    1  A    between atoms: C_1  and  C_2
REMARK    2  A    between atoms: C_2  and  N_3
REMARK    3  A    between atoms: N_3  and  C_4
REMARK    4  A    between atoms: N_3  and  S_12
REMARK    5  A    between atoms: C_6  and  C_7
REMARK    6  A    between atoms: C_9  and  C_10
REMARK    7  A    between atoms: S_12  and  C_15
REMARK    8  A    between atoms: C_20  and  C_22
REMARK                            x       y       z     vdW  Elec       q    Type
REMARK                         _______ _______ _______ _____ _____    ______ ____
ROOT
ATOM      1  C   UNL     1       1.166   9.536  19.070  0.00  0.00    +0.000 A 
ATOM      2  N   UNL     1       1.559   9.661  17.816  0.00  0.00    +0.000 NA
ATOM      3  N   UNL     1       2.413   8.630  17.457  0.00  0.00    +0.000 NA
ATOM      4  C   UNL     1       2.601   7.774  18.442  0.00  0.00    +0.000 A 
ATOM      5  N   UNL     1       3.338   6.623  18.282  0.00  0.00    +0.000 N 
ATOM      6  C   UNL     1       3.424   5.574  19.176  0.00  0.00    +0.000 C 
ATOM      7  O   UNL     1       2.913   5.537  20.289  0.00  0.00    +0.000 OA
ATOM      8  S   UNL     1       1.853   8.217  19.908  0.00  0.00    +0.000 S 
ATOM      9  H   UNL     1       3.719   6.517  17.352  0.00  0.00    +0.000 HD
ENDROOT
BRANCH   6  10
ATOM     10  C   UNL     1       4.208   4.376  18.608  0.00  0.00    +0.000 C 
ATOM     11  C   UNL     1       4.167   3.152  19.530  0.00  0.00    +0.000 C 
ATOM     12  C   UNL     1       2.821   2.430  19.495  0.00  0.00    +0.000 C 
ATOM     13  C   UNL     1       2.407   2.054  18.077  0.00  0.00    +0.000 C 
ATOM     14  C   UNL     1       2.433   3.251  17.134  0.00  0.00    +0.000 C 
ATOM     15  C   UNL     1       3.764   4.002  17.184  0.00  0.00    +0.000 C 
ENDBRANCH   6  10
BRANCH   1  16
ATOM     16  S   UNL     1       0.042  10.579  19.945  0.00  0.00    +0.000 S 
ATOM     17  O   UNL     1       0.869  11.251  20.932  0.00  0.00    +0.000 OA
ATOM     18  O   UNL     1      -1.036   9.702  20.366  0.00  0.00    +0.000 OA
BRANCH  16  19
ATOM     19  N   UNL     1      -0.596  11.754  18.905  0.00  0.00    +0.000 N 
BRANCH  19  20
ATOM     20  C   UNL     1      -1.829  11.479  18.240  0.00  0.00    +0.000 A 
ATOM     21  C   UNL     1      -3.026  11.860  18.853  0.00  0.00    +0.000 A 
ATOM     22  C   UNL     1      -4.254  11.579  18.246  0.00  0.00    +0.000 A 
ATOM     23  C   UNL     1      -5.547  11.924  18.927  0.00  0.00    +0.000 C 
ATOM     24  C   UNL     1      -4.269  10.951  16.994  0.00  0.00    +0.000 A 
ATOM     25  C   UNL     1      -3.076  10.581  16.362  0.00  0.00    +0.000 A 
ATOM     26  C   UNL     1      -3.091   9.927  15.013  0.00  0.00    +0.000 C 
ATOM     27  C   UNL     1      -1.856  10.839  17.001  0.00  0.00    +0.000 A 
ENDBRANCH  19  20
BRANCH  19  29
ATOM     28  C   UNL     1      -0.320  14.212  19.200  0.00  0.00    +0.000 C 
ATOM     29  C   UNL     1       0.186  12.945  18.540  0.00  0.00    +0.000 C 
ENDBRANCH  19  29
ENDBRANCH  16  19
ENDBRANCH   1  16
TORSDOF 5
ENDMDL
MODEL 5
REMARK VINA RESULT:      -8.5      0.258      1.646
REMARK  Name = 
REMARK  8 active torsions:
REMARK  status: ('A' for Active; 'I' for Inactive)
REMARK    1  A    between atoms: C_1  and  C_2
REMARK    2  A    between atoms: C_2  and  N_3
REMARK    3  A    between atoms: N_3  and  C_4
REMARK    4  A    between atoms: N_3  and  S_12
REMARK    5  A    between atoms: C_6  and  C_7
REMARK    6  A    between atoms: C_9  and  C_10
REMARK    7  A    between atoms: S_12  and  C_15
REMARK    8  A    between atoms: C_20  and  C_22
REMARK                            x       y       z     vdW  Elec       q    Type
REMARK                         _______ _______ _______ _____ _____    ______ ____
ROOT
ATOM      1  C   UNL     1       0.431  10.757  21.235  0.00  0.00    +0.000 A 
ATOM      2  N   UNL     1       0.555  10.237  22.442  0.00  0.00    +0.000 NA
ATOM      3  N   UNL     1       1.036   8.939  22.376  0.00  0.00    +0.000 NA
ATOM      4  C   UNL     1       1.271   8.557  21.137  0.00  0.00    +0.000 A 
ATOM      5  N   UNL     1       1.838   7.338  20.840  0.00  0.00    +0.000 N 
ATOM      6  C   UNL     1       2.308   6.932  19.607  0.00  0.00    +0.000 C 
ATOM      7  O   UNL     1       2.224   7.567  18.562  0.00  0.00    +0.000 OA
ATOM      8  S   UNL     1       0.816   9.696  19.954  0.00  0.00    +0.000 S 
ATOM      9  H   UNL     1       2.040   6.780  21.658  0.00  0.00    +0.000 HD
ENDROOT
BRANCH   6  10
ATOM     10  C   UNL     1       3.028   5.572  19.667  0.00  0.00    +0.000 C 
ATOM     11  C   UNL     1       2.424   4.629  20.715  0.00  0.00    +0.000 C 
ATOM     12  C   UNL     1       1.091   4.028  20.273  0.00  0.00    +0.000 C 
ATOM     13  C   UNL     1       1.193   3.338  18.917  0.00  0.00    +0.000 C 
ATOM     14  C   UNL     1       1.787   4.250  17.851  0.00  0.00    +0.000 C 
ATOM     15  C   UNL     1       3.105   4.884  18.295  0.00  0.00    +0.000 C 
ENDBRANCH   6  10
BRANCH   1  16
ATOM     16  S   UNL     1      -0.095  12.393  20.827  0.00  0.00    +0.000 S 
ATOM     17  O   UNL     1       0.237  12.537  19.421  0.00  0.00    +0.000 OA
ATOM     18  O   UNL     1       0.532  13.248  21.820  0.00  0.00    +0.000 OA
BRANCH  16  19
ATOM     19  N   UNL     1      -1.775  12.524  20.988  0.00  0.00    +0.000 N 
BRANCH  19  20
ATOM     20  C   UNL     1      -2.598  12.129  19.891  0.00  0.00    +0.000 A 
ATOM     21  C   UNL     1      -2.053  11.308  18.899  0.00  0.00    +0.000 A 
ATOM     22  C   UNL     1      -2.819  10.927  17.794  0.00  0.00    +0.000 A 
ATOM     23  C   UNL     1      -2.223  10.101  16.690  0.00  0.00    +0.000 C 
ATOM     24  C   UNL     1      -4.155  11.340  17.713  0.00  0.00    +0.000 A 
ATOM     25  C   UNL     1      -4.718  12.148  18.710  0.00  0.00    +0.000 A 
ATOM     26  C   UNL     1      -6.154  12.574  18.634  0.00  0.00    +0.000 C 
ATOM     27  C   UNL     1      -3.925  12.549  19.793  0.00  0.00    +0.000 A 
ENDBRANCH  19  20
BRANCH  19  29
ATOM     28  C   UNL     1      -2.641  12.272  23.311  0.00  0.00    +0.000 C 
ATOM     29  C   UNL     1      -2.373  13.206  22.147  0.00  0.00    +0.000 C 
ENDBRANCH  19  29
ENDBRANCH  16  19
ENDBRANCH   1  16
TORSDOF 5
ENDMDL
MODEL 6
REMARK VINA RESULT:      -8.3      2.065      3.027
REMARK  Name = 
REMARK  8 active torsions:
REMARK  status: ('A' for Active; 'I' for Inactive)
REMARK    1  A    between atoms: C_1  and  C_2
REMARK    2  A    between atoms: C_2  and  N_3
REMARK    3  A    between atoms: N_3  and  C_4
REMARK    4  A    between atoms: N_3  and  S_12
REMARK    5  A    between atoms: C_6  and  C_7
REMARK    6  A    between atoms: C_9  and  C_10
REMARK    7  A    between atoms: S_12  and  C_15
REMARK    8  A    between atoms: C_20  and  C_22
REMARK                            x       y       z     vdW  Elec       q    Type
REMARK                         _______ _______ _______ _____ _____    ______ ____
ROOT
ATOM      1  C   UNL     1       1.251   9.913  19.221  0.00  0.00    +0.000 A 
ATOM      2  N   UNL     1       1.767  10.168  18.033  0.00  0.00    +0.000 NA
ATOM      3  N   UNL     1       2.364   9.038  17.497  0.00  0.00    +0.000 NA
ATOM      4  C   UNL     1       2.251   7.992  18.290  0.00  0.00    +0.000 A 
ATOM      5  N   UNL     1       2.690   6.741  17.921  0.00  0.00    +0.000 N 
ATOM      6  C   UNL     1       2.438   5.555  18.582  0.00  0.00    +0.000 C 
ATOM      7  O   UNL     1       1.842   5.441  19.648  0.00  0.00    +0.000 OA
ATOM      8  S   UNL     1       1.517   8.327  19.792  0.00  0.00    +0.000 S 
ATOM      9  H   UNL     1       3.108   6.718  17.001  0.00  0.00    +0.000 HD
ENDROOT
BRANCH   6  10
ATOM     10  C   UNL     1       2.943   4.326  17.806  0.00  0.00    +0.000 C 
ATOM     11  C   UNL     1       4.455   4.114  17.953  0.00  0.00    +0.000 C 
ATOM     12  C   UNL     1       4.843   3.549  19.318  0.00  0.00    +0.000 C 
ATOM     13  C   UNL     1       4.081   2.270  19.649  0.00  0.00    +0.000 C 
ATOM     14  C   UNL     1       2.574   2.447  19.516  0.00  0.00    +0.000 C 
ATOM     15  C   UNL     1       2.175   3.043  18.166  0.00  0.00    +0.000 C 
ENDBRANCH   6  10
BRANCH   1  16
ATOM     16  S   UNL     1       0.353  11.027  20.256  0.00  0.00    +0.000 S 
ATOM     17  O   UNL     1       1.380  11.737  20.998  0.00  0.00    +0.000 OA
ATOM     18  O   UNL     1      -0.613  10.197  20.953  0.00  0.00    +0.000 OA
BRANCH  16  19
ATOM     19  N   UNL     1      -0.487  12.154  19.312  0.00  0.00    +0.000 N 
BRANCH  19  20
ATOM     20  C   UNL     1      -1.734  11.766  18.735  0.00  0.00    +0.000 A 
ATOM     21  C   UNL     1      -1.728  11.005  17.563  0.00  0.00    +0.000 A 
ATOM     22  C   UNL     1      -2.929  10.634  16.952  0.00  0.00    +0.000 A 
ATOM     23  C   UNL     1      -2.933   9.874  15.656  0.00  0.00    +0.000 C 
ATOM     24  C   UNL     1      -4.142  10.994  17.554  0.00  0.00    +0.000 A 
ATOM     25  C   UNL     1      -4.160  11.741  18.739  0.00  0.00    +0.000 A 
ATOM     26  C   UNL     1      -5.458  12.110  19.394  0.00  0.00    +0.000 C 
ATOM     27  C   UNL     1      -2.947  12.134  19.318  0.00  0.00    +0.000 A 
ENDBRANCH  19  20
BRANCH  19  29
ATOM     28  C   UNL     1      -0.335  14.596  19.780  0.00  0.00    +0.000 C 
ATOM     29  C   UNL     1       0.133  13.432  18.930  0.00  0.00    +0.000 C 
ENDBRANCH  19  29
ENDBRANCH  16  19
ENDBRANCH   1  16
TORSDOF 5
ENDMDL
MODEL 7
REMARK VINA RESULT:      -8.3      1.286      3.089
REMARK  Name = 
REMARK  8 active torsions:
REMARK  status: ('A' for Active; 'I' for Inactive)
REMARK    1  A    between atoms: C_1  and  C_2
REMARK    2  A    between atoms: C_2  and  N_3
REMARK    3  A    between atoms: N_3  and  C_4
REMARK    4  A    between atoms: N_3  and  S_12
REMARK    5  A    between atoms: C_6  and  C_7
REMARK    6  A    between atoms: C_9  and  C_10
REMARK    7  A    between atoms: S_12  and  C_15
REMARK    8  A    between atoms: C_20  and  C_22
REMARK                            x       y       z     vdW  Elec       q    Type
REMARK                         _______ _______ _______ _____ _____    ______ ____
ROOT
ATOM      1  C   UNL     1       0.580  10.729  21.190  0.00  0.00    +0.000 A 
ATOM      2  N   UNL     1       0.682  10.220  22.403  0.00  0.00    +0.000 NA
ATOM      3  N   UNL     1       1.118   8.906  22.356  0.00  0.00    +0.000 NA
ATOM      4  C   UNL     1       1.344   8.500  21.123  0.00  0.00    +0.000 A 
ATOM      5  N   UNL     1       1.869   7.259  20.843  0.00  0.00    +0.000 N 
ATOM      6  C   UNL     1       2.329   6.821  19.617  0.00  0.00    +0.000 C 
ATOM      7  O   UNL     1       2.271   7.446  18.564  0.00  0.00    +0.000 OA
ATOM      8  S   UNL     1       0.932   9.639  19.924  0.00  0.00    +0.000 S 
ATOM      9  H   UNL     1       2.049   6.705  21.669  0.00  0.00    +0.000 HD
ENDROOT
BRANCH   6  10
ATOM     10  C   UNL     1       3.000   5.438  19.697  0.00  0.00    +0.000 C 
ATOM     11  C   UNL     1       2.347   4.522  20.739  0.00  0.00    +0.000 C 
ATOM     12  C   UNL     1       1.002   3.964  20.277  0.00  0.00    +0.000 C 
ATOM     13  C   UNL     1       1.104   3.263  18.927  0.00  0.00    +0.000 C 
ATOM     14  C   UNL     1       1.747   4.148  17.866  0.00  0.00    +0.000 C 
ATOM     15  C   UNL     1       3.078   4.739  18.330  0.00  0.00    +0.000 C 
ENDBRANCH   6  10
BRANCH   1  16
ATOM     16  S   UNL     1       0.113  12.377  20.760  0.00  0.00    +0.000 S 
ATOM     17  O   UNL     1       0.823  12.640  19.520  0.00  0.00    +0.000 OA
ATOM     18  O   UNL     1       0.390  13.168  21.946  0.00  0.00    +0.000 OA
BRANCH  16  19
ATOM     19  N   UNL     1      -1.548  12.449  20.441  0.00  0.00    +0.000 N 
BRANCH  19  20
ATOM     20  C   UNL     1      -2.392  13.130  21.369  0.00  0.00    +0.000 A 
ATOM     21  C   UNL     1      -2.716  14.468  21.131  0.00  0.00    +0.000 A 
ATOM     22  C   UNL     1      -3.514  15.176  22.035  0.00  0.00    +0.000 A 
ATOM     23  C   UNL     1      -3.812  16.633  21.823  0.00  0.00    +0.000 C 
ATOM     24  C   UNL     1      -4.024  14.515  23.160  0.00  0.00    +0.000 A 
ATOM     25  C   UNL     1      -3.721  13.169  23.399  0.00  0.00    +0.000 A 
ATOM     26  C   UNL     1      -4.283  12.456  24.593  0.00  0.00    +0.000 C 
ATOM     27  C   UNL     1      -2.891  12.485  22.502  0.00  0.00    +0.000 A 
ENDBRANCH  19  20
BRANCH  19  29
ATOM     28  C   UNL     1      -1.663  12.113  17.975  0.00  0.00    +0.000 C 
ATOM     29  C   UNL     1      -2.141  11.670  19.343  0.00  0.00    +0.000 C 
ENDBRANCH  19  29
ENDBRANCH  16  19
ENDBRANCH   1  16
TORSDOF 5
ENDMDL
MODEL 8
REMARK VINA RESULT:      -8.3      1.280      3.143
REMARK  Name = 
REMARK  8 active torsions:
REMARK  status: ('A' for Active; 'I' for Inactive)
REMARK    1  A    between atoms: C_1  and  C_2
REMARK    2  A    between atoms: C_2  and  N_3
REMARK    3  A    between atoms: N_3  and  C_4
REMARK    4  A    between atoms: N_3  and  S_12
REMARK    5  A    between atoms: C_6  and  C_7
REMARK    6  A    between atoms: C_9  and  C_10
REMARK    7  A    between atoms: S_12  and  C_15
REMARK    8  A    between atoms: C_20  and  C_22
REMARK                            x       y       z     vdW  Elec       q    Type
REMARK                         _______ _______ _______ _____ _____    ______ ____
ROOT
ATOM      1  C   UNL     1       0.580  10.740  21.191  0.00  0.00    +0.000 A 
ATOM      2  N   UNL     1       0.679  10.228  22.403  0.00  0.00    +0.000 NA
ATOM      3  N   UNL     1       1.115   8.913  22.354  0.00  0.00    +0.000 NA
ATOM      4  C   UNL     1       1.342   8.510  21.120  0.00  0.00    +0.000 A 
ATOM      5  N   UNL     1       1.867   7.270  20.839  0.00  0.00    +0.000 N 
ATOM      6  C   UNL     1       2.328   6.834  19.613  0.00  0.00    +0.000 C 
ATOM      7  O   UNL     1       2.273   7.461  18.561  0.00  0.00    +0.000 OA
ATOM      8  S   UNL     1       0.934   9.653  19.923  0.00  0.00    +0.000 S 
ATOM      9  H   UNL     1       2.045   6.713  21.664  0.00  0.00    +0.000 HD
ENDROOT
BRANCH   6  10
ATOM     10  C   UNL     1       2.999   5.450  19.691  0.00  0.00    +0.000 C 
ATOM     11  C   UNL     1       2.355   4.539  20.743  0.00  0.00    +0.000 C 
ATOM     12  C   UNL     1       1.004   3.981  20.295  0.00  0.00    +0.000 C 
ATOM     13  C   UNL     1       1.092   3.275  18.947  0.00  0.00    +0.000 C 
ATOM     14  C   UNL     1       1.725   4.155  17.877  0.00  0.00    +0.000 C 
ATOM     15  C   UNL     1       3.062   4.746  18.325  0.00  0.00    +0.000 C 
ENDBRANCH   6  10
BRANCH   1  16
ATOM     16  S   UNL     1       0.115  12.389  20.764  0.00  0.00    +0.000 S 
ATOM     17  O   UNL     1       0.818  12.650  19.520  0.00  0.00    +0.000 OA
ATOM     18  O   UNL     1       0.402  13.180  21.948  0.00  0.00    +0.000 OA
BRANCH  16  19
ATOM     19  N   UNL     1      -1.548  12.466  20.455  0.00  0.00    +0.000 N 
BRANCH  19  20
ATOM     20  C   UNL     1      -2.379  13.178  21.371  0.00  0.00    +0.000 A 
ATOM     21  C   UNL     1      -2.867  12.511  22.499  0.00  0.00    +0.000 A 
ATOM     22  C   UNL     1      -3.709  13.167  23.402  0.00  0.00    +0.000 A 
ATOM     23  C   UNL     1      -4.292  12.441  24.580  0.00  0.00    +0.000 C 
ATOM     24  C   UNL     1      -4.023  14.515  23.187  0.00  0.00    +0.000 A 
ATOM     25  C   UNL     1      -3.526  15.199  22.070  0.00  0.00    +0.000 A 
ATOM     26  C   UNL     1      -3.847  16.648  21.850  0.00  0.00    +0.000 C 
ATOM     27  C   UNL     1      -2.712  14.516  21.157  0.00  0.00    +0.000 A 
ENDBRANCH  19  20
BRANCH  19  29
ATOM     28  C   UNL     1      -1.720  12.096  17.998  0.00  0.00    +0.000 C 
ATOM     29  C   UNL     1      -2.156  11.662  19.384  0.00  0.00    +0.000 C 
ENDBRANCH  19  29
ENDBRANCH  16  19
ENDBRANCH   1  16
TORSDOF 5
ENDMDL
MODEL 9
REMARK VINA RESULT:      -8.3      1.155      1.677
REMARK  Name = 
REMARK  8 active torsions:
REMARK  status: ('A' for Active; 'I' for Inactive)
REMARK    1  A    between atoms: C_1  and  C_2
REMARK    2  A    between atoms: C_2  and  N_3
REMARK    3  A    between atoms: N_3  and  C_4
REMARK    4  A    between atoms: N_3  and  S_12
REMARK    5  A    between atoms: C_6  and  C_7
REMARK    6  A    between atoms: C_9  and  C_10
REMARK    7  A    between atoms: S_12  and  C_15
REMARK    8  A    between atoms: C_20  and  C_22
REMARK                            x       y       z     vdW  Elec       q    Type
REMARK                         _______ _______ _______ _____ _____    ______ ____
ROOT
ATOM      1  C   UNL     1       0.282  10.783  21.503  0.00  0.00    +0.000 A 
ATOM      2  N   UNL     1       0.372  10.179  22.673  0.00  0.00    +0.000 NA
ATOM      3  N   UNL     1       0.865   8.891  22.531  0.00  0.00    +0.000 NA
ATOM      4  C   UNL     1       1.141   8.600  21.276  0.00  0.00    +0.000 A 
ATOM      5  N   UNL     1       1.727   7.409  20.911  0.00  0.00    +0.000 N 
ATOM      6  C   UNL     1       2.239   7.093  19.668  0.00  0.00    +0.000 C 
ATOM      7  O   UNL     1       2.183   7.802  18.669  0.00  0.00    +0.000 OA
ATOM      8  S   UNL     1       0.715   9.818  20.163  0.00  0.00    +0.000 S 
ATOM      9  H   UNL     1       1.908   6.795  21.694  0.00  0.00    +0.000 HD
ENDROOT
BRANCH   6  10
ATOM     10  C   UNL     1       2.967   5.737  19.655  0.00  0.00    +0.000 C 
ATOM     11  C   UNL     1       2.389   4.745  20.672  0.00  0.00    +0.000 C 
ATOM     12  C   UNL     1       1.051   4.156  20.230  0.00  0.00    +0.000 C 
ATOM     13  C   UNL     1       1.130   3.526  18.844  0.00  0.00    +0.000 C 
ATOM     14  C   UNL     1       1.697   4.488  17.806  0.00  0.00    +0.000 C 
ATOM     15  C   UNL     1       3.021   5.110  18.252  0.00  0.00    +0.000 C 
ENDBRANCH   6  10
BRANCH   1  16
ATOM     16  S   UNL     1      -0.244  12.440  21.196  0.00  0.00    +0.000 S 
ATOM     17  O   UNL     1       0.892  13.257  21.587  0.00  0.00    +0.000 OA
ATOM     18  O   UNL     1      -1.512  12.568  21.892  0.00  0.00    +0.000 OA
BRANCH  16  19
ATOM     19  N   UNL     1      -0.512  12.671  19.540  0.00  0.00    +0.000 N 
BRANCH  19  20
ATOM     20  C   UNL     1      -1.674  12.088  18.950  0.00  0.00    +0.000 A 
ATOM     21  C   UNL     1      -2.928  12.392  19.485  0.00  0.00    +0.000 A 
ATOM     22  C   UNL     1      -4.085  11.815  18.953  0.00  0.00    +0.000 A 
ATOM     23  C   UNL     1      -5.431  12.083  19.564  0.00  0.00    +0.000 C 
ATOM     24  C   UNL     1      -3.977  10.963  17.847  0.00  0.00    +0.000 A 
ATOM     25  C   UNL     1      -2.727  10.665  17.290  0.00  0.00    +0.000 A 
ATOM     26  C   UNL     1      -2.612   9.769  16.093  0.00  0.00    +0.000 C 
ATOM     27  C   UNL     1      -1.575  11.225  17.858  0.00  0.00    +0.000 A 
ENDBRANCH  19  20
BRANCH  19  29
ATOM     28  C   UNL     1       1.770  12.447  18.567  0.00  0.00    +0.000 C 
ATOM     29  C   UNL     1       0.515  13.288  18.687  0.00  0.00    +0.000 C 
ENDBRANCH  19  29
ENDBRANCH  16  19
ENDBRANCH   1  16
TORSDOF 5
ENDMDL
