MODEL 1
REMARK VINA RESULT:      -9.1      0.000      0.000
REMARK  Name = 
REMARK  9 active torsions:
REMARK  status: ('A' for Active; 'I' for Inactive)
REMARK    1  A    between atoms: C_1  and  O_2
REMARK    2  A    between atoms: O_2  and  C_3
REMARK    3  A    between atoms: C_4  and  C_5
REMARK    4  A    between atoms: N_7  and  C_8
REMARK    5  A    between atoms: C_8  and  C_9
REMARK    6  A    between atoms: N_22  and  C_23
REMARK    7  A    between atoms: C_24  and  C_25
REMARK    8  A    between atoms: C_25  and  C_26
REMARK    9  A    between atoms: C_29  and  N_30
REMARK                            x       y       z     vdW  Elec       q    Type
REMARK                         _______ _______ _______ _____ _____    ______ ____
ROOT
ATOM      1  C   UNL     1       1.371   8.342  19.998  0.00  0.00    +0.000 A 
ATOM      2  C   UNL     1       1.305   9.520  19.194  0.00  0.00    +0.000 A 
ATOM      3  C   UNL     1       1.922   9.552  17.934  0.00  0.00    +0.000 A 
ATOM      4  C   UNL     1       2.618   8.451  17.450  0.00  0.00    +0.000 A 
ATOM      5  C   UNL     1       2.760   7.296  18.233  0.00  0.00    +0.000 A 
ATOM      6  C   UNL     1       2.109   7.226  19.508  0.00  0.00    +0.000 A 
ATOM      7  C   UNL     1       2.255   5.883  20.182  0.00  0.00    +0.000 C 
ATOM      8  O   UNL     1       1.965   5.597  21.334  0.00  0.00    +0.000 OA
ATOM      9  N   UNL     1       2.760   4.870  19.394  0.00  0.00    +0.000 N 
ATOM     10  C   UNL     1       1.790   3.909  18.904  0.00  0.00    +0.000 C 
ATOM     11  C   UNL     1       3.915   5.232  18.629  0.00  0.00    +0.000 C 
ATOM     12  N   UNL     1       3.437   6.188  17.640  0.00  0.00    +0.000 N 
ATOM     13  H   UNL     1       4.169   6.505  17.006  0.00  0.00    +0.000 HD
ENDROOT
BRANCH   2  14
ATOM     14  C   UNL     1       0.610  10.802  19.598  0.00  0.00    +0.000 C 
ATOM     15  O   UNL     1       1.275  11.753  20.002  0.00  0.00    +0.000 OA
ATOM     16  N   UNL     1      -0.758  10.858  19.473  0.00  0.00    +0.000 N 
ATOM     17  H   UNL     1      -1.236  10.024  19.154  0.00  0.00    +0.000 HD
BRANCH  16  18
ATOM     18  C   UNL     1      -1.562  11.977  19.910  0.00  0.00    +0.000 C 
BRANCH  18  19
ATOM     19  C   UNL     1      -2.883  12.003  19.182  0.00  0.00    +0.000 A 
ATOM     20  C   UNL     1      -4.039  12.511  19.797  0.00  0.00    +0.000 A 
ATOM     21  C   UNL     1      -5.267  12.472  19.133  0.00  0.00    +0.000 A 
ATOM     22  C   UNL     1      -5.339  11.928  17.855  0.00  0.00    +0.000 A 
ATOM     23  F   UNL     1      -6.521  11.873  17.227  0.00  0.00    +0.000 F 
ATOM     24  C   UNL     1      -4.205  11.433  17.224  0.00  0.00    +0.000 A 
ATOM     25  C   UNL     1      -2.978  11.468  17.887  0.00  0.00    +0.000 A 
ENDBRANCH  18  19
ENDBRANCH  16  18
ENDBRANCH   2  14
BRANCH   1  27
ATOM     26  C   UNL     1       1.176   9.052  22.339  0.00  0.00    +0.000 C 
ATOM     27  O   UNL     1       0.659   8.486  21.156  0.00  0.00    +0.000 OA
ENDBRANCH   1  27
BRANCH  11  28
ATOM     28  C   UNL     1       4.699   4.039  18.042  0.00  0.00    +0.000 C 
BRANCH  28  29
ATOM     29  C   UNL     1       5.465   4.391  16.769  0.00  0.00    +0.000 A 
ATOM     30  C   UNL     1       5.093   3.820  15.541  0.00  0.00    +0.000 A 
ATOM     31  C   UNL     1       5.831   4.067  14.378  0.00  0.00    +0.000 A 
ATOM     32  C   UNL     1       6.944   4.911  14.431  0.00  0.00    +0.000 A 
ATOM     33  C   UNL     1       7.312   5.518  15.638  0.00  0.00    +0.000 A 
ATOM     34  C   UNL     1       6.571   5.259  16.799  0.00  0.00    +0.000 A 
BRANCH  32  35
ATOM     35  N   UNL     1       7.734   5.153  13.215  0.00  0.00    +0.000 N 
ATOM     36  O   UNL     1       7.381   4.580  12.175  0.00  0.00    +0.000 OA
ATOM     37  O   UNL     1       8.703   5.921  13.301  0.00  0.00    +0.000 OA
ENDBRANCH  32  35
ENDBRANCH  28  29
ENDBRANCH  11  28
TORSDOF 7
ENDMDL
MODEL 2
REMARK VINA RESULT:      -9.0      0.343      1.186
REMARK  Name = 
REMARK  9 active torsions:
REMARK  status: ('A' for Active; 'I' for Inactive)
REMARK    1  A    between atoms: C_1  and  O_2
REMARK    2  A    between atoms: O_2  and  C_3
REMARK    3  A    between atoms: C_4  and  C_5
REMARK    4  A    between atoms: N_7  and  C_8
REMARK    5  A    between atoms: C_8  and  C_9
REMARK    6  A    between atoms: N_22  and  C_23
REMARK    7  A    between atoms: C_24  and  C_25
REMARK    8  A    between atoms: C_25  and  C_26
REMARK    9  A    between atoms: C_29  and  N_30
REMARK                            x       y       z     vdW  Elec       q    Type
REMARK                         _______ _______ _______ _____ _____    ______ ____
ROOT
ATOM      1  C   UNL     1       1.329   8.423  19.834  0.00  0.00    +0.000 A 
ATOM      2  C   UNL     1       1.371   9.557  18.967  0.00  0.00    +0.000 A 
ATOM      3  C   UNL     1       2.121   9.515  17.781  0.00  0.00    +0.000 A 
ATOM      4  C   UNL     1       2.846   8.381  17.434  0.00  0.00    +0.000 A 
ATOM      5  C   UNL     1       2.883   7.269  18.287  0.00  0.00    +0.000 A 
ATOM      6  C   UNL     1       2.097   7.274  19.485  0.00  0.00    +0.000 A 
ATOM      7  C   UNL     1       2.146   5.967  20.241  0.00  0.00    +0.000 C 
ATOM      8  O   UNL     1       1.728   5.747  21.367  0.00  0.00    +0.000 OA
ATOM      9  N   UNL     1       2.717   4.908  19.566  0.00  0.00    +0.000 N 
ATOM     10  C   UNL     1       1.789   3.933  19.025  0.00  0.00    +0.000 C 
ATOM     11  C   UNL     1       3.954   5.216  18.914  0.00  0.00    +0.000 C 
ATOM     12  N   UNL     1       3.602   6.123  17.830  0.00  0.00    +0.000 N 
ATOM     13  H   UNL     1       4.403   6.397  17.265  0.00  0.00    +0.000 HD
ENDROOT
BRANCH   2  14
ATOM     14  C   UNL     1       0.657  10.866  19.225  0.00  0.00    +0.000 C 
ATOM     15  O   UNL     1       1.295  11.917  19.220  0.00  0.00    +0.000 OA
ATOM     16  N   UNL     1      -0.700  10.827  19.437  0.00  0.00    +0.000 N 
ATOM     17  H   UNL     1      -1.149   9.920  19.449  0.00  0.00    +0.000 HD
BRANCH  16  18
ATOM     18  C   UNL     1      -1.494  11.982  19.792  0.00  0.00    +0.000 C 
BRANCH  18  19
ATOM     19  C   UNL     1      -2.842  11.932  19.117  0.00  0.00    +0.000 A 
ATOM     20  C   UNL     1      -2.978  11.450  17.804  0.00  0.00    +0.000 A 
ATOM     21  C   UNL     1      -4.222  11.467  17.171  0.00  0.00    +0.000 A 
ATOM     22  C   UNL     1      -5.330  11.964  17.849  0.00  0.00    +0.000 A 
ATOM     23  F   UNL     1      -6.520  11.999  17.233  0.00  0.00    +0.000 F 
ATOM     24  C   UNL     1      -5.220  12.434  19.151  0.00  0.00    +0.000 A 
ATOM     25  C   UNL     1      -3.977  12.421  19.785  0.00  0.00    +0.000 A 
ENDBRANCH  18  19
ENDBRANCH  16  18
ENDBRANCH   2  14
BRANCH   1  27
ATOM     26  C   UNL     1       0.939   9.007  22.185  0.00  0.00    +0.000 C 
ATOM     27  O   UNL     1       0.498   8.637  20.898  0.00  0.00    +0.000 OA
ENDBRANCH   1  27
BRANCH  11  28
ATOM     28  C   UNL     1       4.776   3.984  18.479  0.00  0.00    +0.000 C 
BRANCH  28  29
ATOM     29  C   UNL     1       5.497   4.184  17.148  0.00  0.00    +0.000 A 
ATOM     30  C   UNL     1       6.831   4.624  17.128  0.00  0.00    +0.000 A 
ATOM     31  C   UNL     1       7.485   4.890  15.920  0.00  0.00    +0.000 A 
ATOM     32  C   UNL     1       6.810   4.697  14.711  0.00  0.00    +0.000 A 
ATOM     33  C   UNL     1       5.492   4.226  14.707  0.00  0.00    +0.000 A 
ATOM     34  C   UNL     1       4.843   3.969  15.922  0.00  0.00    +0.000 A 
BRANCH  32  35
ATOM     35  N   UNL     1       7.487   4.998  13.442  0.00  0.00    +0.000 N 
ATOM     36  O   UNL     1       7.106   4.397  12.428  0.00  0.00    +0.000 OA
ATOM     37  O   UNL     1       8.397   5.840  13.459  0.00  0.00    +0.000 OA
ENDBRANCH  32  35
ENDBRANCH  28  29
ENDBRANCH  11  28
TORSDOF 7
ENDMDL
MODEL 3
REMARK VINA RESULT:      -8.8      2.074      2.417
REMARK  Name = 
REMARK  9 active torsions:
REMARK  status: ('A' for Active; 'I' for Inactive)
REMARK    1  A    between atoms: C_1  and  O_2
REMARK    2  A    between atoms: O_2  and  C_3
REMARK    3  A    between atoms: C_4  and  C_5
REMARK    4  A    between atoms: N_7  and  C_8
REMARK    5  A    between atoms: C_8  and  C_9
REMARK    6  A    between atoms: N_22  and  C_23
REMARK    7  A    between atoms: C_24  and  C_25
REMARK    8  A    between atoms: C_25  and  C_26
REMARK    9  A    between atoms: C_29  and  N_30
REMARK                            x       y       z     vdW  Elec       q    Type
REMARK                         _______ _______ _______ _____ _____    ______ ____
ROOT
ATOM      1  C   UNL     1       1.270   8.437  19.900  0.00  0.00    +0.000 A 
ATOM      2  C   UNL     1       1.263   9.605  19.080  0.00  0.00    +0.000 A 
ATOM      3  C   UNL     1       1.988   9.631  17.878  0.00  0.00    +0.000 A 
ATOM      4  C   UNL     1       2.735   8.533  17.470  0.00  0.00    +0.000 A 
ATOM      5  C   UNL     1       2.820   7.388  18.276  0.00  0.00    +0.000 A 
ATOM      6  C   UNL     1       2.061   7.324  19.490  0.00  0.00    +0.000 A 
ATOM      7  C   UNL     1       2.161   5.990  20.190  0.00  0.00    +0.000 C 
ATOM      8  O   UNL     1       1.773   5.713  21.315  0.00  0.00    +0.000 OA
ATOM      9  N   UNL     1       2.745   4.975  19.462  0.00  0.00    +0.000 N 
ATOM     10  C   UNL     1       1.831   3.997  18.900  0.00  0.00    +0.000 C 
ATOM     11  C   UNL     1       3.959   5.342  18.797  0.00  0.00    +0.000 C 
ATOM     12  N   UNL     1       3.559   6.282  17.758  0.00  0.00    +0.000 N 
ATOM     13  H   UNL     1       4.341   6.600  17.188  0.00  0.00    +0.000 HD
ENDROOT
BRANCH   2  14
ATOM     14  C   UNL     1       0.520  10.883  19.406  0.00  0.00    +0.000 C 
ATOM     15  O   UNL     1      -0.439  11.222  18.716  0.00  0.00    +0.000 OA
ATOM     16  N   UNL     1       0.944  11.613  20.491  0.00  0.00    +0.000 N 
ATOM     17  H   UNL     1       1.756  11.279  20.995  0.00  0.00    +0.000 HD
BRANCH  16  18
ATOM     18  C   UNL     1       0.396  12.898  20.861  0.00  0.00    +0.000 C 
BRANCH  18  19
ATOM     19  C   UNL     1      -0.913  12.731  21.591  0.00  0.00    +0.000 A 
ATOM     20  C   UNL     1      -2.051  13.467  21.218  0.00  0.00    +0.000 A 
ATOM     21  C   UNL     1      -3.238  13.346  21.943  0.00  0.00    +0.000 A 
ATOM     22  C   UNL     1      -3.291  12.490  23.038  0.00  0.00    +0.000 A 
ATOM     23  F   UNL     1      -4.425  12.391  23.744  0.00  0.00    +0.000 F 
ATOM     24  C   UNL     1      -2.181  11.744  23.415  0.00  0.00    +0.000 A 
ATOM     25  C   UNL     1      -0.993  11.865  22.695  0.00  0.00    +0.000 A 
ENDBRANCH  18  19
ENDBRANCH  16  18
ENDBRANCH   2  14
BRANCH   1  27
ATOM     26  C   UNL     1       0.922   8.836  22.296  0.00  0.00    +0.000 C 
ATOM     27  O   UNL     1       0.457   8.585  20.989  0.00  0.00    +0.000 OA
ENDBRANCH   1  27
BRANCH  11  28
ATOM     28  C   UNL     1       4.803   4.152  18.295  0.00  0.00    +0.000 C 
BRANCH  28  29
ATOM     29  C   UNL     1       5.510   4.433  16.972  0.00  0.00    +0.000 A 
ATOM     30  C   UNL     1       4.864   4.163  15.755  0.00  0.00    +0.000 A 
ATOM     31  C   UNL     1       5.522   4.338  14.533  0.00  0.00    +0.000 A 
ATOM     32  C   UNL     1       6.839   4.808  14.518  0.00  0.00    +0.000 A 
ATOM     33  C   UNL     1       7.491   5.116  15.718  0.00  0.00    +0.000 A 
ATOM     34  C   UNL     1       6.825   4.931  16.937  0.00  0.00    +0.000 A 
BRANCH  32  35
ATOM     35  N   UNL     1       7.541   4.970  13.237  0.00  0.00    +0.000 N 
ATOM     36  O   UNL     1       8.468   5.792  13.187  0.00  0.00    +0.000 OA
ATOM     37  O   UNL     1       7.169   4.272  12.283  0.00  0.00    +0.000 OA
ENDBRANCH  32  35
ENDBRANCH  28  29
ENDBRANCH  11  28
TORSDOF 7
ENDMDL
MODEL 4
REMARK VINA RESULT:      -8.7      1.948      2.436
REMARK  Name = 
REMARK  9 active torsions:
REMARK  status: ('A' for Active; 'I' for Inactive)
REMARK    1  A    between atoms: C_1  and  O_2
REMARK    2  A    between atoms: O_2  and  C_3
REMARK    3  A    between atoms: C_4  and  C_5
REMARK    4  A    between atoms: N_7  and  C_8
REMARK    5  A    between atoms: C_8  and  C_9
REMARK    6  A    between atoms: N_22  and  C_23
REMARK    7  A    between atoms: C_24  and  C_25
REMARK    8  A    between atoms: C_25  and  C_26
REMARK    9  A    between atoms: C_29  and  N_30
REMARK                            x       y       z     vdW  Elec       q    Type
REMARK                         _______ _______ _______ _____ _____    ______ ____
ROOT
ATOM      1  C   UNL     1       1.358   8.412  19.853  0.00  0.00    +0.000 A 
ATOM      2  C   UNL     1       1.382   9.545  18.985  0.00  0.00    +0.000 A 
ATOM      3  C   UNL     1       2.100   9.499  17.780  0.00  0.00    +0.000 A 
ATOM      4  C   UNL     1       2.809   8.362  17.413  0.00  0.00    +0.000 A 
ATOM      5  C   UNL     1       2.862   7.249  18.265  0.00  0.00    +0.000 A 
ATOM      6  C   UNL     1       2.109   7.258  19.484  0.00  0.00    +0.000 A 
ATOM      7  C   UNL     1       2.171   5.952  20.238  0.00  0.00    +0.000 C 
ATOM      8  O   UNL     1       1.783   5.734  21.375  0.00  0.00    +0.000 OA
ATOM      9  N   UNL     1       2.717   4.889  19.548  0.00  0.00    +0.000 N 
ATOM     10  C   UNL     1       1.769   3.919  19.032  0.00  0.00    +0.000 C 
ATOM     11  C   UNL     1       3.938   5.190  18.863  0.00  0.00    +0.000 C 
ATOM     12  N   UNL     1       3.562   6.099  17.788  0.00  0.00    +0.000 N 
ATOM     13  H   UNL     1       4.349   6.368  17.202  0.00  0.00    +0.000 HD
ENDROOT
BRANCH   2  14
ATOM     14  C   UNL     1       0.683  10.859  19.263  0.00  0.00    +0.000 C 
ATOM     15  O   UNL     1      -0.244  11.218  18.541  0.00  0.00    +0.000 OA
ATOM     16  N   UNL     1       1.109  11.598  20.341  0.00  0.00    +0.000 N 
ATOM     17  H   UNL     1       1.894  11.245  20.873  0.00  0.00    +0.000 HD
BRANCH  16  18
ATOM     18  C   UNL     1       0.603  12.912  20.668  0.00  0.00    +0.000 C 
BRANCH  18  19
ATOM     19  C   UNL     1      -0.726  12.813  21.374  0.00  0.00    +0.000 A 
ATOM     20  C   UNL     1      -0.873  12.040  22.538  0.00  0.00    +0.000 A 
ATOM     21  C   UNL     1      -2.124  11.909  23.145  0.00  0.00    +0.000 A 
ATOM     22  C   UNL     1      -3.226  12.551  22.591  0.00  0.00    +0.000 A 
ATOM     23  F   UNL     1      -4.429  12.408  23.163  0.00  0.00    +0.000 F 
ATOM     24  C   UNL     1      -3.100  13.330  21.448  0.00  0.00    +0.000 A 
ATOM     25  C   UNL     1      -1.852  13.460  20.838  0.00  0.00    +0.000 A 
ENDBRANCH  18  19
ENDBRANCH  16  18
ENDBRANCH   2  14
BRANCH   1  27
ATOM     26  C   UNL     1       1.039   8.903  22.235  0.00  0.00    +0.000 C 
ATOM     27  O   UNL     1       0.557   8.631  20.939  0.00  0.00    +0.000 OA
ENDBRANCH   1  27
BRANCH  11  28
ATOM     28  C   UNL     1       4.741   3.954  18.405  0.00  0.00    +0.000 C 
BRANCH  28  29
ATOM     29  C   UNL     1       5.484   4.173  17.090  0.00  0.00    +0.000 A 
ATOM     30  C   UNL     1       6.812   4.633  17.098  0.00  0.00    +0.000 A 
ATOM     31  C   UNL     1       7.484   4.917  15.905  0.00  0.00    +0.000 A 
ATOM     32  C   UNL     1       6.835   4.723  14.682  0.00  0.00    +0.000 A 
ATOM     33  C   UNL     1       5.524   4.234  14.650  0.00  0.00    +0.000 A 
ATOM     34  C   UNL     1       4.856   3.958  15.851  0.00  0.00    +0.000 A 
BRANCH  32  35
ATOM     35  N   UNL     1       7.531   5.043  13.428  0.00  0.00    +0.000 N 
ATOM     36  O   UNL     1       8.461   5.862  13.477  0.00  0.00    +0.000 OA
ATOM     37  O   UNL     1       7.153   4.472  12.396  0.00  0.00    +0.000 OA
ENDBRANCH  32  35
ENDBRANCH  28  29
ENDBRANCH  11  28
TORSDOF 7
ENDMDL
MODEL 5
REMARK VINA RESULT:      -8.7      0.620      1.032
REMARK  Name = 
REMARK  9 active torsions:
REMARK  status: ('A' for Active; 'I' for Inactive)
REMARK    1  A    between atoms: C_1  and  O_2
REMARK    2  A    between atoms: O_2  and  C_3
REMARK    3  A    between atoms: C_4  and  C_5
REMARK    4  A    between atoms: N_7  and  C_8
REMARK    5  A    between atoms: C_8  and  C_9
REMARK    6  A    between atoms: N_22  and  C_23
REMARK    7  A    between atoms: C_24  and  C_25
REMARK    8  A    between atoms: C_25  and  C_26
REMARK    9  A    between atoms: C_29  and  N_30
REMARK                            x       y       z     vdW  Elec       q    Type
REMARK                         _______ _______ _______ _____ _____    ______ ____
ROOT
ATOM      1  C   UNL     1       1.548   8.076  20.199  0.00  0.00    +0.000 A 
ATOM      2  C   UNL     1       1.470   9.303  19.474  0.00  0.00    +0.000 A 
ATOM      3  C   UNL     1       1.996   9.395  18.176  0.00  0.00    +0.000 A 
ATOM      4  C   UNL     1       2.613   8.303  17.577  0.00  0.00    +0.000 A 
ATOM      5  C   UNL     1       2.767   7.097  18.276  0.00  0.00    +0.000 A 
ATOM      6  C   UNL     1       2.207   6.968  19.589  0.00  0.00    +0.000 A 
ATOM      7  C   UNL     1       2.349   5.582  20.169  0.00  0.00    +0.000 C 
ATOM      8  O   UNL     1       2.131   5.233  21.319  0.00  0.00    +0.000 OA
ATOM      9  N   UNL     1       2.759   4.604  19.286  0.00  0.00    +0.000 N 
ATOM     10  C   UNL     1       1.720   3.709  18.811  0.00  0.00    +0.000 C 
ATOM     11  C   UNL     1       3.869   4.975  18.461  0.00  0.00    +0.000 C 
ATOM     12  N   UNL     1       3.358   6.007  17.569  0.00  0.00    +0.000 N 
ATOM     13  H   UNL     1       4.055   6.338  16.904  0.00  0.00    +0.000 HD
ENDROOT
BRANCH   2  14
ATOM     14  C   UNL     1       0.854  10.580  20.005  0.00  0.00    +0.000 C 
ATOM     15  O   UNL     1       1.262  11.058  21.061  0.00  0.00    +0.000 OA
ATOM     16  N   UNL     1      -0.138  11.172  19.260  0.00  0.00    +0.000 N 
ATOM     17  H   UNL     1      -0.435  10.704  18.413  0.00  0.00    +0.000 HD
BRANCH  16  18
ATOM     18  C   UNL     1      -0.882  12.335  19.689  0.00  0.00    +0.000 C 
BRANCH  18  19
ATOM     19  C   UNL     1      -2.348  12.179  19.374  0.00  0.00    +0.000 A 
ATOM     20  C   UNL     1      -2.772  11.561  18.185  0.00  0.00    +0.000 A 
ATOM     21  C   UNL     1      -4.132  11.478  17.879  0.00  0.00    +0.000 A 
ATOM     22  C   UNL     1      -5.068  12.010  18.759  0.00  0.00    +0.000 A 
ATOM     23  F   UNL     1      -6.371  11.948  18.455  0.00  0.00    +0.000 F 
ATOM     24  C   UNL     1      -4.670  12.613  19.946  0.00  0.00    +0.000 A 
ATOM     25  C   UNL     1      -3.312  12.700  20.253  0.00  0.00    +0.000 A 
ENDBRANCH  18  19
ENDBRANCH  16  18
ENDBRANCH   2  14
BRANCH   1  27
ATOM     26  C   UNL     1      -0.472   8.137  21.589  0.00  0.00    +0.000 C 
ATOM     27  O   UNL     1       0.926   8.170  21.413  0.00  0.00    +0.000 OA
ENDBRANCH   1  27
BRANCH  11  28
ATOM     28  C   UNL     1       4.563   3.796  17.747  0.00  0.00    +0.000 C 
BRANCH  28  29
ATOM     29  C   UNL     1       5.395   4.229  16.543  0.00  0.00    +0.000 A 
ATOM     30  C   UNL     1       4.966   3.923  15.241  0.00  0.00    +0.000 A 
ATOM     31  C   UNL     1       5.752   4.240  14.128  0.00  0.00    +0.000 A 
ATOM     32  C   UNL     1       6.977   4.889  14.310  0.00  0.00    +0.000 A 
ATOM     33  C   UNL     1       7.409   5.234  15.596  0.00  0.00    +0.000 A 
ATOM     34  C   UNL     1       6.617   4.906  16.705  0.00  0.00    +0.000 A 
BRANCH  32  35
ATOM     35  N   UNL     1       7.816   5.202  13.144  0.00  0.00    +0.000 N 
ATOM     36  O   UNL     1       7.487   4.719  12.051  0.00  0.00    +0.000 OA
ATOM     37  O   UNL     1       8.800   5.935  13.321  0.00  0.00    +0.000 OA
ENDBRANCH  32  35
ENDBRANCH  28  29
ENDBRANCH  11  28
TORSDOF 7
ENDMDL
MODEL 6
REMARK VINA RESULT:      -8.7      2.946      3.685
REMARK  Name = 
REMARK  9 active torsions:
REMARK  status: ('A' for Active; 'I' for Inactive)
REMARK    1  A    between atoms: C_1  and  O_2
REMARK    2  A    between atoms: O_2  and  C_3
REMARK    3  A    between atoms: C_4  and  C_5
REMARK    4  A    between atoms: N_7  and  C_8
REMARK    5  A    between atoms: C_8  and  C_9
REMARK    6  A    between atoms: N_22  and  C_23
REMARK    7  A    between atoms: C_24  and  C_25
REMARK    8  A    between atoms: C_25  and  C_26
REMARK    9  A    between atoms: C_29  and  N_30
REMARK                            x       y       z     vdW  Elec       q    Type
REMARK                         _______ _______ _______ _____ _____    ______ ____
ROOT
ATOM      1  C   UNL     1       1.384   8.326  19.851  0.00  0.00    +0.000 A 
ATOM      2  C   UNL     1       1.399   9.470  18.997  0.00  0.00    +0.000 A 
ATOM      3  C   UNL     1       2.128   9.450  17.798  0.00  0.00    +0.000 A 
ATOM      4  C   UNL     1       2.858   8.328  17.424  0.00  0.00    +0.000 A 
ATOM      5  C   UNL     1       2.922   7.205  18.263  0.00  0.00    +0.000 A 
ATOM      6  C   UNL     1       2.157   7.188  19.475  0.00  0.00    +0.000 A 
ATOM      7  C   UNL     1       2.232   5.874  20.214  0.00  0.00    +0.000 C 
ATOM      8  O   UNL     1       1.837   5.636  21.345  0.00  0.00    +0.000 OA
ATOM      9  N   UNL     1       2.801   4.828  19.516  0.00  0.00    +0.000 N 
ATOM     10  C   UNL     1       1.873   3.851  18.979  0.00  0.00    +0.000 C 
ATOM     11  C   UNL     1       4.023   5.156  18.846  0.00  0.00    +0.000 C 
ATOM     12  N   UNL     1       3.643   6.072  17.779  0.00  0.00    +0.000 N 
ATOM     13  H   UNL     1       4.432   6.361  17.203  0.00  0.00    +0.000 HD
ENDROOT
BRANCH   2  14
ATOM     14  C   UNL     1       0.677  10.769  19.284  0.00  0.00    +0.000 C 
ATOM     15  O   UNL     1      -0.448  10.953  18.826  0.00  0.00    +0.000 OA
ATOM     16  N   UNL     1       1.313  11.696  20.075  0.00  0.00    +0.000 N 
ATOM     17  H   UNL     1       2.249  11.479  20.395  0.00  0.00    +0.000 HD
BRANCH  16  18
ATOM     18  C   UNL     1       0.790  13.015  20.351  0.00  0.00    +0.000 C 
BRANCH  18  19
ATOM     19  C   UNL     1       1.515  14.059  19.541  0.00  0.00    +0.000 A 
ATOM     20  C   UNL     1       0.948  15.325  19.316  0.00  0.00    +0.000 A 
ATOM     21  C   UNL     1       1.605  16.259  18.512  0.00  0.00    +0.000 A 
ATOM     22  C   UNL     1       2.826  15.930  17.935  0.00  0.00    +0.000 A 
ATOM     23  F   UNL     1       3.445  16.821  17.147  0.00  0.00    +0.000 F 
ATOM     24  C   UNL     1       3.410  14.689  18.155  0.00  0.00    +0.000 A 
ATOM     25  C   UNL     1       2.755  13.753  18.955  0.00  0.00    +0.000 A 
ENDBRANCH  18  19
ENDBRANCH  16  18
ENDBRANCH   2  14
BRANCH   1  27
ATOM     26  C   UNL     1       1.025   8.919  22.204  0.00  0.00    +0.000 C 
ATOM     27  O   UNL     1       0.570   8.519  20.932  0.00  0.00    +0.000 OA
ENDBRANCH   1  27
BRANCH  11  28
ATOM     28  C   UNL     1       4.849   3.938  18.381  0.00  0.00    +0.000 C 
BRANCH  28  29
ATOM     29  C   UNL     1       5.566   4.170  17.054  0.00  0.00    +0.000 A 
ATOM     30  C   UNL     1       6.890   4.638  17.039  0.00  0.00    +0.000 A 
ATOM     31  C   UNL     1       7.538   4.933  15.834  0.00  0.00    +0.000 A 
ATOM     32  C   UNL     1       6.866   4.742  14.623  0.00  0.00    +0.000 A 
ATOM     33  C   UNL     1       5.558   4.244  14.613  0.00  0.00    +0.000 A 
ATOM     34  C   UNL     1       4.915   3.958  15.825  0.00  0.00    +0.000 A 
BRANCH  32  35
ATOM     35  N   UNL     1       7.536   5.073  13.358  0.00  0.00    +0.000 N 
ATOM     36  O   UNL     1       7.123   4.526  12.325  0.00  0.00    +0.000 OA
ATOM     37  O   UNL     1       8.472   5.885  13.396  0.00  0.00    +0.000 OA
ENDBRANCH  32  35
ENDBRANCH  28  29
ENDBRANCH  11  28
TORSDOF 7
ENDMDL
MODEL 7
REMARK VINA RESULT:      -8.7      2.915      3.629
REMARK  Name = 
REMARK  9 active torsions:
REMARK  status: ('A' for Active; 'I' for Inactive)
REMARK    1  A    between atoms: C_1  and  O_2
REMARK    2  A    between atoms: O_2  and  C_3
REMARK    3  A    between atoms: C_4  and  C_5
REMARK    4  A    between atoms: N_7  and  C_8
REMARK    5  A    between atoms: C_8  and  C_9
REMARK    6  A    between atoms: N_22  and  C_23
REMARK    7  A    between atoms: C_24  and  C_25
REMARK    8  A    between atoms: C_25  and  C_26
REMARK    9  A    between atoms: C_29  and  N_30
REMARK                            x       y       z     vdW  Elec       q    Type
REMARK                         _______ _______ _______ _____ _____    ______ ____
ROOT
ATOM      1  C   UNL     1       1.368   8.402  20.004  0.00  0.00    +0.000 A 
ATOM      2  C   UNL     1       1.300   9.567  19.182  0.00  0.00    +0.000 A 
ATOM      3  C   UNL     1       1.913   9.580  17.919  0.00  0.00    +0.000 A 
ATOM      4  C   UNL     1       2.605   8.470  17.449  0.00  0.00    +0.000 A 
ATOM      5  C   UNL     1       2.749   7.327  18.249  0.00  0.00    +0.000 A 
ATOM      6  C   UNL     1       2.102   7.277  19.528  0.00  0.00    +0.000 A 
ATOM      7  C   UNL     1       2.249   5.944  20.222  0.00  0.00    +0.000 C 
ATOM      8  O   UNL     1       1.962   5.676  21.379  0.00  0.00    +0.000 OA
ATOM      9  N   UNL     1       2.750   4.919  19.448  0.00  0.00    +0.000 N 
ATOM     10  C   UNL     1       1.776   3.952  18.976  0.00  0.00    +0.000 C 
ATOM     11  C   UNL     1       3.902   5.268  18.673  0.00  0.00    +0.000 C 
ATOM     12  N   UNL     1       3.422   6.209  17.671  0.00  0.00    +0.000 N 
ATOM     13  H   UNL     1       4.152   6.515  17.030  0.00  0.00    +0.000 HD
ENDROOT
BRANCH   2  14
ATOM     14  C   UNL     1       0.608  10.856  19.569  0.00  0.00    +0.000 C 
ATOM     15  O   UNL     1      -0.589  10.999  19.329  0.00  0.00    +0.000 OA
ATOM     16  N   UNL     1       1.355  11.821  20.203  0.00  0.00    +0.000 N 
ATOM     17  H   UNL     1       2.340  11.637  20.345  0.00  0.00    +0.000 HD
BRANCH  16  18
ATOM     18  C   UNL     1       0.854  13.134  20.542  0.00  0.00    +0.000 C 
BRANCH  18  19
ATOM     19  C   UNL     1       1.433  14.181  19.623  0.00  0.00    +0.000 A 
ATOM     20  C   UNL     1       2.483  13.870  18.742  0.00  0.00    +0.000 A 
ATOM     21  C   UNL     1       3.050  14.865  17.942  0.00  0.00    +0.000 A 
ATOM     22  C   UNL     1       2.569  16.167  18.021  0.00  0.00    +0.000 A 
ATOM     23  F   UNL     1       3.127  17.124  17.268  0.00  0.00    +0.000 F 
ATOM     24  C   UNL     1       1.524  16.492  18.877  0.00  0.00    +0.000 A 
ATOM     25  C   UNL     1       0.957  15.501  19.679  0.00  0.00    +0.000 A 
ENDBRANCH  18  19
ENDBRANCH  16  18
ENDBRANCH   2  14
BRANCH   1  27
ATOM     26  C   UNL     1       1.221   9.007  22.377  0.00  0.00    +0.000 C 
ATOM     27  O   UNL     1       0.659   8.564  21.162  0.00  0.00    +0.000 OA
ENDBRANCH   1  27
BRANCH  11  28
ATOM     28  C   UNL     1       4.682   4.064  18.101  0.00  0.00    +0.000 C 
BRANCH  28  29
ATOM     29  C   UNL     1       5.447   4.398  16.823  0.00  0.00    +0.000 A 
ATOM     30  C   UNL     1       4.950   3.986  15.575  0.00  0.00    +0.000 A 
ATOM     31  C   UNL     1       5.675   4.210  14.400  0.00  0.00    +0.000 A 
ATOM     32  C   UNL     1       6.905   4.873  14.461  0.00  0.00    +0.000 A 
ATOM     33  C   UNL     1       7.403   5.322  15.690  0.00  0.00    +0.000 A 
ATOM     34  C   UNL     1       6.672   5.086  16.863  0.00  0.00    +0.000 A 
BRANCH  32  35
ATOM     35  N   UNL     1       7.679   5.089  13.231  0.00  0.00    +0.000 N 
ATOM     36  O   UNL     1       7.335   4.467  12.216  0.00  0.00    +0.000 OA
ATOM     37  O   UNL     1       8.627   5.886  13.279  0.00  0.00    +0.000 OA
ENDBRANCH  32  35
ENDBRANCH  28  29
ENDBRANCH  11  28
TORSDOF 7
ENDMDL
MODEL 8
REMARK VINA RESULT:      -8.6      1.854      2.433
REMARK  Name = 
REMARK  9 active torsions:
REMARK  status: ('A' for Active; 'I' for Inactive)
REMARK    1  A    between atoms: C_1  and  O_2
REMARK    2  A    between atoms: O_2  and  C_3
REMARK    3  A    between atoms: C_4  and  C_5
REMARK    4  A    between atoms: N_7  and  C_8
REMARK    5  A    between atoms: C_8  and  C_9
REMARK    6  A    between atoms: N_22  and  C_23
REMARK    7  A    between atoms: C_24  and  C_25
REMARK    8  A    between atoms: C_25  and  C_26
REMARK    9  A    between atoms: C_29  and  N_30
REMARK                            x       y       z     vdW  Elec       q    Type
REMARK                         _______ _______ _______ _____ _____    ______ ____
ROOT
ATOM      1  C   UNL     1       1.432   8.692  20.000  0.00  0.00    +0.000 A 
ATOM      2  C   UNL     1       1.429   9.811  19.115  0.00  0.00    +0.000 A 
ATOM      3  C   UNL     1       1.996   9.704  17.835  0.00  0.00    +0.000 A 
ATOM      4  C   UNL     1       2.583   8.518  17.410  0.00  0.00    +0.000 A 
ATOM      5  C   UNL     1       2.663   7.414  18.270  0.00  0.00    +0.000 A 
ATOM      6  C   UNL     1       2.059   7.486  19.568  0.00  0.00    +0.000 A 
ATOM      7  C   UNL     1       2.124   6.187  20.334  0.00  0.00    +0.000 C 
ATOM      8  O   UNL     1       1.857   6.007  21.513  0.00  0.00    +0.000 OA
ATOM      9  N   UNL     1       2.516   5.083  19.606  0.00  0.00    +0.000 N 
ATOM     10  C   UNL     1       1.454   4.173  19.220  0.00  0.00    +0.000 C 
ATOM     11  C   UNL     1       3.665   5.295  18.778  0.00  0.00    +0.000 C 
ATOM     12  N   UNL     1       3.226   6.215  17.738  0.00  0.00    +0.000 N 
ATOM     13  H   UNL     1       3.956   6.425  17.059  0.00  0.00    +0.000 HD
ENDROOT
BRANCH   2  14
ATOM     14  C   UNL     1       0.854  11.172  19.446  0.00  0.00    +0.000 C 
ATOM     15  O   UNL     1       1.594  12.058  19.868  0.00  0.00    +0.000 OA
ATOM     16  N   UNL     1      -0.491  11.369  19.239  0.00  0.00    +0.000 N 
ATOM     17  H   UNL     1      -1.037  10.582  18.911  0.00  0.00    +0.000 HD
BRANCH  16  18
ATOM     18  C   UNL     1      -1.193  12.579  19.601  0.00  0.00    +0.000 C 
BRANCH  18  19
ATOM     19  C   UNL     1      -1.931  12.400  20.904  0.00  0.00    +0.000 A 
ATOM     20  C   UNL     1      -3.292  12.730  21.017  0.00  0.00    +0.000 A 
ATOM     21  C   UNL     1      -3.946  12.616  22.246  0.00  0.00    +0.000 A 
ATOM     22  C   UNL     1      -3.242  12.172  23.360  0.00  0.00    +0.000 A 
ATOM     23  F   UNL     1      -3.865  12.082  24.543  0.00  0.00    +0.000 F 
ATOM     24  C   UNL     1      -1.899  11.828  23.266  0.00  0.00    +0.000 A 
ATOM     25  C   UNL     1      -1.243  11.943  22.040  0.00  0.00    +0.000 A 
ENDBRANCH  18  19
ENDBRANCH  16  18
ENDBRANCH   2  14
BRANCH   1  27
ATOM     26  C   UNL     1      -0.490   8.464  21.508  0.00  0.00    +0.000 C 
ATOM     27  O   UNL     1       0.779   8.975  21.167  0.00  0.00    +0.000 OA
ENDBRANCH   1  27
BRANCH  11  28
ATOM     28  C   UNL     1       4.328   4.003  18.254  0.00  0.00    +0.000 C 
BRANCH  28  29
ATOM     29  C   UNL     1       5.207   4.234  17.028  0.00  0.00    +0.000 A 
ATOM     30  C   UNL     1       6.398   4.969  17.142  0.00  0.00    +0.000 A 
ATOM     31  C   UNL     1       7.177   5.261  16.017  0.00  0.00    +0.000 A 
ATOM     32  C   UNL     1       6.777   4.797  14.760  0.00  0.00    +0.000 A 
ATOM     33  C   UNL     1       5.611   4.033  14.628  0.00  0.00    +0.000 A 
ATOM     34  C   UNL     1       4.834   3.752  15.760  0.00  0.00    +0.000 A 
BRANCH  32  35
ATOM     35  N   UNL     1       7.581   5.122  13.574  0.00  0.00    +0.000 N 
ATOM     36  O   UNL     1       7.217   4.657  12.484  0.00  0.00    +0.000 OA
ATOM     37  O   UNL     1       8.575   5.847  13.731  0.00  0.00    +0.000 OA
ENDBRANCH  32  35
ENDBRANCH  28  29
ENDBRANCH  11  28
TORSDOF 7
ENDMDL
MODEL 9
REMARK VINA RESULT:      -8.5      0.799      1.508
REMARK  Name = 
REMARK  9 active torsions:
REMARK  status: ('A' for Active; 'I' for Inactive)
REMARK    1  A    between atoms: C_1  and  O_2
REMARK    2  A    between atoms: O_2  and  C_3
REMARK    3  A    between atoms: C_4  and  C_5
REMARK    4  A    between atoms: N_7  and  C_8
REMARK    5  A    between atoms: C_8  and  C_9
REMARK    6  A    between atoms: N_22  and  C_23
REMARK    7  A    between atoms: C_24  and  C_25
REMARK    8  A    between atoms: C_25  and  C_26
REMARK    9  A    between atoms: C_29  and  N_30
REMARK                            x       y       z     vdW  Elec       q    Type
REMARK                         _______ _______ _______ _____ _____    ______ ____
ROOT
ATOM      1  C   UNL     1       1.514   8.362  19.982  0.00  0.00    +0.000 A 
ATOM      2  C   UNL     1       1.483   9.505  19.128  0.00  0.00    +0.000 A 
ATOM      3  C   UNL     1       2.046   9.445  17.843  0.00  0.00    +0.000 A 
ATOM      4  C   UNL     1       2.653   8.283  17.383  0.00  0.00    +0.000 A 
ATOM      5  C   UNL     1       2.761   7.157  18.212  0.00  0.00    +0.000 A 
ATOM      6  C   UNL     1       2.163   7.182  19.514  0.00  0.00    +0.000 A 
ATOM      7  C   UNL     1       2.258   5.864  20.244  0.00  0.00    +0.000 C 
ATOM      8  O   UNL     1       2.002   5.647  21.418  0.00  0.00    +0.000 OA
ATOM      9  N   UNL     1       2.669   4.789  19.483  0.00  0.00    +0.000 N 
ATOM     10  C   UNL     1       1.623   3.868  19.078  0.00  0.00    +0.000 C 
ATOM     11  C   UNL     1       3.809   5.046  18.656  0.00  0.00    +0.000 C 
ATOM     12  N   UNL     1       3.346   5.985  17.644  0.00  0.00    +0.000 N 
ATOM     13  H   UNL     1       4.067   6.229  16.968  0.00  0.00    +0.000 HD
ENDROOT
BRANCH   2  14
ATOM     14  C   UNL     1       0.883  10.844  19.500  0.00  0.00    +0.000 C 
ATOM     15  O   UNL     1       1.137  11.341  20.594  0.00  0.00    +0.000 OA
ATOM     16  N   UNL     1       0.081  11.468  18.573  0.00  0.00    +0.000 N 
ATOM     17  H   UNL     1      -0.099  10.983  17.704  0.00  0.00    +0.000 HD
BRANCH  16  18
ATOM     18  C   UNL     1      -0.636  12.698  18.826  0.00  0.00    +0.000 C 
BRANCH  18  19
ATOM     19  C   UNL     1      -2.100  12.424  19.063  0.00  0.00    +0.000 A 
ATOM     20  C   UNL     1      -2.866  11.716  18.122  0.00  0.00    +0.000 A 
ATOM     21  C   UNL     1      -4.234  11.524  18.327  0.00  0.00    +0.000 A 
ATOM     22  C   UNL     1      -4.836  12.037  19.471  0.00  0.00    +0.000 A 
ATOM     23  F   UNL     1      -6.152  11.870  19.656  0.00  0.00    +0.000 F 
ATOM     24  C   UNL     1      -4.093  12.730  20.419  0.00  0.00    +0.000 A 
ATOM     25  C   UNL     1      -2.727  12.925  20.216  0.00  0.00    +0.000 A 
ENDBRANCH  18  19
ENDBRANCH  16  18
ENDBRANCH   2  14
BRANCH   1  27
ATOM     26  C   UNL     1      -0.436   8.135  21.454  0.00  0.00    +0.000 C 
ATOM     27  O   UNL     1       0.862   8.600  21.160  0.00  0.00    +0.000 OA
ENDBRANCH   1  27
BRANCH  11  28
ATOM     28  C   UNL     1       4.494   3.783  18.094  0.00  0.00    +0.000 C 
BRANCH  28  29
ATOM     29  C   UNL     1       5.334   4.059  16.849  0.00  0.00    +0.000 A 
ATOM     30  C   UNL     1       6.639   4.562  16.976  0.00  0.00    +0.000 A 
ATOM     31  C   UNL     1       7.396   4.898  15.848  0.00  0.00    +0.000 A 
ATOM     32  C   UNL     1       6.855   4.712  14.572  0.00  0.00    +0.000 A 
ATOM     33  C   UNL     1       5.569   4.180  14.422  0.00  0.00    +0.000 A 
ATOM     34  C   UNL     1       4.816   3.854  15.558  0.00  0.00    +0.000 A 
BRANCH  32  35
ATOM     35  N   UNL     1       7.639   5.086  13.387  0.00  0.00    +0.000 N 
ATOM     36  O   UNL     1       8.557   5.905  13.537  0.00  0.00    +0.000 OA
ATOM     37  O   UNL     1       7.341   4.555  12.307  0.00  0.00    +0.000 OA
ENDBRANCH  32  35
ENDBRANCH  28  29
ENDBRANCH  11  28
TORSDOF 7
ENDMDL
