MODEL 1
REMARK VINA RESULT:      -8.0      0.000      0.000
REMARK  Name = 
REMARK  6 active torsions:
REMARK  status: ('A' for Active; 'I' for Inactive)
REMARK    1  A    between atoms: N_2  and  C_4
REMARK    2  A    between atoms: C_10  and  C_11
REMARK    3  A    between atoms: C_11  and  O_12
REMARK    4  A    between atoms: O_12  and  C_13
REMARK    5  A    between atoms: C_16  and  O_17
REMARK    6  A    between atoms: O_17  and  C_18
REMARK                            x       y       z     vdW  Elec       q    Type
REMARK                         _______ _______ _______ _____ _____    ______ ____
ROOT
ATOM      1  C   UNL     1       5.400   6.236  16.017  0.00  0.00    +0.000 C 
ENDROOT
BRANCH   1   8
ATOM      2  C   UNL     1       6.356   3.821  12.395  0.00  0.00    +0.000 A 
ATOM      3  C   UNL     1       7.361   4.551  11.789  0.00  0.00    +0.000 A 
ATOM      4  N   UNL     1       8.012   5.357  12.714  0.00  0.00    +0.000 NA
ATOM      5  C   UNL     1       7.396   5.090  13.832  0.00  0.00    +0.000 A 
ATOM      6  N   UNL     1       6.403   4.185  13.685  0.00  0.00    +0.000 N 
ATOM      7  C   UNL     1       5.755   3.929  14.944  0.00  0.00    +0.000 C 
ATOM      8  C   UNL     1       6.366   5.068  15.794  0.00  0.00    +0.000 C 
ATOM      9  O   UNL     1       7.525   5.575  15.056  0.00  0.00    +0.000 OA
BRANCH   2  11
ATOM     10  O   UNL     1       5.905   1.780  11.553  0.00  0.00    +0.000 OA
ATOM     11  N   UNL     1       5.447   2.883  11.861  0.00  0.00    +0.000 N 
ATOM     12  O   UNL     1       4.270   3.245  11.750  0.00  0.00    +0.000 OA
ENDBRANCH   2  11
ENDBRANCH   1   8
BRANCH   1  13
ATOM     13  O   UNL     1       5.285   6.521  17.410  0.00  0.00    +0.000 OA
BRANCH  13  14
ATOM     14  C   UNL     1       4.679   5.544  18.157  0.00  0.00    +0.000 A 
ATOM     15  C   UNL     1       3.304   5.404  17.970  0.00  0.00    +0.000 A 
ATOM     16  C   UNL     1       2.599   4.412  18.658  0.00  0.00    +0.000 A 
ATOM     17  C   UNL     1       3.262   3.531  19.516  0.00  0.00    +0.000 A 
ATOM     18  C   UNL     1       4.626   3.700  19.734  0.00  0.00    +0.000 A 
ATOM     19  C   UNL     1       5.335   4.688  19.041  0.00  0.00    +0.000 A 
BRANCH  17  20
ATOM     20  O   UNL     1       2.474   2.595  20.108  0.00  0.00    +0.000 OA
BRANCH  20  21
ATOM     21  C   UNL     1       1.744   2.943  21.279  0.00  0.00    +0.000 C 
ATOM     22  F   UNL     1       2.266   3.974  21.975  0.00  0.00    +0.000 F 
ATOM     23  F   UNL     1       0.473   3.248  20.938  0.00  0.00    +0.000 F 
ATOM     24  F   UNL     1       1.713   1.868  22.098  0.00  0.00    +0.000 F 
ENDBRANCH  20  21
ENDBRANCH  17  20
ENDBRANCH  13  14
ENDBRANCH   1  13
TORSDOF 6
ENDMDL
MODEL 2
REMARK VINA RESULT:      -8.0      0.142      1.405
REMARK  Name = 
REMARK  6 active torsions:
REMARK  status: ('A' for Active; 'I' for Inactive)
REMARK    1  A    between atoms: N_2  and  C_4
REMARK    2  A    between atoms: C_10  and  C_11
REMARK    3  A    between atoms: C_11  and  O_12
REMARK    4  A    between atoms: O_12  and  C_13
REMARK    5  A    between atoms: C_16  and  O_17
REMARK    6  A    between atoms: O_17  and  C_18
REMARK                            x       y       z     vdW  Elec       q    Type
REMARK                         _______ _______ _______ _____ _____    ______ ____
ROOT
ATOM      1  C   UNL     1       5.355   6.255  15.962  0.00  0.00    +0.000 C 
ENDROOT
BRANCH   1   8
ATOM      2  C   UNL     1       6.366   3.800  12.382  0.00  0.00    +0.000 A 
ATOM      3  C   UNL     1       7.387   4.518  11.788  0.00  0.00    +0.000 A 
ATOM      4  N   UNL     1       8.025   5.330  12.719  0.00  0.00    +0.000 NA
ATOM      5  C   UNL     1       7.386   5.076  13.826  0.00  0.00    +0.000 A 
ATOM      6  N   UNL     1       6.391   4.176  13.669  0.00  0.00    +0.000 N 
ATOM      7  C   UNL     1       5.716   3.936  14.917  0.00  0.00    +0.000 C 
ATOM      8  C   UNL     1       6.318   5.079  15.768  0.00  0.00    +0.000 C 
ATOM      9  O   UNL     1       7.494   5.572  15.048  0.00  0.00    +0.000 OA
BRANCH   2  11
ATOM     10  O   UNL     1       4.296   3.236  11.695  0.00  0.00    +0.000 OA
ATOM     11  N   UNL     1       5.462   2.862  11.839  0.00  0.00    +0.000 N 
ATOM     12  O   UNL     1       5.916   1.748  11.552  0.00  0.00    +0.000 OA
ENDBRANCH   2  11
ENDBRANCH   1   8
BRANCH   1  13
ATOM     13  O   UNL     1       5.135   6.488  17.352  0.00  0.00    +0.000 OA
BRANCH  13  14
ATOM     14  C   UNL     1       4.423   5.513  18.001  0.00  0.00    +0.000 A 
ATOM     15  C   UNL     1       5.150   4.722  18.890  0.00  0.00    +0.000 A 
ATOM     16  C   UNL     1       4.507   3.723  19.627  0.00  0.00    +0.000 A 
ATOM     17  C   UNL     1       3.129   3.524  19.509  0.00  0.00    +0.000 A 
ATOM     18  C   UNL     1       2.414   4.285  18.590  0.00  0.00    +0.000 A 
ATOM     19  C   UNL     1       3.054   5.291  17.856  0.00  0.00    +0.000 A 
BRANCH  17  20
ATOM     20  O   UNL     1       2.616   2.540  20.296  0.00  0.00    +0.000 OA
BRANCH  20  21
ATOM     21  C   UNL     1       1.737   2.889  21.357  0.00  0.00    +0.000 C 
ATOM     22  F   UNL     1       0.500   3.257  20.960  0.00  0.00    +0.000 F 
ATOM     23  F   UNL     1       1.627   1.845  22.208  0.00  0.00    +0.000 F 
ATOM     24  F   UNL     1       2.276   3.928  22.035  0.00  0.00    +0.000 F 
ENDBRANCH  20  21
ENDBRANCH  17  20
ENDBRANCH  13  14
ENDBRANCH   1  13
TORSDOF 6
ENDMDL
MODEL 3
REMARK VINA RESULT:      -7.9      1.115      1.221
REMARK  Name = 
REMARK  6 active torsions:
REMARK  status: ('A' for Active; 'I' for Inactive)
REMARK    1  A    between atoms: N_2  and  C_4
REMARK    2  A    between atoms: C_10  and  C_11
REMARK    3  A    between atoms: C_11  and  O_12
REMARK    4  A    between atoms: O_12  and  C_13
REMARK    5  A    between atoms: C_16  and  O_17
REMARK    6  A    between atoms: O_17  and  C_18
REMARK                            x       y       z     vdW  Elec       q    Type
REMARK                         _______ _______ _______ _____ _____    ______ ____
ROOT
ATOM      1  C   UNL     1       5.642   5.812  16.574  0.00  0.00    +0.000 C 
ENDROOT
BRANCH   1   8
ATOM      2  C   UNL     1       6.377   3.948  12.593  0.00  0.00    +0.000 A 
ATOM      3  C   UNL     1       7.309   4.792  12.019  0.00  0.00    +0.000 A 
ATOM      4  N   UNL     1       8.008   5.491  12.996  0.00  0.00    +0.000 NA
ATOM      5  C   UNL     1       7.490   5.051  14.109  0.00  0.00    +0.000 A 
ATOM      6  N   UNL     1       6.516   4.136  13.913  0.00  0.00    +0.000 N 
ATOM      7  C   UNL     1       5.977   3.688  15.170  0.00  0.00    +0.000 C 
ATOM      8  C   UNL     1       6.621   4.724  16.121  0.00  0.00    +0.000 C 
ATOM      9  O   UNL     1       7.702   5.371  15.375  0.00  0.00    +0.000 OA
BRANCH   2  11
ATOM     10  O   UNL     1       5.886   1.946  11.683  0.00  0.00    +0.000 OA
ATOM     11  N   UNL     1       5.456   3.056  12.004  0.00  0.00    +0.000 N 
ATOM     12  O   UNL     1       4.296   3.461  11.862  0.00  0.00    +0.000 OA
ENDBRANCH   2  11
ENDBRANCH   1   8
BRANCH   1  13
ATOM     13  O   UNL     1       4.297   5.375  16.385  0.00  0.00    +0.000 OA
BRANCH  13  14
ATOM     14  C   UNL     1       3.587   5.157  17.538  0.00  0.00    +0.000 A 
ATOM     15  C   UNL     1       2.604   4.171  17.466  0.00  0.00    +0.000 A 
ATOM     16  C   UNL     1       1.850   3.849  18.599  0.00  0.00    +0.000 A 
ATOM     17  C   UNL     1       2.089   4.485  19.819  0.00  0.00    +0.000 A 
ATOM     18  C   UNL     1       3.040   5.499  19.877  0.00  0.00    +0.000 A 
ATOM     19  C   UNL     1       3.802   5.818  18.747  0.00  0.00    +0.000 A 
BRANCH  17  20
ATOM     20  O   UNL     1       1.308   4.068  20.852  0.00  0.00    +0.000 OA
BRANCH  20  21
ATOM     21  C   UNL     1       1.554   2.795  21.438  0.00  0.00    +0.000 C 
ATOM     22  F   UNL     1       0.776   2.512  22.504  0.00  0.00    +0.000 F 
ATOM     23  F   UNL     1       1.380   1.834  20.505  0.00  0.00    +0.000 F 
ATOM     24  F   UNL     1       2.842   2.755  21.848  0.00  0.00    +0.000 F 
ENDBRANCH  20  21
ENDBRANCH  17  20
ENDBRANCH  13  14
ENDBRANCH   1  13
TORSDOF 6
ENDMDL
MODEL 4
REMARK VINA RESULT:      -7.8      0.911      1.477
REMARK  Name = 
REMARK  6 active torsions:
REMARK  status: ('A' for Active; 'I' for Inactive)
REMARK    1  A    between atoms: N_2  and  C_4
REMARK    2  A    between atoms: C_10  and  C_11
REMARK    3  A    between atoms: C_11  and  O_12
REMARK    4  A    between atoms: O_12  and  C_13
REMARK    5  A    between atoms: C_16  and  O_17
REMARK    6  A    between atoms: O_17  and  C_18
REMARK                            x       y       z     vdW  Elec       q    Type
REMARK                         _______ _______ _______ _____ _____    ______ ____
ROOT
ATOM      1  C   UNL     1       5.421   6.206  16.051  0.00  0.00    +0.000 C 
ENDROOT
BRANCH   1   8
ATOM      2  C   UNL     1       6.375   3.824  12.408  0.00  0.00    +0.000 A 
ATOM      3  C   UNL     1       7.386   4.554  11.812  0.00  0.00    +0.000 A 
ATOM      4  N   UNL     1       8.040   5.346  12.749  0.00  0.00    +0.000 NA
ATOM      5  C   UNL     1       7.417   5.071  13.861  0.00  0.00    +0.000 A 
ATOM      6  N   UNL     1       6.420   4.174  13.701  0.00  0.00    +0.000 N 
ATOM      7  C   UNL     1       5.765   3.909  14.955  0.00  0.00    +0.000 C 
ATOM      8  C   UNL     1       6.380   5.035  15.819  0.00  0.00    +0.000 C 
ATOM      9  O   UNL     1       7.545   5.542  15.091  0.00  0.00    +0.000 OA
BRANCH   2  11
ATOM     10  O   UNL     1       5.911   1.790  11.556  0.00  0.00    +0.000 OA
ATOM     11  N   UNL     1       5.463   2.897  11.860  0.00  0.00    +0.000 N 
ATOM     12  O   UNL     1       4.291   3.273  11.734  0.00  0.00    +0.000 OA
ENDBRANCH   2  11
ENDBRANCH   1   8
BRANCH   1  13
ATOM     13  O   UNL     1       5.374   6.539  17.438  0.00  0.00    +0.000 OA
BRANCH  13  14
ATOM     14  C   UNL     1       4.331   5.985  18.135  0.00  0.00    +0.000 A 
ATOM     15  C   UNL     1       4.663   5.396  19.355  0.00  0.00    +0.000 A 
ATOM     16  C   UNL     1       3.666   4.835  20.158  0.00  0.00    +0.000 A 
ATOM     17  C   UNL     1       2.325   4.884  19.768  0.00  0.00    +0.000 A 
ATOM     18  C   UNL     1       2.002   5.433  18.531  0.00  0.00    +0.000 A 
ATOM     19  C   UNL     1       2.998   6.002  17.728  0.00  0.00    +0.000 A 
BRANCH  17  20
ATOM     20  O   UNL     1       1.446   4.327  20.644  0.00  0.00    +0.000 OA
BRANCH  20  21
ATOM     21  C   UNL     1       1.212   2.925  20.594  0.00  0.00    +0.000 C 
ATOM     22  F   UNL     1       2.258   2.200  20.144  0.00  0.00    +0.000 F 
ATOM     23  F   UNL     1       0.876   2.485  21.826  0.00  0.00    +0.000 F 
ATOM     24  F   UNL     1       0.167   2.696  19.767  0.00  0.00    +0.000 F 
ENDBRANCH  20  21
ENDBRANCH  17  20
ENDBRANCH  13  14
ENDBRANCH   1  13
TORSDOF 6
ENDMDL
MODEL 5
REMARK VINA RESULT:      -7.8      0.938      1.306
REMARK  Name = 
REMARK  6 active torsions:
REMARK  status: ('A' for Active; 'I' for Inactive)
REMARK    1  A    between atoms: N_2  and  C_4
REMARK    2  A    between atoms: C_10  and  C_11
REMARK    3  A    between atoms: C_11  and  O_12
REMARK    4  A    between atoms: O_12  and  C_13
REMARK    5  A    between atoms: C_16  and  O_17
REMARK    6  A    between atoms: O_17  and  C_18
REMARK                            x       y       z     vdW  Elec       q    Type
REMARK                         _______ _______ _______ _____ _____    ______ ____
ROOT
ATOM      1  C   UNL     1       5.208   6.254  15.947  0.00  0.00    +0.000 C 
ENDROOT
BRANCH   1   8
ATOM      2  C   UNL     1       6.352   3.792  12.413  0.00  0.00    +0.000 A 
ATOM      3  C   UNL     1       7.394   4.508  11.856  0.00  0.00    +0.000 A 
ATOM      4  N   UNL     1       7.998   5.321  12.808  0.00  0.00    +0.000 NA
ATOM      5  C   UNL     1       7.317   5.070  13.892  0.00  0.00    +0.000 A 
ATOM      6  N   UNL     1       6.328   4.170  13.699  0.00  0.00    +0.000 N 
ATOM      7  C   UNL     1       5.607   3.934  14.921  0.00  0.00    +0.000 C 
ATOM      8  C   UNL     1       6.177   5.078  15.792  0.00  0.00    +0.000 C 
ATOM      9  O   UNL     1       7.379   5.569  15.116  0.00  0.00    +0.000 OA
BRANCH   2  11
ATOM     10  O   UNL     1       4.315   3.234  11.628  0.00  0.00    +0.000 OA
ATOM     11  N   UNL     1       5.468   2.853  11.838  0.00  0.00    +0.000 N 
ATOM     12  O   UNL     1       5.925   1.731  11.593  0.00  0.00    +0.000 OA
ENDBRANCH   2  11
ENDBRANCH   1   8
BRANCH   1  13
ATOM     13  O   UNL     1       5.284   6.786  17.269  0.00  0.00    +0.000 OA
BRANCH  13  14
ATOM     14  C   UNL     1       4.472   6.177  18.190  0.00  0.00    +0.000 A 
ATOM     15  C   UNL     1       3.113   6.474  18.090  0.00  0.00    +0.000 A 
ATOM     16  C   UNL     1       2.198   5.876  18.961  0.00  0.00    +0.000 A 
ATOM     17  C   UNL     1       2.624   4.953  19.919  0.00  0.00    +0.000 A 
ATOM     18  C   UNL     1       3.984   4.691  20.046  0.00  0.00    +0.000 A 
ATOM     19  C   UNL     1       4.902   5.283  19.170  0.00  0.00    +0.000 A 
BRANCH  17  20
ATOM     20  O   UNL     1       1.638   4.421  20.690  0.00  0.00    +0.000 OA
BRANCH  20  21
ATOM     21  C   UNL     1       1.297   3.049  20.530  0.00  0.00    +0.000 C 
ATOM     22  F   UNL     1       2.291   2.281  20.037  0.00  0.00    +0.000 F 
ATOM     23  F   UNL     1       0.908   2.544  21.722  0.00  0.00    +0.000 F 
ATOM     24  F   UNL     1       0.251   2.965  19.677  0.00  0.00    +0.000 F 
ENDBRANCH  20  21
ENDBRANCH  17  20
ENDBRANCH  13  14
ENDBRANCH   1  13
TORSDOF 6
ENDMDL
MODEL 6
REMARK VINA RESULT:      -7.7      1.090      1.611
REMARK  Name = 
REMARK  6 active torsions:
REMARK  status: ('A' for Active; 'I' for Inactive)
REMARK    1  A    between atoms: N_2  and  C_4
REMARK    2  A    between atoms: C_10  and  C_11
REMARK    3  A    between atoms: C_11  and  O_12
REMARK    4  A    between atoms: O_12  and  C_13
REMARK    5  A    between atoms: C_16  and  O_17
REMARK    6  A    between atoms: O_17  and  C_18
REMARK                            x       y       z     vdW  Elec       q    Type
REMARK                         _______ _______ _______ _____ _____    ______ ____
ROOT
ATOM      1  C   UNL     1       5.655   5.609  16.619  0.00  0.00    +0.000 C 
ENDROOT
BRANCH   1   8
ATOM      2  C   UNL     1       6.387   3.912  12.563  0.00  0.00    +0.000 A 
ATOM      3  C   UNL     1       7.269   4.815  12.001  0.00  0.00    +0.000 A 
ATOM      4  N   UNL     1       7.958   5.511  12.987  0.00  0.00    +0.000 NA
ATOM      5  C   UNL     1       7.483   5.012  14.094  0.00  0.00    +0.000 A 
ATOM      6  N   UNL     1       6.544   4.062  13.886  0.00  0.00    +0.000 N 
ATOM      7  C   UNL     1       6.052   3.549  15.137  0.00  0.00    +0.000 C 
ATOM      8  C   UNL     1       6.670   4.581  16.110  0.00  0.00    +0.000 C 
ATOM      9  O   UNL     1       7.707   5.299  15.366  0.00  0.00    +0.000 OA
BRANCH   2  11
ATOM     10  O   UNL     1       4.332   3.385  11.804  0.00  0.00    +0.000 OA
ATOM     11  N   UNL     1       5.493   3.001  11.962  0.00  0.00    +0.000 N 
ATOM     12  O   UNL     1       5.949   1.897  11.643  0.00  0.00    +0.000 OA
ENDBRANCH   2  11
ENDBRANCH   1   8
BRANCH   1  13
ATOM     13  O   UNL     1       4.335   5.235  16.227  0.00  0.00    +0.000 OA
BRANCH  13  14
ATOM     14  C   UNL     1       3.538   4.764  17.238  0.00  0.00    +0.000 A 
ATOM     15  C   UNL     1       3.551   5.509  18.417  0.00  0.00    +0.000 A 
ATOM     16  C   UNL     1       2.745   5.131  19.495  0.00  0.00    +0.000 A 
ATOM     17  C   UNL     1       1.896   4.027  19.398  0.00  0.00    +0.000 A 
ATOM     18  C   UNL     1       1.917   3.260  18.237  0.00  0.00    +0.000 A 
ATOM     19  C   UNL     1       2.717   3.640  17.153  0.00  0.00    +0.000 A 
BRANCH  17  20
ATOM     20  O   UNL     1       1.144   3.774  20.502  0.00  0.00    +0.000 OA
BRANCH  20  21
ATOM     21  C   UNL     1       1.714   3.036  21.576  0.00  0.00    +0.000 C 
ATOM     22  F   UNL     1       0.819   2.354  22.321  0.00  0.00    +0.000 F 
ATOM     23  F   UNL     1       2.624   2.166  21.085  0.00  0.00    +0.000 F 
ATOM     24  F   UNL     1       2.357   3.899  22.394  0.00  0.00    +0.000 F 
ENDBRANCH  20  21
ENDBRANCH  17  20
ENDBRANCH  13  14
ENDBRANCH   1  13
TORSDOF 6
ENDMDL
MODEL 7
REMARK VINA RESULT:      -7.7      4.054      5.666
REMARK  Name = 
REMARK  6 active torsions:
REMARK  status: ('A' for Active; 'I' for Inactive)
REMARK    1  A    between atoms: N_2  and  C_4
REMARK    2  A    between atoms: C_10  and  C_11
REMARK    3  A    between atoms: C_11  and  O_12
REMARK    4  A    between atoms: O_12  and  C_13
REMARK    5  A    between atoms: C_16  and  O_17
REMARK    6  A    between atoms: O_17  and  C_18
REMARK                            x       y       z     vdW  Elec       q    Type
REMARK                         _______ _______ _______ _____ _____    ______ ____
ROOT
ATOM      1  C   UNL     1       2.685   3.938  18.942  0.00  0.00    +0.000 C 
ENDROOT
BRANCH   1   8
ATOM      2  C   UNL     1       6.449   5.395  17.052  0.00  0.00    +0.000 A 
ATOM      3  C   UNL     1       7.200   5.815  18.133  0.00  0.00    +0.000 A 
ATOM      4  N   UNL     1       6.789   5.177  19.297  0.00  0.00    +0.000 NA
ATOM      5  C   UNL     1       5.825   4.400  18.889  0.00  0.00    +0.000 A 
ATOM      6  N   UNL     1       5.588   4.503  17.562  0.00  0.00    +0.000 N 
ATOM      7  C   UNL     1       4.515   3.630  17.166  0.00  0.00    +0.000 C 
ATOM      8  C   UNL     1       3.981   3.217  18.558  0.00  0.00    +0.000 C 
ATOM      9  O   UNL     1       5.009   3.583  19.534  0.00  0.00    +0.000 OA
BRANCH   2  11
ATOM     10  O   UNL     1       7.509   5.405  15.063  0.00  0.00    +0.000 OA
ATOM     11  N   UNL     1       6.509   5.761  15.690  0.00  0.00    +0.000 N 
ATOM     12  O   UNL     1       5.553   6.404  15.241  0.00  0.00    +0.000 OA
ENDBRANCH   2  11
ENDBRANCH   1   8
BRANCH   1  13
ATOM     13  O   UNL     1       2.959   4.975  19.884  0.00  0.00    +0.000 OA
BRANCH  13  14
ATOM     14  C   UNL     1       2.533   6.225  19.515  0.00  0.00    +0.000 A 
ATOM     15  C   UNL     1       1.899   6.967  20.510  0.00  0.00    +0.000 A 
ATOM     16  C   UNL     1       1.460   8.267  20.244  0.00  0.00    +0.000 A 
ATOM     17  C   UNL     1       1.675   8.851  18.993  0.00  0.00    +0.000 A 
ATOM     18  C   UNL     1       2.269   8.093  17.988  0.00  0.00    +0.000 A 
ATOM     19  C   UNL     1       2.716   6.793  18.254  0.00  0.00    +0.000 A 
BRANCH  17  20
ATOM     20  O   UNL     1       1.225  10.127  18.863  0.00  0.00    +0.000 OA
BRANCH  20  21
ATOM     21  C   UNL     1      -0.149  10.352  18.572  0.00  0.00    +0.000 C 
ATOM     22  F   UNL     1      -0.994  10.011  19.568  0.00  0.00    +0.000 F 
ATOM     23  F   UNL     1      -0.335  11.656  18.272  0.00  0.00    +0.000 F 
ATOM     24  F   UNL     1      -0.480   9.619  17.484  0.00  0.00    +0.000 F 
ENDBRANCH  20  21
ENDBRANCH  17  20
ENDBRANCH  13  14
ENDBRANCH   1  13
TORSDOF 6
ENDMDL
MODEL 8
REMARK VINA RESULT:      -7.6      0.903      1.096
REMARK  Name = 
REMARK  6 active torsions:
REMARK  status: ('A' for Active; 'I' for Inactive)
REMARK    1  A    between atoms: N_2  and  C_4
REMARK    2  A    between atoms: C_10  and  C_11
REMARK    3  A    between atoms: C_11  and  O_12
REMARK    4  A    between atoms: O_12  and  C_13
REMARK    5  A    between atoms: C_16  and  O_17
REMARK    6  A    between atoms: O_17  and  C_18
REMARK                            x       y       z     vdW  Elec       q    Type
REMARK                         _______ _______ _______ _____ _____    ______ ____
ROOT
ATOM      1  C   UNL     1       5.905   5.978  16.233  0.00  0.00    +0.000 C 
ENDROOT
BRANCH   1   8
ATOM      2  C   UNL     1       6.394   3.901  12.320  0.00  0.00    +0.000 A 
ATOM      3  C   UNL     1       7.270   4.723  11.637  0.00  0.00    +0.000 A 
ATOM      4  N   UNL     1       8.024   5.485  12.522  0.00  0.00    +0.000 NA
ATOM      5  C   UNL     1       7.591   5.102  13.691  0.00  0.00    +0.000 A 
ATOM      6  N   UNL     1       6.620   4.165  13.615  0.00  0.00    +0.000 N 
ATOM      7  C   UNL     1       6.177   3.782  14.929  0.00  0.00    +0.000 C 
ATOM      8  C   UNL     1       6.868   4.878  15.773  0.00  0.00    +0.000 C 
ATOM      9  O   UNL     1       7.885   5.495  14.920  0.00  0.00    +0.000 OA
BRANCH   2  11
ATOM     10  O   UNL     1       5.855   1.819  11.648  0.00  0.00    +0.000 OA
ATOM     11  N   UNL     1       5.449   2.966  11.847  0.00  0.00    +0.000 N 
ATOM     12  O   UNL     1       4.295   3.375  11.675  0.00  0.00    +0.000 OA
ENDBRANCH   2  11
ENDBRANCH   1   8
BRANCH   1  13
ATOM     13  O   UNL     1       4.560   5.505  16.190  0.00  0.00    +0.000 OA
BRANCH  13  14
ATOM     14  C   UNL     1       4.080   5.006  17.373  0.00  0.00    +0.000 A 
ATOM     15  C   UNL     1       3.718   3.659  17.360  0.00  0.00    +0.000 A 
ATOM     16  C   UNL     1       3.250   3.047  18.526  0.00  0.00    +0.000 A 
ATOM     17  C   UNL     1       3.168   3.762  19.723  0.00  0.00    +0.000 A 
ATOM     18  C   UNL     1       3.487   5.116  19.724  0.00  0.00    +0.000 A 
ATOM     19  C   UNL     1       3.963   5.730  18.559  0.00  0.00    +0.000 A 
BRANCH  17  20
ATOM     20  O   UNL     1       2.722   3.051  20.794  0.00  0.00    +0.000 OA
BRANCH  20  21
ATOM     21  C   UNL     1       1.331   3.040  21.088  0.00  0.00    +0.000 C 
ATOM     22  F   UNL     1       1.023   2.558  22.311  0.00  0.00    +0.000 F 
ATOM     23  F   UNL     1       0.841   4.294  20.979  0.00  0.00    +0.000 F 
ATOM     24  F   UNL     1       0.707   2.263  20.173  0.00  0.00    +0.000 F 
ENDBRANCH  20  21
ENDBRANCH  17  20
ENDBRANCH  13  14
ENDBRANCH   1  13
TORSDOF 6
ENDMDL
MODEL 9
REMARK VINA RESULT:      -7.6      4.513      5.895
REMARK  Name = 
REMARK  6 active torsions:
REMARK  status: ('A' for Active; 'I' for Inactive)
REMARK    1  A    between atoms: N_2  and  C_4
REMARK    2  A    between atoms: C_10  and  C_11
REMARK    3  A    between atoms: C_11  and  O_12
REMARK    4  A    between atoms: O_12  and  C_13
REMARK    5  A    between atoms: C_16  and  O_17
REMARK    6  A    between atoms: O_17  and  C_18
REMARK                            x       y       z     vdW  Elec       q    Type
REMARK                         _______ _______ _______ _____ _____    ______ ____
ROOT
ATOM      1  C   UNL     1       2.594   5.176  18.339  0.00  0.00    +0.000 C 
ENDROOT
BRANCH   1   8
ATOM      2  C   UNL     1       6.705   4.628  16.707  0.00  0.00    +0.000 A 
ATOM      3  C   UNL     1       7.513   5.058  17.742  0.00  0.00    +0.000 A 
ATOM      4  N   UNL     1       6.846   4.968  18.958  0.00  0.00    +0.000 NA
ATOM      5  C   UNL     1       5.679   4.489  18.626  0.00  0.00    +0.000 A 
ATOM      6  N   UNL     1       5.554   4.277  17.298  0.00  0.00    +0.000 N 
ATOM      7  C   UNL     1       4.250   3.754  16.985  0.00  0.00    +0.000 C 
ATOM      8  C   UNL     1       3.543   3.973  18.344  0.00  0.00    +0.000 C 
ATOM      9  O   UNL     1       4.592   4.228  19.333  0.00  0.00    +0.000 OA
BRANCH   2  11
ATOM     10  O   UNL     1       7.712   5.381  14.837  0.00  0.00    +0.000 OA
ATOM     11  N   UNL     1       6.953   4.539  15.321  0.00  0.00    +0.000 N 
ATOM     12  O   UNL     1       6.390   3.623  14.709  0.00  0.00    +0.000 OA
ENDBRANCH   2  11
ENDBRANCH   1   8
BRANCH   1  13
ATOM     13  O   UNL     1       2.833   5.996  19.482  0.00  0.00    +0.000 OA
BRANCH  13  14
ATOM     14  C   UNL     1       2.261   7.242  19.434  0.00  0.00    +0.000 A 
ATOM     15  C   UNL     1       2.354   7.905  18.212  0.00  0.00    +0.000 A 
ATOM     16  C   UNL     1       1.771   9.166  18.051  0.00  0.00    +0.000 A 
ATOM     17  C   UNL     1       1.063   9.763  19.097  0.00  0.00    +0.000 A 
ATOM     18  C   UNL     1       1.009   9.118  20.330  0.00  0.00    +0.000 A 
ATOM     19  C   UNL     1       1.586   7.853  20.491  0.00  0.00    +0.000 A 
BRANCH  17  20
ATOM     20  O   UNL     1       0.521  10.977  18.812  0.00  0.00    +0.000 OA
BRANCH  20  21
ATOM     21  C   UNL     1      -0.881  11.076  18.593  0.00  0.00    +0.000 C 
ATOM     22  F   UNL     1      -1.258  12.156  17.875  0.00  0.00    +0.000 F 
ATOM     23  F   UNL     1      -1.314   9.963  17.962  0.00  0.00    +0.000 F 
ATOM     24  F   UNL     1      -1.497  11.146  19.794  0.00  0.00    +0.000 F 
ENDBRANCH  20  21
ENDBRANCH  17  20
ENDBRANCH  13  14
ENDBRANCH   1  13
TORSDOF 6
ENDMDL
