MODEL 1
REMARK VINA RESULT:      -7.2      0.000      0.000
REMARK  Name = 
REMARK  9 active torsions:
REMARK  status: ('A' for Active; 'I' for Inactive)
REMARK    1  A    between atoms: C_1  and  C_2
REMARK    2  A    between atoms: C_2  and  C_3
REMARK    3  A    between atoms: C_3  and  N_4
REMARK    4  A    between atoms: N_4  and  C_5
REMARK    5  A    between atoms: N_4  and  C_13
REMARK    6  A    between atoms: C_5  and  C_6
REMARK    7  A    between atoms: C_6  and  C_7
REMARK    8  A    between atoms: C_13  and  C_14
REMARK    9  A    between atoms: C_14  and  C_15
REMARK                            x       y       z     vdW  Elec       q    Type
REMARK                         _______ _______ _______ _____ _____    ______ ____
ROOT
ATOM      1  N   UNL     1       5.124   5.785  17.617  0.00  0.00    +0.000 NA
ENDROOT
BRANCH   1   2
ATOM      2  C   UNL     1       5.941   4.881  18.467  0.00  0.00    +0.000 C 
BRANCH   2   4
ATOM      3  C   UNL     1       7.823   6.558  18.466  0.00  0.00    +0.000 C 
ATOM      4  C   UNL     1       7.042   5.552  19.305  0.00  0.00    +0.000 C 
ENDBRANCH   2   4
ENDBRANCH   1   2
BRANCH   1   5
ATOM      5  C   UNL     1       4.623   5.063  16.419  0.00  0.00    +0.000 C 
BRANCH   5   6
ATOM      6  C   UNL     1       5.469   3.859  15.952  0.00  0.00    +0.000 C 
BRANCH   6   7
ATOM      7  C   UNL     1       6.259   4.200  14.712  0.00  0.00    +0.000 A 
ATOM      8  C   UNL     1       5.980   3.602  13.480  0.00  0.00    +0.000 A 
ATOM      9  C   UNL     1       6.686   3.994  12.346  0.00  0.00    +0.000 A 
ATOM     10  C   UNL     1       7.659   4.970  12.484  0.00  0.00    +0.000 A 
ATOM     11  N   UNL     1       7.972   5.556  13.657  0.00  0.00    +0.000 NA
ATOM     12  C   UNL     1       7.267   5.159  14.743  0.00  0.00    +0.000 A 
ENDBRANCH   6   7
ENDBRANCH   5   6
ENDBRANCH   1   5
BRANCH   1  13
ATOM     13  C   UNL     1       3.979   6.316  18.404  0.00  0.00    +0.000 C 
BRANCH  13  14
ATOM     14  C   UNL     1       2.582   5.839  17.961  0.00  0.00    +0.000 C 
BRANCH  14  15
ATOM     15  C   UNL     1       2.080   4.729  18.858  0.00  0.00    +0.000 A 
ATOM     16  C   UNL     1       1.328   3.667  18.333  0.00  0.00    +0.000 A 
ATOM     17  C   UNL     1       0.892   2.628  19.161  0.00  0.00    +0.000 A 
ATOM     18  C   UNL     1       1.207   2.640  20.518  0.00  0.00    +0.000 A 
ATOM     19  C   UNL     1       1.957   3.689  21.038  0.00  0.00    +0.000 A 
ATOM     20  F   UNL     1       2.265   3.698  22.341  0.00  0.00    +0.000 F 
ATOM     21  C   UNL     1       2.396   4.727  20.223  0.00  0.00    +0.000 A 
ENDBRANCH  14  15
ENDBRANCH  13  14
ENDBRANCH   1  13
TORSDOF 8
ENDMDL
MODEL 2
REMARK VINA RESULT:      -7.2      2.516      6.638
REMARK  Name = 
REMARK  9 active torsions:
REMARK  status: ('A' for Active; 'I' for Inactive)
REMARK    1  A    between atoms: C_1  and  C_2
REMARK    2  A    between atoms: C_2  and  C_3
REMARK    3  A    between atoms: C_3  and  N_4
REMARK    4  A    between atoms: N_4  and  C_5
REMARK    5  A    between atoms: N_4  and  C_13
REMARK    6  A    between atoms: C_5  and  C_6
REMARK    7  A    between atoms: C_6  and  C_7
REMARK    8  A    between atoms: C_13  and  C_14
REMARK    9  A    between atoms: C_14  and  C_15
REMARK                            x       y       z     vdW  Elec       q    Type
REMARK                         _______ _______ _______ _____ _____    ______ ____
ROOT
ATOM      1  N   UNL     1       4.256   4.043  17.146  0.00  0.00    +0.000 NA
ENDROOT
BRANCH   1   2
ATOM      2  C   UNL     1       3.552   5.283  17.560  0.00  0.00    +0.000 C 
BRANCH   2   4
ATOM      3  C   UNL     1       2.519   6.292  19.626  0.00  0.00    +0.000 C 
ATOM      4  C   UNL     1       3.802   5.754  19.003  0.00  0.00    +0.000 C 
ENDBRANCH   2   4
ENDBRANCH   1   2
BRANCH   1   5
ATOM      5  C   UNL     1       3.297   2.917  17.013  0.00  0.00    +0.000 C 
BRANCH   5   6
ATOM      6  C   UNL     1       3.372   1.832  18.110  0.00  0.00    +0.000 C 
BRANCH   6   7
ATOM      7  C   UNL     1       2.720   2.306  19.386  0.00  0.00    +0.000 A 
ATOM      8  C   UNL     1       1.390   2.735  19.413  0.00  0.00    +0.000 A 
ATOM      9  C   UNL     1       0.805   3.099  20.623  0.00  0.00    +0.000 A 
ATOM     10  C   UNL     1       1.577   3.032  21.770  0.00  0.00    +0.000 A 
ATOM     11  N   UNL     1       2.868   2.644  21.784  0.00  0.00    +0.000 NA
ATOM     12  C   UNL     1       3.410   2.291  20.595  0.00  0.00    +0.000 A 
ENDBRANCH   6   7
ENDBRANCH   5   6
ENDBRANCH   1   5
BRANCH   1  13
ATOM     13  C   UNL     1       4.953   4.269  15.851  0.00  0.00    +0.000 C 
BRANCH  13  14
ATOM     14  C   UNL     1       6.491   4.185  15.893  0.00  0.00    +0.000 C 
BRANCH  14  15
ATOM     15  C   UNL     1       7.061   5.195  16.865  0.00  0.00    +0.000 A 
ATOM     16  C   UNL     1       7.080   6.562  16.551  0.00  0.00    +0.000 A 
ATOM     17  C   UNL     1       7.581   7.493  17.465  0.00  0.00    +0.000 A 
ATOM     18  C   UNL     1       8.063   7.067  18.702  0.00  0.00    +0.000 A 
ATOM     19  C   UNL     1       8.040   5.712  19.015  0.00  0.00    +0.000 A 
ATOM     20  F   UNL     1       8.497   5.303  20.205  0.00  0.00    +0.000 F 
ATOM     21  C   UNL     1       7.543   4.778  18.113  0.00  0.00    +0.000 A 
ENDBRANCH  14  15
ENDBRANCH  13  14
ENDBRANCH   1  13
TORSDOF 8
ENDMDL
MODEL 3
REMARK VINA RESULT:      -7.1      2.907      7.036
REMARK  Name = 
REMARK  9 active torsions:
REMARK  status: ('A' for Active; 'I' for Inactive)
REMARK    1  A    between atoms: C_1  and  C_2
REMARK    2  A    between atoms: C_2  and  C_3
REMARK    3  A    between atoms: C_3  and  N_4
REMARK    4  A    between atoms: N_4  and  C_5
REMARK    5  A    between atoms: N_4  and  C_13
REMARK    6  A    between atoms: C_5  and  C_6
REMARK    7  A    between atoms: C_6  and  C_7
REMARK    8  A    between atoms: C_13  and  C_14
REMARK    9  A    between atoms: C_14  and  C_15
REMARK                            x       y       z     vdW  Elec       q    Type
REMARK                         _______ _______ _______ _____ _____    ______ ____
ROOT
ATOM      1  N   UNL     1       5.914   5.272  17.986  0.00  0.00    +0.000 NA
ENDROOT
BRANCH   1   2
ATOM      2  C   UNL     1       7.164   6.043  18.214  0.00  0.00    +0.000 C 
BRANCH   2   4
ATOM      3  C   UNL     1       7.918   8.419  17.838  0.00  0.00    +0.000 C 
ATOM      4  C   UNL     1       7.496   7.117  17.165  0.00  0.00    +0.000 C 
ENDBRANCH   2   4
ENDBRANCH   1   2
BRANCH   1   5
ATOM      5  C   UNL     1       4.862   5.686  18.949  0.00  0.00    +0.000 C 
BRANCH   5   6
ATOM      6  C   UNL     1       3.421   5.734  18.397  0.00  0.00    +0.000 C 
BRANCH   6   7
ATOM      7  C   UNL     1       2.524   4.772  19.137  0.00  0.00    +0.000 A 
ATOM      8  C   UNL     1       1.724   3.848  18.459  0.00  0.00    +0.000 A 
ATOM      9  C   UNL     1       0.964   2.932  19.181  0.00  0.00    +0.000 A 
ATOM     10  C   UNL     1       1.021   2.976  20.563  0.00  0.00    +0.000 A 
ATOM     11  N   UNL     1       1.763   3.865  21.255  0.00  0.00    +0.000 NA
ATOM     12  C   UNL     1       2.497   4.741  20.529  0.00  0.00    +0.000 A 
ENDBRANCH   6   7
ENDBRANCH   5   6
ENDBRANCH   1   5
BRANCH   1  13
ATOM     13  C   UNL     1       5.438   5.487  16.593  0.00  0.00    +0.000 C 
BRANCH  13  14
ATOM     14  C   UNL     1       5.175   4.211  15.770  0.00  0.00    +0.000 C 
BRANCH  14  15
ATOM     15  C   UNL     1       5.935   4.245  14.462  0.00  0.00    +0.000 A 
ATOM     16  C   UNL     1       5.485   3.513  13.352  0.00  0.00    +0.000 A 
ATOM     17  C   UNL     1       6.174   3.572  12.137  0.00  0.00    +0.000 A 
ATOM     18  C   UNL     1       7.315   4.364  12.020  0.00  0.00    +0.000 A 
ATOM     19  C   UNL     1       7.758   5.093  13.118  0.00  0.00    +0.000 A 
ATOM     20  F   UNL     1       8.850   5.859  13.004  0.00  0.00    +0.000 F 
ATOM     21  C   UNL     1       7.079   5.042  14.330  0.00  0.00    +0.000 A 
ENDBRANCH  14  15
ENDBRANCH  13  14
ENDBRANCH   1  13
TORSDOF 8
ENDMDL
MODEL 4
REMARK VINA RESULT:      -7.0      1.151      1.651
REMARK  Name = 
REMARK  9 active torsions:
REMARK  status: ('A' for Active; 'I' for Inactive)
REMARK    1  A    between atoms: C_1  and  C_2
REMARK    2  A    between atoms: C_2  and  C_3
REMARK    3  A    between atoms: C_3  and  N_4
REMARK    4  A    between atoms: N_4  and  C_5
REMARK    5  A    between atoms: N_4  and  C_13
REMARK    6  A    between atoms: C_5  and  C_6
REMARK    7  A    between atoms: C_6  and  C_7
REMARK    8  A    between atoms: C_13  and  C_14
REMARK    9  A    between atoms: C_14  and  C_15
REMARK                            x       y       z     vdW  Elec       q    Type
REMARK                         _______ _______ _______ _____ _____    ______ ____
ROOT
ATOM      1  N   UNL     1       6.044   5.079  17.838  0.00  0.00    +0.000 NA
ENDROOT
BRANCH   1   2
ATOM      2  C   UNL     1       7.504   5.296  18.005  0.00  0.00    +0.000 C 
BRANCH   2   4
ATOM      3  C   UNL     1       7.730   7.771  17.580  0.00  0.00    +0.000 C 
ATOM      4  C   UNL     1       7.924   6.652  18.597  0.00  0.00    +0.000 C 
ENDBRANCH   2   4
ENDBRANCH   1   2
BRANCH   1   5
ATOM      5  C   UNL     1       5.786   3.970  16.884  0.00  0.00    +0.000 C 
BRANCH   5   6
ATOM      6  C   UNL     1       4.926   4.325  15.652  0.00  0.00    +0.000 C 
BRANCH   6   7
ATOM      7  C   UNL     1       5.761   4.344  14.395  0.00  0.00    +0.000 A 
ATOM      8  C   UNL     1       6.944   5.085  14.313  0.00  0.00    +0.000 A 
ATOM      9  C   UNL     1       7.721   5.020  13.160  0.00  0.00    +0.000 A 
ATOM     10  C   UNL     1       7.283   4.221  12.118  0.00  0.00    +0.000 A 
ATOM     11  N   UNL     1       6.139   3.509  12.149  0.00  0.00    +0.000 NA
ATOM     12  C   UNL     1       5.405   3.585  13.283  0.00  0.00    +0.000 A 
ENDBRANCH   6   7
ENDBRANCH   5   6
ENDBRANCH   1   5
BRANCH   1  13
ATOM     13  C   UNL     1       5.430   4.766  19.156  0.00  0.00    +0.000 C 
BRANCH  13  14
ATOM     14  C   UNL     1       4.134   5.531  19.490  0.00  0.00    +0.000 C 
BRANCH  14  15
ATOM     15  C   UNL     1       2.943   4.598  19.502  0.00  0.00    +0.000 A 
ATOM     16  C   UNL     1       2.314   4.223  18.305  0.00  0.00    +0.000 A 
ATOM     17  C   UNL     1       1.232   3.337  18.319  0.00  0.00    +0.000 A 
ATOM     18  C   UNL     1       0.773   2.816  19.528  0.00  0.00    +0.000 A 
ATOM     19  C   UNL     1       1.400   3.184  20.713  0.00  0.00    +0.000 A 
ATOM     20  F   UNL     1       0.963   2.679  21.874  0.00  0.00    +0.000 F 
ATOM     21  C   UNL     1       2.476   4.063  20.710  0.00  0.00    +0.000 A 
ENDBRANCH  14  15
ENDBRANCH  13  14
ENDBRANCH   1  13
TORSDOF 8
ENDMDL
MODEL 5
REMARK VINA RESULT:      -6.9      1.435      1.843
REMARK  Name = 
REMARK  9 active torsions:
REMARK  status: ('A' for Active; 'I' for Inactive)
REMARK    1  A    between atoms: C_1  and  C_2
REMARK    2  A    between atoms: C_2  and  C_3
REMARK    3  A    between atoms: C_3  and  N_4
REMARK    4  A    between atoms: N_4  and  C_5
REMARK    5  A    between atoms: N_4  and  C_13
REMARK    6  A    between atoms: C_5  and  C_6
REMARK    7  A    between atoms: C_6  and  C_7
REMARK    8  A    between atoms: C_13  and  C_14
REMARK    9  A    between atoms: C_14  and  C_15
REMARK                            x       y       z     vdW  Elec       q    Type
REMARK                         _______ _______ _______ _____ _____    ______ ____
ROOT
ATOM      1  N   UNL     1       6.038   5.711  17.876  0.00  0.00    +0.000 NA
ENDROOT
BRANCH   1   2
ATOM      2  C   UNL     1       7.384   6.315  18.048  0.00  0.00    +0.000 C 
BRANCH   2   4
ATOM      3  C   UNL     1       8.142   8.718  18.130  0.00  0.00    +0.000 C 
ATOM      4  C   UNL     1       7.666   7.586  17.228  0.00  0.00    +0.000 C 
ENDBRANCH   2   4
ENDBRANCH   1   2
BRANCH   1   5
ATOM      5  C   UNL     1       6.120   4.478  17.052  0.00  0.00    +0.000 C 
BRANCH   5   6
ATOM      6  C   UNL     1       5.182   4.421  15.826  0.00  0.00    +0.000 C 
BRANCH   6   7
ATOM      7  C   UNL     1       5.973   4.398  14.540  0.00  0.00    +0.000 A 
ATOM      8  C   UNL     1       5.591   3.596  13.461  0.00  0.00    +0.000 A 
ATOM      9  C   UNL     1       6.306   3.655  12.268  0.00  0.00    +0.000 A 
ATOM     10  C   UNL     1       7.392   4.511  12.197  0.00  0.00    +0.000 A 
ATOM     11  N   UNL     1       7.806   5.284  13.222  0.00  0.00    +0.000 NA
ATOM     12  C   UNL     1       7.089   5.211  14.367  0.00  0.00    +0.000 A 
ENDBRANCH   6   7
ENDBRANCH   5   6
ENDBRANCH   1   5
BRANCH   1  13
ATOM     13  C   UNL     1       5.457   5.392  19.207  0.00  0.00    +0.000 C 
BRANCH  13  14
ATOM     14  C   UNL     1       4.023   5.901  19.453  0.00  0.00    +0.000 C 
BRANCH  14  15
ATOM     15  C   UNL     1       3.061   4.746  19.627  0.00  0.00    +0.000 A 
ATOM     16  C   UNL     1       1.852   4.918  20.317  0.00  0.00    +0.000 A 
ATOM     17  C   UNL     1       0.953   3.855  20.450  0.00  0.00    +0.000 A 
ATOM     18  C   UNL     1       1.254   2.615  19.891  0.00  0.00    +0.000 A 
ATOM     19  C   UNL     1       2.450   2.446  19.202  0.00  0.00    +0.000 A 
ATOM     20  F   UNL     1       2.737   1.255  18.660  0.00  0.00    +0.000 F 
ATOM     21  C   UNL     1       3.350   3.496  19.064  0.00  0.00    +0.000 A 
ENDBRANCH  14  15
ENDBRANCH  13  14
ENDBRANCH   1  13
TORSDOF 8
ENDMDL
MODEL 6
REMARK VINA RESULT:      -6.9      2.919      6.850
REMARK  Name = 
REMARK  9 active torsions:
REMARK  status: ('A' for Active; 'I' for Inactive)
REMARK    1  A    between atoms: C_1  and  C_2
REMARK    2  A    between atoms: C_2  and  C_3
REMARK    3  A    between atoms: C_3  and  N_4
REMARK    4  A    between atoms: N_4  and  C_5
REMARK    5  A    between atoms: N_4  and  C_13
REMARK    6  A    between atoms: C_5  and  C_6
REMARK    7  A    between atoms: C_6  and  C_7
REMARK    8  A    between atoms: C_13  and  C_14
REMARK    9  A    between atoms: C_14  and  C_15
REMARK                            x       y       z     vdW  Elec       q    Type
REMARK                         _______ _______ _______ _____ _____    ______ ____
ROOT
ATOM      1  N   UNL     1       2.475   4.383  18.221  0.00  0.00    +0.000 NA
ENDROOT
BRANCH   1   2
ATOM      2  C   UNL     1       1.418   3.479  18.743  0.00  0.00    +0.000 C 
BRANCH   2   4
ATOM      3  C   UNL     1       1.383   2.740  21.153  0.00  0.00    +0.000 C 
ATOM      4  C   UNL     1       0.900   3.788  20.158  0.00  0.00    +0.000 C 
ENDBRANCH   2   4
ENDBRANCH   1   2
BRANCH   1   5
ATOM      5  C   UNL     1       2.629   5.569  19.102  0.00  0.00    +0.000 C 
BRANCH   5   6
ATOM      6  C   UNL     1       3.027   6.885  18.400  0.00  0.00    +0.000 C 
BRANCH   6   7
ATOM      7  C   UNL     1       2.141   8.025  18.841  0.00  0.00    +0.000 A 
ATOM      8  C   UNL     1       1.645   8.961  17.929  0.00  0.00    +0.000 A 
ATOM      9  C   UNL     1       0.775   9.956  18.366  0.00  0.00    +0.000 A 
ATOM     10  C   UNL     1       0.435   9.988  19.707  0.00  0.00    +0.000 A 
ATOM     11  N   UNL     1       0.908   9.117  20.621  0.00  0.00    +0.000 NA
ATOM     12  C   UNL     1       1.748   8.157  20.169  0.00  0.00    +0.000 A 
ENDBRANCH   6   7
ENDBRANCH   5   6
ENDBRANCH   1   5
BRANCH   1  13
ATOM     13  C   UNL     1       3.765   3.648  18.132  0.00  0.00    +0.000 C 
BRANCH  13  14
ATOM     14  C   UNL     1       4.685   4.049  16.962  0.00  0.00    +0.000 C 
BRANCH  14  15
ATOM     15  C   UNL     1       5.796   4.961  17.435  0.00  0.00    +0.000 A 
ATOM     16  C   UNL     1       6.307   5.963  16.597  0.00  0.00    +0.000 A 
ATOM     17  C   UNL     1       7.312   6.823  17.049  0.00  0.00    +0.000 A 
ATOM     18  C   UNL     1       7.811   6.691  18.344  0.00  0.00    +0.000 A 
ATOM     19  C   UNL     1       7.301   5.701  19.177  0.00  0.00    +0.000 A 
ATOM     20  F   UNL     1       7.777   5.578  20.422  0.00  0.00    +0.000 F 
ATOM     21  C   UNL     1       6.301   4.842  18.736  0.00  0.00    +0.000 A 
ENDBRANCH  14  15
ENDBRANCH  13  14
ENDBRANCH   1  13
TORSDOF 8
ENDMDL
MODEL 7
REMARK VINA RESULT:      -6.8      2.713      4.959
REMARK  Name = 
REMARK  9 active torsions:
REMARK  status: ('A' for Active; 'I' for Inactive)
REMARK    1  A    between atoms: C_1  and  C_2
REMARK    2  A    between atoms: C_2  and  C_3
REMARK    3  A    between atoms: C_3  and  N_4
REMARK    4  A    between atoms: N_4  and  C_5
REMARK    5  A    between atoms: N_4  and  C_13
REMARK    6  A    between atoms: C_5  and  C_6
REMARK    7  A    between atoms: C_6  and  C_7
REMARK    8  A    between atoms: C_13  and  C_14
REMARK    9  A    between atoms: C_14  and  C_15
REMARK                            x       y       z     vdW  Elec       q    Type
REMARK                         _______ _______ _______ _____ _____    ______ ____
ROOT
ATOM      1  N   UNL     1       5.809   6.007  18.055  0.00  0.00    +0.000 NA
ENDROOT
BRANCH   1   2
ATOM      2  C   UNL     1       7.194   6.223  17.562  0.00  0.00    +0.000 C 
BRANCH   2   4
ATOM      3  C   UNL     1       7.995   8.605  17.767  0.00  0.00    +0.000 C 
ATOM      4  C   UNL     1       8.055   7.207  18.373  0.00  0.00    +0.000 C 
ENDBRANCH   2   4
ENDBRANCH   1   2
BRANCH   1   5
ATOM      5  C   UNL     1       4.843   6.813  17.266  0.00  0.00    +0.000 C 
BRANCH   5   6
ATOM      6  C   UNL     1       3.356   6.421  17.414  0.00  0.00    +0.000 C 
BRANCH   6   7
ATOM      7  C   UNL     1       2.622   7.404  18.293  0.00  0.00    +0.000 A 
ATOM      8  C   UNL     1       2.140   8.616  17.791  0.00  0.00    +0.000 A 
ATOM      9  C   UNL     1       1.408   9.464  18.617  0.00  0.00    +0.000 A 
ATOM     10  C   UNL     1       1.189   9.075  19.927  0.00  0.00    +0.000 A 
ATOM     11  N   UNL     1       1.655   7.925  20.456  0.00  0.00    +0.000 NA
ATOM     12  C   UNL     1       2.359   7.117  19.629  0.00  0.00    +0.000 A 
ENDBRANCH   6   7
ENDBRANCH   5   6
ENDBRANCH   1   5
BRANCH   1  13
ATOM     13  C   UNL     1       5.462   4.564  17.959  0.00  0.00    +0.000 C 
BRANCH  13  14
ATOM     14  C   UNL     1       5.097   3.872  19.287  0.00  0.00    +0.000 C 
BRANCH  14  15
ATOM     15  C   UNL     1       3.662   3.393  19.271  0.00  0.00    +0.000 A 
ATOM     16  C   UNL     1       3.065   2.954  18.080  0.00  0.00    +0.000 A 
ATOM     17  C   UNL     1       1.749   2.484  18.077  0.00  0.00    +0.000 A 
ATOM     18  C   UNL     1       1.020   2.444  19.264  0.00  0.00    +0.000 A 
ATOM     19  C   UNL     1       1.613   2.873  20.446  0.00  0.00    +0.000 A 
ATOM     20  F   UNL     1       0.915   2.830  21.588  0.00  0.00    +0.000 F 
ATOM     21  C   UNL     1       2.922   3.342  20.460  0.00  0.00    +0.000 A 
ENDBRANCH  14  15
ENDBRANCH  13  14
ENDBRANCH   1  13
TORSDOF 8
ENDMDL
MODEL 8
REMARK VINA RESULT:      -6.8      3.027      5.934
REMARK  Name = 
REMARK  9 active torsions:
REMARK  status: ('A' for Active; 'I' for Inactive)
REMARK    1  A    between atoms: C_1  and  C_2
REMARK    2  A    between atoms: C_2  and  C_3
REMARK    3  A    between atoms: C_3  and  N_4
REMARK    4  A    between atoms: N_4  and  C_5
REMARK    5  A    between atoms: N_4  and  C_13
REMARK    6  A    between atoms: C_5  and  C_6
REMARK    7  A    between atoms: C_6  and  C_7
REMARK    8  A    between atoms: C_13  and  C_14
REMARK    9  A    between atoms: C_14  and  C_15
REMARK                            x       y       z     vdW  Elec       q    Type
REMARK                         _______ _______ _______ _____ _____    ______ ____
ROOT
ATOM      1  N   UNL     1       4.590   5.211  16.947  0.00  0.00    +0.000 NA
ENDROOT
BRANCH   1   2
ATOM      2  C   UNL     1       5.851   5.605  16.268  0.00  0.00    +0.000 C 
BRANCH   2   4
ATOM      3  C   UNL     1       6.245   4.157  14.242  0.00  0.00    +0.000 C 
ATOM      4  C   UNL     1       6.684   4.458  15.670  0.00  0.00    +0.000 C 
ENDBRANCH   2   4
ENDBRANCH   1   2
BRANCH   1   5
ATOM      5  C   UNL     1       4.755   3.909  17.642  0.00  0.00    +0.000 C 
BRANCH   5   6
ATOM      6  C   UNL     1       3.491   3.025  17.731  0.00  0.00    +0.000 C 
BRANCH   6   7
ATOM      7  C   UNL     1       2.877   3.095  19.108  0.00  0.00    +0.000 A 
ATOM      8  C   UNL     1       1.585   3.588  19.308  0.00  0.00    +0.000 A 
ATOM      9  C   UNL     1       1.029   3.571  20.584  0.00  0.00    +0.000 A 
ATOM     10  C   UNL     1       1.791   3.069  21.625  0.00  0.00    +0.000 A 
ATOM     11  N   UNL     1       3.048   2.604  21.477  0.00  0.00    +0.000 NA
ATOM     12  C   UNL     1       3.562   2.627  20.225  0.00  0.00    +0.000 A 
ENDBRANCH   6   7
ENDBRANCH   5   6
ENDBRANCH   1   5
BRANCH   1  13
ATOM     13  C   UNL     1       4.198   6.261  17.925  0.00  0.00    +0.000 C 
BRANCH  13  14
ATOM     14  C   UNL     1       3.294   7.384  17.378  0.00  0.00    +0.000 C 
BRANCH  14  15
ATOM     15  C   UNL     1       2.413   7.950  18.470  0.00  0.00    +0.000 A 
ATOM     16  C   UNL     1       2.295   7.297  19.707  0.00  0.00    +0.000 A 
ATOM     17  C   UNL     1       1.503   7.840  20.723  0.00  0.00    +0.000 A 
ATOM     18  C   UNL     1       0.826   9.040  20.513  0.00  0.00    +0.000 A 
ATOM     19  C   UNL     1       0.947   9.689  19.289  0.00  0.00    +0.000 A 
ATOM     20  F   UNL     1       0.301  10.845  19.089  0.00  0.00    +0.000 F 
ATOM     21  C   UNL     1       1.732   9.158  18.273  0.00  0.00    +0.000 A 
ENDBRANCH  14  15
ENDBRANCH  13  14
ENDBRANCH   1  13
TORSDOF 8
ENDMDL
MODEL 9
REMARK VINA RESULT:      -6.8      3.059      6.548
REMARK  Name = 
REMARK  9 active torsions:
REMARK  status: ('A' for Active; 'I' for Inactive)
REMARK    1  A    between atoms: C_1  and  C_2
REMARK    2  A    between atoms: C_2  and  C_3
REMARK    3  A    between atoms: C_3  and  N_4
REMARK    4  A    between atoms: N_4  and  C_5
REMARK    5  A    between atoms: N_4  and  C_13
REMARK    6  A    between atoms: C_5  and  C_6
REMARK    7  A    between atoms: C_6  and  C_7
REMARK    8  A    between atoms: C_13  and  C_14
REMARK    9  A    between atoms: C_14  and  C_15
REMARK                            x       y       z     vdW  Elec       q    Type
REMARK                         _______ _______ _______ _____ _____    ______ ____
ROOT
ATOM      1  N   UNL     1       5.054   6.397  17.342  0.00  0.00    +0.000 NA
ENDROOT
BRANCH   1   2
ATOM      2  C   UNL     1       6.109   7.410  17.603  0.00  0.00    +0.000 C 
BRANCH   2   4
ATOM      3  C   UNL     1       7.879   6.158  18.890  0.00  0.00    +0.000 C 
ATOM      4  C   UNL     1       7.558   6.895  17.594  0.00  0.00    +0.000 C 
ENDBRANCH   2   4
ENDBRANCH   1   2
BRANCH   1   5
ATOM      5  C   UNL     1       3.713   6.942  17.676  0.00  0.00    +0.000 C 
BRANCH   5   6
ATOM      6  C   UNL     1       2.951   6.218  18.807  0.00  0.00    +0.000 C 
BRANCH   6   7
ATOM      7  C   UNL     1       3.030   4.719  18.641  0.00  0.00    +0.000 A 
ATOM      8  C   UNL     1       2.273   4.050  17.675  0.00  0.00    +0.000 A 
ATOM      9  C   UNL     1       2.426   2.677  17.507  0.00  0.00    +0.000 A 
ATOM     10  C   UNL     1       3.328   2.013  18.321  0.00  0.00    +0.000 A 
ATOM     11  N   UNL     1       4.060   2.618  19.278  0.00  0.00    +0.000 NA
ATOM     12  C   UNL     1       3.896   3.955  19.416  0.00  0.00    +0.000 A 
ENDBRANCH   6   7
ENDBRANCH   5   6
ENDBRANCH   1   5
BRANCH   1  13
ATOM     13  C   UNL     1       5.093   5.988  15.912  0.00  0.00    +0.000 C 
BRANCH  13  14
ATOM     14  C   UNL     1       5.372   4.496  15.649  0.00  0.00    +0.000 C 
BRANCH  14  15
ATOM     15  C   UNL     1       5.933   4.287  14.259  0.00  0.00    +0.000 A 
ATOM     16  C   UNL     1       7.113   4.931  13.858  0.00  0.00    +0.000 A 
ATOM     17  C   UNL     1       7.643   4.711  12.583  0.00  0.00    +0.000 A 
ATOM     18  C   UNL     1       7.001   3.844  11.702  0.00  0.00    +0.000 A 
ATOM     19  C   UNL     1       5.834   3.202  12.101  0.00  0.00    +0.000 A 
ATOM     20  F   UNL     1       5.220   2.365  11.256  0.00  0.00    +0.000 F 
ATOM     21  C   UNL     1       5.299   3.413  13.366  0.00  0.00    +0.000 A 
ENDBRANCH  14  15
ENDBRANCH  13  14
ENDBRANCH   1  13
TORSDOF 8
ENDMDL
