MODEL 1
REMARK VINA RESULT:      -6.6      0.000      0.000
REMARK  Name = 
REMARK  10 active torsions:
REMARK  status: ('A' for Active; 'I' for Inactive)
REMARK    1  A    between atoms: C_1  and  O_2
REMARK    2  A    between atoms: O_2  and  C_3
REMARK    3  A    between atoms: C_4  and  C_5
REMARK    4  A    between atoms: C_5  and  O_6
REMARK    5  A    between atoms: O_6  and  C_7
REMARK    6  A    between atoms: C_14  and  C_15
REMARK    7  A    between atoms: C_16  and  N_17
REMARK    8  A    between atoms: N_17  and  C_18
REMARK    9  A    between atoms: C_18  and  C_19
REMARK   10  A    between atoms: N_27  and  C_28
REMARK                            x       y       z     vdW  Elec       q    Type
REMARK                         _______ _______ _______ _____ _____    ______ ____
ROOT
ATOM      1  C   UNL     1       2.545   5.881  18.580  0.00  0.00    +0.000 C 
ATOM      2  C   UNL     1       3.094   6.813  17.390  0.00  0.00    +0.000 C 
ATOM      3  C   UNL     1       4.537   6.372  17.249  0.00  0.00    +0.000 C 
ATOM      4  C   UNL     1       4.837   5.652  18.337  0.00  0.00    +0.000 C 
ATOM      5  C   UNL     1       5.691   4.459  18.062  0.00  0.00    +0.000 C 
ATOM      6  O   UNL     1       5.997   3.635  18.903  0.00  0.00    +0.000 OA
ATOM      7  C   UNL     1       6.067   4.232  16.642  0.00  0.00    +0.000 C 
ATOM      8  C   UNL     1       5.219   3.341  15.750  0.00  0.00    +0.000 C 
ATOM      9  C   UNL     1       6.558   5.342  16.067  0.00  0.00    +0.000 C 
ATOM     10  C   UNL     1       5.395   6.357  16.030  0.00  0.00    +0.000 C 
ATOM     11  O   UNL     1       5.135   7.033  15.045  0.00  0.00    +0.000 OA
ATOM     12  N   UNL     1       3.831   5.749  19.347  0.00  0.00    +0.000 N 
ATOM     13  C   UNL     1       3.666   4.687  20.336  0.00  0.00    +0.000 C 
ATOM     14  C   UNL     1       2.996   3.620  19.522  0.00  0.00    +0.000 C 
ATOM     15  C   UNL     1       2.228   4.366  18.409  0.00  0.00    +0.000 C 
ATOM     16  N   UNL     1       1.586   3.400  19.328  0.00  0.00    +0.000 NA
ATOM     17  C   UNL     1       0.821   3.775  20.503  0.00  0.00    +0.000 C 
ENDROOT
BRANCH   1  19
ATOM     18  C   UNL     1       1.944   7.150  20.482  0.00  0.00    +0.000 C 
ATOM     19  O   UNL     1       1.481   6.516  19.270  0.00  0.00    +0.000 OA
ENDBRANCH   1  19
BRANCH   9  20
ATOM     20  N   UNL     1       7.463   5.175  15.013  0.00  0.00    +0.000 N 
ATOM     21  H   UNL     1       8.333   5.668  15.237  0.00  0.00    +0.000 HD
BRANCH  20  22
ATOM     22  C   UNL     1       7.186   5.330  13.590  0.00  0.00    +0.000 C 
BRANCH  22  23
ATOM     23  C   UNL     1       7.238   4.021  12.797  0.00  0.00    +0.000 C 
ATOM     24 CL   UNL     1       5.618   3.495  12.258  0.00  0.00    +0.000 Cl
ENDBRANCH  22  23
ENDBRANCH  20  22
ENDBRANCH   9  20
BRANCH   2  25
ATOM     25  C   UNL     1       3.036   8.282  17.884  0.00  0.00    +0.000 C 
BRANCH  25  26
ATOM     26  O   UNL     1       2.047   9.083  17.228  0.00  0.00    +0.000 OA
BRANCH  26  27
ATOM     27  C   UNL     1       1.454  10.003  18.014  0.00  0.00    +0.000 C 
ATOM     28  N   UNL     1       2.122  11.174  17.924  0.00  0.00    +0.000 N 
ATOM     29  O   UNL     1       0.504   9.819  18.761  0.00  0.00    +0.000 OA
ATOM     30  H   UNL     1       3.010  11.183  17.455  0.00  0.00    +0.000 HD
ATOM     31  H   UNL     1       1.885  11.909  18.572  0.00  0.00    +0.000 HD
ENDBRANCH  26  27
ENDBRANCH  25  26
ENDBRANCH   2  25
TORSDOF 7
ENDMDL
MODEL 2
REMARK VINA RESULT:      -6.2      1.070      1.081
REMARK  Name = 
REMARK  10 active torsions:
REMARK  status: ('A' for Active; 'I' for Inactive)
REMARK    1  A    between atoms: C_1  and  O_2
REMARK    2  A    between atoms: O_2  and  C_3
REMARK    3  A    between atoms: C_4  and  C_5
REMARK    4  A    between atoms: C_5  and  O_6
REMARK    5  A    between atoms: O_6  and  C_7
REMARK    6  A    between atoms: C_14  and  C_15
REMARK    7  A    between atoms: C_16  and  N_17
REMARK    8  A    between atoms: N_17  and  C_18
REMARK    9  A    between atoms: C_18  and  C_19
REMARK   10  A    between atoms: N_27  and  C_28
REMARK                            x       y       z     vdW  Elec       q    Type
REMARK                         _______ _______ _______ _____ _____    ______ ____
ROOT
ATOM      1  C   UNL     1       2.479   5.716  18.714  0.00  0.00    +0.000 C 
ATOM      2  C   UNL     1       2.922   6.725  17.542  0.00  0.00    +0.000 C 
ATOM      3  C   UNL     1       4.388   6.395  17.346  0.00  0.00    +0.000 C 
ATOM      4  C   UNL     1       4.772   5.664  18.399  0.00  0.00    +0.000 C 
ATOM      5  C   UNL     1       5.701   4.546  18.058  0.00  0.00    +0.000 C 
ATOM      6  O   UNL     1       6.092   3.719  18.861  0.00  0.00    +0.000 OA
ATOM      7  C   UNL     1       6.049   4.394  16.621  0.00  0.00    +0.000 C 
ATOM      8  C   UNL     1       5.241   3.473  15.723  0.00  0.00    +0.000 C 
ATOM      9  C   UNL     1       6.441   5.554  16.072  0.00  0.00    +0.000 C 
ATOM     10  C   UNL     1       5.208   6.483  16.104  0.00  0.00    +0.000 C 
ATOM     11  O   UNL     1       4.870   7.170  15.150  0.00  0.00    +0.000 OA
ATOM     12  N   UNL     1       3.794   5.653  19.439  0.00  0.00    +0.000 N 
ATOM     13  C   UNL     1       3.735   4.550  20.395  0.00  0.00    +0.000 C 
ATOM     14  C   UNL     1       3.119   3.465  19.563  0.00  0.00    +0.000 C 
ATOM     15  C   UNL     1       2.266   4.189  18.498  0.00  0.00    +0.000 C 
ATOM     16  N   UNL     1       1.724   3.149  19.401  0.00  0.00    +0.000 NA
ATOM     17  C   UNL     1       0.970   3.428  20.609  0.00  0.00    +0.000 C 
ENDROOT
BRANCH   1  19
ATOM     18  C   UNL     1       1.839   6.821  20.704  0.00  0.00    +0.000 C 
ATOM     19  O   UNL     1       1.393   6.249  19.455  0.00  0.00    +0.000 OA
ENDBRANCH   1  19
BRANCH   9  20
ATOM     20  N   UNL     1       7.324   5.489  14.988  0.00  0.00    +0.000 N 
ATOM     21  H   UNL     1       7.639   6.436  14.754  0.00  0.00    +0.000 HD
BRANCH  20  22
ATOM     22  C   UNL     1       7.136   4.737  13.753  0.00  0.00    +0.000 C 
BRANCH  22  23
ATOM     23  C   UNL     1       7.843   5.344  12.539  0.00  0.00    +0.000 C 
ATOM     24 CL   UNL     1       9.379   6.142  12.982  0.00  0.00    +0.000 Cl
ENDBRANCH  22  23
ENDBRANCH  20  22
ENDBRANCH   9  20
BRANCH   2  25
ATOM     25  C   UNL     1       2.774   8.169  18.089  0.00  0.00    +0.000 C 
BRANCH  25  26
ATOM     26  O   UNL     1       1.727   8.925  17.471  0.00  0.00    +0.000 OA
BRANCH  26  27
ATOM     27  C   UNL     1       1.019   9.702  18.314  0.00  0.00    +0.000 C 
ATOM     28  N   UNL     1      -0.007  10.276  17.646  0.00  0.00    +0.000 N 
ATOM     29  O   UNL     1       1.280   9.933  19.486  0.00  0.00    +0.000 OA
ATOM     30  H   UNL     1      -0.027  10.202  16.645  0.00  0.00    +0.000 HD
ATOM     31  H   UNL     1      -0.531  11.002  18.110  0.00  0.00    +0.000 HD
ENDBRANCH  26  27
ENDBRANCH  25  26
ENDBRANCH   2  25
TORSDOF 7
ENDMDL
MODEL 3
REMARK VINA RESULT:      -6.2      7.950     10.452
REMARK  Name = 
REMARK  10 active torsions:
REMARK  status: ('A' for Active; 'I' for Inactive)
REMARK    1  A    between atoms: C_1  and  O_2
REMARK    2  A    between atoms: O_2  and  C_3
REMARK    3  A    between atoms: C_4  and  C_5
REMARK    4  A    between atoms: C_5  and  O_6
REMARK    5  A    between atoms: O_6  and  C_7
REMARK    6  A    between atoms: C_14  and  C_15
REMARK    7  A    between atoms: C_16  and  N_17
REMARK    8  A    between atoms: N_17  and  C_18
REMARK    9  A    between atoms: C_18  and  C_19
REMARK   10  A    between atoms: N_27  and  C_28
REMARK                            x       y       z     vdW  Elec       q    Type
REMARK                         _______ _______ _______ _____ _____    ______ ____
ROOT
ATOM      1  C   UNL     1      -3.379  13.254  21.724  0.00  0.00    +0.000 C 
ATOM      2  C   UNL     1      -4.313  12.433  20.704  0.00  0.00    +0.000 C 
ATOM      3  C   UNL     1      -3.474  12.379  19.443  0.00  0.00    +0.000 C 
ATOM      4  C   UNL     1      -2.489  13.272  19.586  0.00  0.00    +0.000 C 
ATOM      5  C   UNL     1      -1.170  12.815  19.057  0.00  0.00    +0.000 C 
ATOM      6  O   UNL     1      -0.136  13.447  19.172  0.00  0.00    +0.000 OA
ATOM      7  C   UNL     1      -1.133  11.449  18.472  0.00  0.00    +0.000 C 
ATOM      8  C   UNL     1      -0.762  10.251  19.329  0.00  0.00    +0.000 C 
ATOM      9  C   UNL     1      -2.122  11.254  17.586  0.00  0.00    +0.000 C 
ATOM     10  C   UNL     1      -3.439  11.325  18.388  0.00  0.00    +0.000 C 
ATOM     11  O   UNL     1      -4.350  10.523  18.241  0.00  0.00    +0.000 OA
ATOM     12  N   UNL     1      -2.690  14.127  20.713  0.00  0.00    +0.000 N 
ATOM     13  C   UNL     1      -1.556  14.775  21.367  0.00  0.00    +0.000 C 
ATOM     14  C   UNL     1      -0.950  13.629  22.122  0.00  0.00    +0.000 C 
ATOM     15  C   UNL     1      -2.114  12.654  22.404  0.00  0.00    +0.000 C 
ATOM     16  N   UNL     1      -1.235  13.196  23.465  0.00  0.00    +0.000 NA
ATOM     17  C   UNL     1      -1.583  14.313  24.323  0.00  0.00    +0.000 C 
ENDROOT
BRANCH   1  19
ATOM     18  C   UNL     1      -4.766  13.011  23.624  0.00  0.00    +0.000 C 
ATOM     19  O   UNL     1      -4.164  13.935  22.690  0.00  0.00    +0.000 OA
ENDBRANCH   1  19
BRANCH   9  20
ATOM     20  N   UNL     1      -1.897  10.325  16.563  0.00  0.00    +0.000 N 
ATOM     21  H   UNL     1      -1.186  10.695  15.924  0.00  0.00    +0.000 HD
BRANCH  20  22
ATOM     22  C   UNL     1      -2.908   9.619  15.786  0.00  0.00    +0.000 C 
BRANCH  22  23
ATOM     23  C   UNL     1      -3.341  10.351  14.514  0.00  0.00    +0.000 C 
ATOM     24 CL   UNL     1      -2.735   9.551  13.035  0.00  0.00    +0.000 Cl
ENDBRANCH  22  23
ENDBRANCH  20  22
ENDBRANCH   9  20
BRANCH   2  25
ATOM     25  C   UNL     1      -5.589  13.279  20.455  0.00  0.00    +0.000 C 
BRANCH  25  26
ATOM     26  O   UNL     1      -6.626  12.582  19.756  0.00  0.00    +0.000 OA
BRANCH  26  27
ATOM     27  C   UNL     1      -7.047  11.450  20.353  0.00  0.00    +0.000 C 
ATOM     28  N   UNL     1      -7.215  10.483  19.422  0.00  0.00    +0.000 N 
ATOM     29  O   UNL     1      -7.317  11.306  21.536  0.00  0.00    +0.000 OA
ATOM     30  H   UNL     1      -7.174  10.741  18.452  0.00  0.00    +0.000 HD
ATOM     31  H   UNL     1      -7.672   9.628  19.700  0.00  0.00    +0.000 HD
ENDBRANCH  26  27
ENDBRANCH  25  26
ENDBRANCH   2  25
TORSDOF 7
ENDMDL
MODEL 4
REMARK VINA RESULT:      -6.0      2.874      3.428
REMARK  Name = 
REMARK  10 active torsions:
REMARK  status: ('A' for Active; 'I' for Inactive)
REMARK    1  A    between atoms: C_1  and  O_2
REMARK    2  A    between atoms: O_2  and  C_3
REMARK    3  A    between atoms: C_4  and  C_5
REMARK    4  A    between atoms: C_5  and  O_6
REMARK    5  A    between atoms: O_6  and  C_7
REMARK    6  A    between atoms: C_14  and  C_15
REMARK    7  A    between atoms: C_16  and  N_17
REMARK    8  A    between atoms: N_17  and  C_18
REMARK    9  A    between atoms: C_18  and  C_19
REMARK   10  A    between atoms: N_27  and  C_28
REMARK                            x       y       z     vdW  Elec       q    Type
REMARK                         _______ _______ _______ _____ _____    ______ ____
ROOT
ATOM      1  C   UNL     1       2.331   4.589  18.827  0.00  0.00    +0.000 C 
ATOM      2  C   UNL     1       2.515   6.172  18.617  0.00  0.00    +0.000 C 
ATOM      3  C   UNL     1       4.022   6.342  18.612  0.00  0.00    +0.000 C 
ATOM      4  C   UNL     1       4.548   5.206  19.086  0.00  0.00    +0.000 C 
ATOM      5  C   UNL     1       5.788   4.768  18.381  0.00  0.00    +0.000 C 
ATOM      6  O   UNL     1       6.363   3.720  18.606  0.00  0.00    +0.000 OA
ATOM      7  C   UNL     1       6.247   5.630  17.259  0.00  0.00    +0.000 C 
ATOM      8  C   UNL     1       5.807   5.343  15.834  0.00  0.00    +0.000 C 
ATOM      9  C   UNL     1       6.302   6.924  17.609  0.00  0.00    +0.000 C 
ATOM     10  C   UNL     1       4.846   7.355  17.892  0.00  0.00    +0.000 C 
ATOM     11  O   UNL     1       4.371   8.403  17.480  0.00  0.00    +0.000 OA
ATOM     12  N   UNL     1       3.560   4.347  19.657  0.00  0.00    +0.000 N 
ATOM     13  C   UNL     1       3.782   2.905  19.734  0.00  0.00    +0.000 C 
ATOM     14  C   UNL     1       3.570   2.493  18.308  0.00  0.00    +0.000 C 
ATOM     15  C   UNL     1       2.601   3.537  17.712  0.00  0.00    +0.000 C 
ATOM     16  N   UNL     1       2.347   2.079  17.672  0.00  0.00    +0.000 NA
ATOM     17  C   UNL     1       1.476   1.377  18.596  0.00  0.00    +0.000 C 
ENDROOT
BRANCH   1  19
ATOM     18  C   UNL     1       1.276   4.027  20.867  0.00  0.00    +0.000 C 
ATOM     19  O   UNL     1       1.094   4.305  19.462  0.00  0.00    +0.000 OA
ENDBRANCH   1  19
BRANCH   9  20
ATOM     20  N   UNL     1       7.223   7.735  16.936  0.00  0.00    +0.000 N 
ATOM     21  H   UNL     1       7.957   7.144  16.532  0.00  0.00    +0.000 HD
BRANCH  20  22
ATOM     22  C   UNL     1       7.826   8.967  17.428  0.00  0.00    +0.000 C 
BRANCH  22  23
ATOM     23  C   UNL     1       8.650   8.792  18.706  0.00  0.00    +0.000 C 
ATOM     24 CL   UNL     1       9.416  10.319  19.230  0.00  0.00    +0.000 Cl
ENDBRANCH  22  23
ENDBRANCH  20  22
ENDBRANCH   9  20
BRANCH   2  25
ATOM     25  C   UNL     1       1.908   6.882  19.855  0.00  0.00    +0.000 C 
BRANCH  25  26
ATOM     26  O   UNL     1       1.734   8.294  19.696  0.00  0.00    +0.000 OA
BRANCH  26  27
ATOM     27  C   UNL     1       1.023   8.889  20.674  0.00  0.00    +0.000 C 
ATOM     28  N   UNL     1       1.588   8.618  21.872  0.00  0.00    +0.000 N 
ATOM     29  O   UNL     1      -0.016   9.518  20.540  0.00  0.00    +0.000 OA
ATOM     30  H   UNL     1       2.313   7.924  21.913  0.00  0.00    +0.000 HD
ATOM     31  H   UNL     1       1.079   8.869  22.706  0.00  0.00    +0.000 HD
ENDBRANCH  26  27
ENDBRANCH  25  26
ENDBRANCH   2  25
TORSDOF 7
ENDMDL
MODEL 5
REMARK VINA RESULT:      -6.0      6.193      9.843
REMARK  Name = 
REMARK  10 active torsions:
REMARK  status: ('A' for Active; 'I' for Inactive)
REMARK    1  A    between atoms: C_1  and  O_2
REMARK    2  A    between atoms: O_2  and  C_3
REMARK    3  A    between atoms: C_4  and  C_5
REMARK    4  A    between atoms: C_5  and  O_6
REMARK    5  A    between atoms: O_6  and  C_7
REMARK    6  A    between atoms: C_14  and  C_15
REMARK    7  A    between atoms: C_16  and  N_17
REMARK    8  A    between atoms: N_17  and  C_18
REMARK    9  A    between atoms: C_18  and  C_19
REMARK   10  A    between atoms: N_27  and  C_28
REMARK                            x       y       z     vdW  Elec       q    Type
REMARK                         _______ _______ _______ _____ _____    ______ ____
ROOT
ATOM      1  C   UNL     1      -3.837  13.045  21.213  0.00  0.00    +0.000 C 
ATOM      2  C   UNL     1      -4.048  12.120  19.915  0.00  0.00    +0.000 C 
ATOM      3  C   UNL     1      -2.659  12.059  19.311  0.00  0.00    +0.000 C 
ATOM      4  C   UNL     1      -1.933  13.019  19.896  0.00  0.00    +0.000 C 
ATOM      5  C   UNL     1      -0.526  12.620  20.195  0.00  0.00    +0.000 C 
ATOM      6  O   UNL     1       0.264  13.320  20.802  0.00  0.00    +0.000 OA
ATOM      7  C   UNL     1      -0.141  11.233  19.824  0.00  0.00    +0.000 C 
ATOM      8  C   UNL     1      -0.260  10.102  20.831  0.00  0.00    +0.000 C 
ATOM      9  C   UNL     1      -0.487  10.936  18.562  0.00  0.00    +0.000 C 
ATOM     10  C   UNL     1      -2.031  10.962  18.522  0.00  0.00    +0.000 C 
ATOM     11  O   UNL     1      -2.695  10.099  17.966  0.00  0.00    +0.000 OA
ATOM     12  N   UNL     1      -2.735  13.911  20.671  0.00  0.00    +0.000 N 
ATOM     13  C   UNL     1      -2.153  14.658  21.784  0.00  0.00    +0.000 C 
ATOM     14  C   UNL     1      -2.021  13.589  22.827  0.00  0.00    +0.000 C 
ATOM     15  C   UNL     1      -3.126  12.558  22.509  0.00  0.00    +0.000 C 
ATOM     16  N   UNL     1      -2.976  13.202  23.833  0.00  0.00    +0.000 NA
ATOM     17  C   UNL     1      -3.763  14.334  24.285  0.00  0.00    +0.000 C 
ENDROOT
BRANCH   1  19
ATOM     18  C   UNL     1      -6.026  12.804  22.076  0.00  0.00    +0.000 C 
ATOM     19  O   UNL     1      -5.039  13.720  21.553  0.00  0.00    +0.000 OA
ENDBRANCH   1  19
BRANCH   9  20
ATOM     20  N   UNL     1       0.281   9.975  17.892  0.00  0.00    +0.000 N 
ATOM     21  H   UNL     1      -0.204   9.073  17.931  0.00  0.00    +0.000 HD
BRANCH  20  22
ATOM     22  C   UNL     1       1.714   9.748  18.034  0.00  0.00    +0.000 C 
BRANCH  22  23
ATOM     23  C   UNL     1       2.124   8.276  17.949  0.00  0.00    +0.000 C 
ATOM     24 CL   UNL     1       2.218   7.507  19.559  0.00  0.00    +0.000 Cl
ENDBRANCH  22  23
ENDBRANCH  20  22
ENDBRANCH   9  20
BRANCH   2  25
ATOM     25  C   UNL     1      -5.008  12.872  18.957  0.00  0.00    +0.000 C 
BRANCH  25  26
ATOM     26  O   UNL     1      -5.684  12.025  18.020  0.00  0.00    +0.000 OA
BRANCH  26  27
ATOM     27  C   UNL     1      -6.597  11.197  18.564  0.00  0.00    +0.000 C 
ATOM     28  N   UNL     1      -7.677  11.910  18.956  0.00  0.00    +0.000 N 
ATOM     29  O   UNL     1      -6.470   9.997  18.756  0.00  0.00    +0.000 OA
ATOM     30  H   UNL     1      -7.615  12.912  18.955  0.00  0.00    +0.000 HD
ATOM     31  H   UNL     1      -8.375  11.447  19.518  0.00  0.00    +0.000 HD
ENDBRANCH  26  27
ENDBRANCH  25  26
ENDBRANCH   2  25
TORSDOF 7
ENDMDL
MODEL 6
REMARK VINA RESULT:      -6.0      2.806      3.260
REMARK  Name = 
REMARK  10 active torsions:
REMARK  status: ('A' for Active; 'I' for Inactive)
REMARK    1  A    between atoms: C_1  and  O_2
REMARK    2  A    between atoms: O_2  and  C_3
REMARK    3  A    between atoms: C_4  and  C_5
REMARK    4  A    between atoms: C_5  and  O_6
REMARK    5  A    between atoms: O_6  and  C_7
REMARK    6  A    between atoms: C_14  and  C_15
REMARK    7  A    between atoms: C_16  and  N_17
REMARK    8  A    between atoms: N_17  and  C_18
REMARK    9  A    between atoms: C_18  and  C_19
REMARK   10  A    between atoms: N_27  and  C_28
REMARK                            x       y       z     vdW  Elec       q    Type
REMARK                         _______ _______ _______ _____ _____    ______ ____
ROOT
ATOM      1  C   UNL     1       2.690   4.382  18.462  0.00  0.00    +0.000 C 
ATOM      2  C   UNL     1       2.847   5.778  17.678  0.00  0.00    +0.000 C 
ATOM      3  C   UNL     1       4.218   6.258  18.109  0.00  0.00    +0.000 C 
ATOM      4  C   UNL     1       4.581   5.521  19.164  0.00  0.00    +0.000 C 
ATOM      5  C   UNL     1       6.023   5.137  19.173  0.00  0.00    +0.000 C 
ATOM      6  O   UNL     1       6.524   4.397  20.000  0.00  0.00    +0.000 OA
ATOM      7  C   UNL     1       6.836   5.606  18.020  0.00  0.00    +0.000 C 
ATOM      8  C   UNL     1       7.015   4.728  16.793  0.00  0.00    +0.000 C 
ATOM      9  C   UNL     1       6.669   6.916  17.785  0.00  0.00    +0.000 C 
ATOM     10  C   UNL     1       5.196   7.091  17.353  0.00  0.00    +0.000 C 
ATOM     11  O   UNL     1       4.862   7.785  16.403  0.00  0.00    +0.000 OA
ATOM     12  N   UNL     1       3.501   4.737  19.676  0.00  0.00    +0.000 N 
ATOM     13  C   UNL     1       3.762   3.510  20.425  0.00  0.00    +0.000 C 
ATOM     14  C   UNL     1       4.159   2.568  19.328  0.00  0.00    +0.000 C 
ATOM     15  C   UNL     1       3.444   3.081  18.059  0.00  0.00    +0.000 C 
ATOM     16  N   UNL     1       3.315   1.693  18.555  0.00  0.00    +0.000 NA
ATOM     17  C   UNL     1       2.195   1.206  19.337  0.00  0.00    +0.000 C 
ENDROOT
BRANCH   1  19
ATOM     18  C   UNL     1       0.965   4.330  20.078  0.00  0.00    +0.000 C 
ATOM     19  O   UNL     1       1.323   4.088  18.700  0.00  0.00    +0.000 OA
ENDBRANCH   1  19
BRANCH   9  20
ATOM     20  N   UNL     1       7.730   7.605  17.186  0.00  0.00    +0.000 N 
ATOM     21  H   UNL     1       8.568   7.014  17.210  0.00  0.00    +0.000 HD
BRANCH  20  22
ATOM     22  C   UNL     1       8.121   8.988  17.426  0.00  0.00    +0.000 C 
BRANCH  22  23
ATOM     23  C   UNL     1       8.765   9.227  18.794  0.00  0.00    +0.000 C 
ATOM     24 CL   UNL     1       9.651  10.777  18.861  0.00  0.00    +0.000 Cl
ENDBRANCH  22  23
ENDBRANCH  20  22
ENDBRANCH   9  20
BRANCH   2  25
ATOM     25  C   UNL     1       1.756   6.740  18.217  0.00  0.00    +0.000 C 
BRANCH  25  26
ATOM     26  O   UNL     1       1.745   8.025  17.586  0.00  0.00    +0.000 OA
BRANCH  26  27
ATOM     27  C   UNL     1       1.650   9.069  18.433  0.00  0.00    +0.000 C 
ATOM     28  N   UNL     1       2.000  10.206  17.790  0.00  0.00    +0.000 N 
ATOM     29  O   UNL     1       1.369   9.020  19.621  0.00  0.00    +0.000 OA
ATOM     30  H   UNL     1       2.419  10.132  16.880  0.00  0.00    +0.000 HD
ATOM     31  H   UNL     1       2.124  11.044  18.338  0.00  0.00    +0.000 HD
ENDBRANCH  26  27
ENDBRANCH  25  26
ENDBRANCH   2  25
TORSDOF 7
ENDMDL
MODEL 7
REMARK VINA RESULT:      -5.9      8.523     10.976
REMARK  Name = 
REMARK  10 active torsions:
REMARK  status: ('A' for Active; 'I' for Inactive)
REMARK    1  A    between atoms: C_1  and  O_2
REMARK    2  A    between atoms: O_2  and  C_3
REMARK    3  A    between atoms: C_4  and  C_5
REMARK    4  A    between atoms: C_5  and  O_6
REMARK    5  A    between atoms: O_6  and  C_7
REMARK    6  A    between atoms: C_14  and  C_15
REMARK    7  A    between atoms: C_16  and  N_17
REMARK    8  A    between atoms: N_17  and  C_18
REMARK    9  A    between atoms: C_18  and  C_19
REMARK   10  A    between atoms: N_27  and  C_28
REMARK                            x       y       z     vdW  Elec       q    Type
REMARK                         _______ _______ _______ _____ _____    ______ ____
ROOT
ATOM      1  C   UNL     1      -5.334  12.542  20.184  0.00  0.00    +0.000 C 
ATOM      2  C   UNL     1      -4.194  11.727  19.396  0.00  0.00    +0.000 C 
ATOM      3  C   UNL     1      -2.919  12.430  19.819  0.00  0.00    +0.000 C 
ATOM      4  C   UNL     1      -3.277  13.586  20.389  0.00  0.00    +0.000 C 
ATOM      5  C   UNL     1      -2.466  13.951  21.587  0.00  0.00    +0.000 C 
ATOM      6  O   UNL     1      -2.693  14.917  22.293  0.00  0.00    +0.000 OA
ATOM      7  C   UNL     1      -1.404  12.988  21.982  0.00  0.00    +0.000 C 
ATOM      8  C   UNL     1      -1.691  11.895  22.997  0.00  0.00    +0.000 C 
ATOM      9  C   UNL     1      -0.631  12.637  20.943  0.00  0.00    +0.000 C 
ATOM     10  C   UNL     1      -1.546  11.867  19.967  0.00  0.00    +0.000 C 
ATOM     11  O   UNL     1      -1.211  10.823  19.426  0.00  0.00    +0.000 OA
ATOM     12  N   UNL     1      -4.659  13.885  20.189  0.00  0.00    +0.000 N 
ATOM     13  C   UNL     1      -5.376  14.752  21.122  0.00  0.00    +0.000 C 
ATOM     14  C   UNL     1      -5.562  13.838  22.297  0.00  0.00    +0.000 C 
ATOM     15  C   UNL     1      -5.584  12.408  21.714  0.00  0.00    +0.000 C 
ATOM     16  N   UNL     1      -6.662  12.951  22.571  0.00  0.00    +0.000 NA
ATOM     17  C   UNL     1      -7.914  13.483  22.069  0.00  0.00    +0.000 C 
ENDROOT
BRANCH   1  19
ATOM     18  C   UNL     1      -7.137  11.150  19.547  0.00  0.00    +0.000 C 
ATOM     19  O   UNL     1      -6.570  12.478  19.490  0.00  0.00    +0.000 OA
ENDBRANCH   1  19
BRANCH   9  20
ATOM     20  N   UNL     1       0.687  12.255  21.221  0.00  0.00    +0.000 N 
ATOM     21  H   UNL     1       0.802  12.162  22.235  0.00  0.00    +0.000 HD
BRANCH  20  22
ATOM     22  C   UNL     1       1.901  12.834  20.659  0.00  0.00    +0.000 C 
BRANCH  22  23
ATOM     23  C   UNL     1       1.703  13.499  19.295  0.00  0.00    +0.000 C 
ATOM     24 CL   UNL     1       2.541  12.615  17.987  0.00  0.00    +0.000 Cl
ENDBRANCH  22  23
ENDBRANCH  20  22
ENDBRANCH   9  20
BRANCH   2  25
ATOM     25  C   UNL     1      -4.434  11.937  17.878  0.00  0.00    +0.000 C 
BRANCH  25  26
ATOM     26  O   UNL     1      -4.182  10.776  17.078  0.00  0.00    +0.000 OA
BRANCH  26  27
ATOM     27  C   UNL     1      -3.347  10.976  16.040  0.00  0.00    +0.000 C 
ATOM     28  N   UNL     1      -2.242  11.626  16.467  0.00  0.00    +0.000 N 
ATOM     29  O   UNL     1      -3.559  10.694  14.869  0.00  0.00    +0.000 OA
ATOM     30  H   UNL     1      -2.240  12.006  17.397  0.00  0.00    +0.000 HD
ATOM     31  H   UNL     1      -1.598  11.979  15.775  0.00  0.00    +0.000 HD
ENDBRANCH  26  27
ENDBRANCH  25  26
ENDBRANCH   2  25
TORSDOF 7
ENDMDL
MODEL 8
REMARK VINA RESULT:      -5.9      9.394     11.094
REMARK  Name = 
REMARK  10 active torsions:
REMARK  status: ('A' for Active; 'I' for Inactive)
REMARK    1  A    between atoms: C_1  and  O_2
REMARK    2  A    between atoms: O_2  and  C_3
REMARK    3  A    between atoms: C_4  and  C_5
REMARK    4  A    between atoms: C_5  and  O_6
REMARK    5  A    between atoms: O_6  and  C_7
REMARK    6  A    between atoms: C_14  and  C_15
REMARK    7  A    between atoms: C_16  and  N_17
REMARK    8  A    between atoms: N_17  and  C_18
REMARK    9  A    between atoms: C_18  and  C_19
REMARK   10  A    between atoms: N_27  and  C_28
REMARK                            x       y       z     vdW  Elec       q    Type
REMARK                         _______ _______ _______ _____ _____    ______ ____
ROOT
ATOM      1  C   UNL     1      10.241  15.547  21.239  0.00  0.00    +0.000 C 
ATOM      2  C   UNL     1       9.702  14.148  21.820  0.00  0.00    +0.000 C 
ATOM      3  C   UNL     1       9.306  13.389  20.569  0.00  0.00    +0.000 C 
ATOM      4  C   UNL     1       9.266  14.275  19.567  0.00  0.00    +0.000 C 
ATOM      5  C   UNL     1       9.803  13.758  18.274  0.00  0.00    +0.000 C 
ATOM      6  O   UNL     1       9.932  14.437  17.272  0.00  0.00    +0.000 OA
ATOM      7  C   UNL     1      10.314  12.362  18.285  0.00  0.00    +0.000 C 
ATOM      8  C   UNL     1      11.781  12.078  18.556  0.00  0.00    +0.000 C 
ATOM      9  C   UNL     1       9.438  11.509  18.839  0.00  0.00    +0.000 C 
ATOM     10  C   UNL     1       9.320  11.919  20.324  0.00  0.00    +0.000 C 
ATOM     11  O   UNL     1       9.333  11.108  21.239  0.00  0.00    +0.000 OA
ATOM     12  N   UNL     1       9.350  15.624  20.030  0.00  0.00    +0.000 N 
ATOM     13  C   UNL     1       9.856  16.681  19.157  0.00  0.00    +0.000 C 
ATOM     14  C   UNL     1      11.329  16.399  19.168  0.00  0.00    +0.000 C 
ATOM     15  C   UNL     1      11.612  15.709  20.520  0.00  0.00    +0.000 C 
ATOM     16  N   UNL     1      12.330  16.919  20.062  0.00  0.00    +0.000 NA
ATOM     17  C   UNL     1      12.012  18.268  20.491  0.00  0.00    +0.000 C 
ENDROOT
BRANCH   1  19
ATOM     18  C   UNL     1      10.953  16.405  23.324  0.00  0.00    +0.000 C 
ATOM     19  O   UNL     1      10.076  16.586  22.191  0.00  0.00    +0.000 OA
ENDBRANCH   1  19
BRANCH   9  20
ATOM     20  N   UNL     1       9.478  10.177  18.413  0.00  0.00    +0.000 N 
ATOM     21  H   UNL     1       9.673  10.152  17.407  0.00  0.00    +0.000 HD
BRANCH  20  22
ATOM     22  C   UNL     1       8.517   9.128  18.733  0.00  0.00    +0.000 C 
BRANCH  22  23
ATOM     23  C   UNL     1       7.721   8.622  17.527  0.00  0.00    +0.000 C 
ATOM     24 CL   UNL     1       7.553   6.843  17.528  0.00  0.00    +0.000 Cl
ENDBRANCH  22  23
ENDBRANCH  20  22
ENDBRANCH   9  20
BRANCH   2  25
ATOM     25  C   UNL     1       8.444  14.451  22.675  0.00  0.00    +0.000 C 
BRANCH  25  26
ATOM     26  O   UNL     1       8.356  13.685  23.881  0.00  0.00    +0.000 OA
BRANCH  26  27
ATOM     27  C   UNL     1       7.745  12.491  23.749  0.00  0.00    +0.000 C 
ATOM     28  N   UNL     1       8.593  11.506  24.118  0.00  0.00    +0.000 N 
ATOM     29  O   UNL     1       6.626  12.291  23.298  0.00  0.00    +0.000 OA
ATOM     30  H   UNL     1       9.558  11.738  24.274  0.00  0.00    +0.000 HD
ATOM     31  H   UNL     1       8.328  10.552  23.927  0.00  0.00    +0.000 HD
ENDBRANCH  26  27
ENDBRANCH  25  26
ENDBRANCH   2  25
TORSDOF 7
ENDMDL
MODEL 9
REMARK VINA RESULT:      -5.9      8.776     10.593
REMARK  Name = 
REMARK  10 active torsions:
REMARK  status: ('A' for Active; 'I' for Inactive)
REMARK    1  A    between atoms: C_1  and  O_2
REMARK    2  A    between atoms: O_2  and  C_3
REMARK    3  A    between atoms: C_4  and  C_5
REMARK    4  A    between atoms: C_5  and  O_6
REMARK    5  A    between atoms: O_6  and  C_7
REMARK    6  A    between atoms: C_14  and  C_15
REMARK    7  A    between atoms: C_16  and  N_17
REMARK    8  A    between atoms: N_17  and  C_18
REMARK    9  A    between atoms: C_18  and  C_19
REMARK   10  A    between atoms: N_27  and  C_28
REMARK                            x       y       z     vdW  Elec       q    Type
REMARK                         _______ _______ _______ _____ _____    ______ ____
ROOT
ATOM      1  C   UNL     1      10.071  15.467  20.018  0.00  0.00    +0.000 C 
ATOM      2  C   UNL     1      10.034  14.219  21.031  0.00  0.00    +0.000 C 
ATOM      3  C   UNL     1       9.244  13.179  20.262  0.00  0.00    +0.000 C 
ATOM      4  C   UNL     1       8.653  13.810  19.240  0.00  0.00    +0.000 C 
ATOM      5  C   UNL     1       8.643  13.031  17.967  0.00  0.00    +0.000 C 
ATOM      6  O   UNL     1       8.232  13.466  16.907  0.00  0.00    +0.000 OA
ATOM      7  C   UNL     1       9.295  11.695  18.007  0.00  0.00    +0.000 C 
ATOM      8  C   UNL     1      10.759  11.537  17.634  0.00  0.00    +0.000 C 
ATOM      9  C   UNL     1       8.871  10.959  19.047  0.00  0.00    +0.000 C 
ATOM     10  C   UNL     1       9.352  11.693  20.317  0.00  0.00    +0.000 C 
ATOM     11  O   UNL     1       9.870  11.115  21.262  0.00  0.00    +0.000 OA
ATOM     12  N   UNL     1       8.744  15.231  19.353  0.00  0.00    +0.000 N 
ATOM     13  C   UNL     1       8.673  16.078  18.164  0.00  0.00    +0.000 C 
ATOM     14  C   UNL     1      10.028  15.862  17.560  0.00  0.00    +0.000 C 
ATOM     15  C   UNL     1      10.960  15.512  18.741  0.00  0.00    +0.000 C 
ATOM     16  N   UNL     1      11.236  16.611  17.790  0.00  0.00    +0.000 NA
ATOM     17  C   UNL     1      10.954  18.010  18.054  0.00  0.00    +0.000 C 
ENDROOT
BRANCH   1  19
ATOM     18  C   UNL     1      11.508  16.829  21.311  0.00  0.00    +0.000 C 
ATOM     19  O   UNL     1      10.194  16.690  20.728  0.00  0.00    +0.000 OA
ENDBRANCH   1  19
BRANCH   9  20
ATOM     20  N   UNL     1       8.904   9.567  18.907  0.00  0.00    +0.000 N 
ATOM     21  H   UNL     1       9.878   9.249  18.956  0.00  0.00    +0.000 HD
BRANCH  20  22
ATOM     22  C   UNL     1       8.197   8.771  17.911  0.00  0.00    +0.000 C 
BRANCH  22  23
ATOM     23  C   UNL     1       8.012   7.303  18.302  0.00  0.00    +0.000 C 
ATOM     24 CL   UNL     1       6.675   6.529  17.404  0.00  0.00    +0.000 Cl
ENDBRANCH  22  23
ENDBRANCH  20  22
ENDBRANCH   9  20
BRANCH   2  25
ATOM     25  C   UNL     1       9.241  14.661  22.288  0.00  0.00    +0.000 C 
BRANCH  25  26
ATOM     26  O   UNL     1       8.816  13.579  23.124  0.00  0.00    +0.000 OA
BRANCH  26  27
ATOM     27  C   UNL     1       7.497  13.305  23.066  0.00  0.00    +0.000 C 
ATOM     28  N   UNL     1       7.307  11.972  23.182  0.00  0.00    +0.000 N 
ATOM     29  O   UNL     1       6.595  14.104  22.865  0.00  0.00    +0.000 OA
ATOM     30  H   UNL     1       8.108  11.368  23.132  0.00  0.00    +0.000 HD
ATOM     31  H   UNL     1       6.385  11.604  23.002  0.00  0.00    +0.000 HD
ENDBRANCH  26  27
ENDBRANCH  25  26
ENDBRANCH   2  25
TORSDOF 7
ENDMDL
