MODEL 1
REMARK VINA RESULT:      -7.2      0.000      0.000
REMARK  Name = 
REMARK  4 active torsions:
REMARK  status: ('A' for Active; 'I' for Inactive)
REMARK    1  A    between atoms: C_1  and  C_2
REMARK    2  A    between atoms: C_2  and  C_3
REMARK    3  A    between atoms: C_3  and  O_4
REMARK    4  A    between atoms: O_4  and  C_5
REMARK                            x       y       z     vdW  Elec       q    Type
REMARK                         _______ _______ _______ _____ _____    ______ ____
ROOT
ATOM      1  C   UNL     1       5.346   5.190  15.852  0.00  0.00    +0.000 A 
ATOM      2  N   UNL     1       5.043   3.973  16.151  0.00  0.00    +0.000 NA
ATOM      3  C   UNL     1       4.217   3.867  17.212  0.00  0.00    +0.000 A 
ATOM      4  S   UNL     1       3.764   2.354  17.845  0.00  0.00    +0.000 S 
ATOM      5  C   UNL     1       2.773   3.087  19.019  0.00  0.00    +0.000 A 
ATOM      6  C   UNL     1       2.756   4.469  18.922  0.00  0.00    +0.000 A 
ATOM      7  C   UNL     1       3.649   4.913  17.891  0.00  0.00    +0.000 A 
ATOM      8  C   UNL     1       4.028   6.246  17.470  0.00  0.00    +0.000 A 
ATOM      9  O   UNL     1       3.561   7.254  17.993  0.00  0.00    +0.000 OA
ATOM     10  O   UNL     1       4.941   6.333  16.460  0.00  0.00    +0.000 OA
ATOM     11  C   UNL     1       1.916   5.314  19.838  0.00  0.00    +0.000 C 
ATOM     12  C   UNL     1       0.851   4.470  20.565  0.00  0.00    +0.000 C 
ATOM     13  C   UNL     1       1.453   3.173  21.126  0.00  0.00    +0.000 C 
ATOM     14  C   UNL     1       1.987   2.275  20.000  0.00  0.00    +0.000 C 
ENDROOT
BRANCH   1  15
ATOM     15  O   UNL     1       6.147   5.504  14.800  0.00  0.00    +0.000 OA
BRANCH  15  16
ATOM     16  C   UNL     1       6.746   4.390  14.117  0.00  0.00    +0.000 C 
BRANCH  16  18
ATOM     17  C   UNL     1       6.446   3.110  11.960  0.00  0.00    +0.000 C 
ATOM     18  C   UNL     1       5.758   3.881  13.073  0.00  0.00    +0.000 C 
ENDBRANCH  16  18
ENDBRANCH  15  16
ENDBRANCH   1  15
TORSDOF 3
ENDMDL
MODEL 2
REMARK VINA RESULT:      -7.2      2.805      4.074
REMARK  Name = 
REMARK  4 active torsions:
REMARK  status: ('A' for Active; 'I' for Inactive)
REMARK    1  A    between atoms: C_1  and  C_2
REMARK    2  A    between atoms: C_2  and  C_3
REMARK    3  A    between atoms: C_3  and  O_4
REMARK    4  A    between atoms: O_4  and  C_5
REMARK                            x       y       z     vdW  Elec       q    Type
REMARK                         _______ _______ _______ _____ _____    ______ ____
ROOT
ATOM      1  C   UNL     1       5.874   6.740  17.061  0.00  0.00    +0.000 A 
ATOM      2  N   UNL     1       4.983   7.005  17.956  0.00  0.00    +0.000 NA
ATOM      3  C   UNL     1       4.116   5.996  18.172  0.00  0.00    +0.000 A 
ATOM      4  S   UNL     1       2.800   6.159  19.238  0.00  0.00    +0.000 S 
ATOM      5  C   UNL     1       2.314   4.551  18.962  0.00  0.00    +0.000 A 
ATOM      6  C   UNL     1       3.154   3.877  18.092  0.00  0.00    +0.000 A 
ATOM      7  C   UNL     1       4.176   4.753  17.596  0.00  0.00    +0.000 A 
ATOM      8  C   UNL     1       5.224   4.536  16.620  0.00  0.00    +0.000 A 
ATOM      9  O   UNL     1       5.384   3.455  16.062  0.00  0.00    +0.000 OA
ATOM     10  O   UNL     1       6.031   5.601  16.341  0.00  0.00    +0.000 OA
ATOM     11  C   UNL     1       2.930   2.433  17.738  0.00  0.00    +0.000 C 
ATOM     12  C   UNL     1       1.957   1.756  18.723  0.00  0.00    +0.000 C 
ATOM     13  C   UNL     1       0.725   2.636  18.986  0.00  0.00    +0.000 C 
ATOM     14  C   UNL     1       1.122   3.963  19.650  0.00  0.00    +0.000 C 
ENDROOT
BRANCH   1  15
ATOM     15  O   UNL     1       6.850   7.622  16.721  0.00  0.00    +0.000 OA
BRANCH  15  16
ATOM     16  C   UNL     1       7.827   7.894  17.739  0.00  0.00    +0.000 C 
BRANCH  16  18
ATOM     17  C   UNL     1       9.037   9.797  18.877  0.00  0.00    +0.000 C 
ATOM     18  C   UNL     1       8.092   9.396  17.757  0.00  0.00    +0.000 C 
ENDBRANCH  16  18
ENDBRANCH  15  16
ENDBRANCH   1  15
TORSDOF 3
ENDMDL
MODEL 3
REMARK VINA RESULT:      -7.0      4.067      5.232
REMARK  Name = 
REMARK  4 active torsions:
REMARK  status: ('A' for Active; 'I' for Inactive)
REMARK    1  A    between atoms: C_1  and  C_2
REMARK    2  A    between atoms: C_2  and  C_3
REMARK    3  A    between atoms: C_3  and  O_4
REMARK    4  A    between atoms: O_4  and  C_5
REMARK                            x       y       z     vdW  Elec       q    Type
REMARK                         _______ _______ _______ _____ _____    ______ ____
ROOT
ATOM      1  C   UNL     1       7.702   7.668  17.727  0.00  0.00    +0.000 A 
ATOM      2  N   UNL     1       6.714   7.436  16.931  0.00  0.00    +0.000 NA
ATOM      3  C   UNL     1       6.018   6.324  17.244  0.00  0.00    +0.000 A 
ATOM      4  S   UNL     1       4.734   5.770  16.274  0.00  0.00    +0.000 S 
ATOM      5  C   UNL     1       4.430   4.472  17.332  0.00  0.00    +0.000 A 
ATOM      6  C   UNL     1       5.272   4.466  18.432  0.00  0.00    +0.000 A 
ATOM      7  C   UNL     1       6.232   5.528  18.339  0.00  0.00    +0.000 A 
ATOM      8  C   UNL     1       7.348   5.879  19.192  0.00  0.00    +0.000 A 
ATOM      9  O   UNL     1       7.615   5.249  20.211  0.00  0.00    +0.000 OA
ATOM     10  O   UNL     1       8.102   6.948  18.805  0.00  0.00    +0.000 OA
ATOM     11  C   UNL     1       5.152   3.427  19.512  0.00  0.00    +0.000 C 
ATOM     12  C   UNL     1       3.805   2.683  19.431  0.00  0.00    +0.000 C 
ATOM     13  C   UNL     1       3.482   2.267  17.988  0.00  0.00    +0.000 C 
ATOM     14  C   UNL     1       3.326   3.494  17.078  0.00  0.00    +0.000 C 
ENDROOT
BRANCH   1  15
ATOM     15  O   UNL     1       8.507   8.754  17.591  0.00  0.00    +0.000 OA
BRANCH  15  16
ATOM     16  C   UNL     1       8.796   9.472  18.803  0.00  0.00    +0.000 C 
BRANCH  16  18
ATOM     17  C   UNL     1      10.282  11.356  19.592  0.00  0.00    +0.000 C 
ATOM     18  C   UNL     1       9.492  10.777  18.431  0.00  0.00    +0.000 C 
ENDBRANCH  16  18
ENDBRANCH  15  16
ENDBRANCH   1  15
TORSDOF 3
ENDMDL
MODEL 4
REMARK VINA RESULT:      -6.9      1.602      1.673
REMARK  Name = 
REMARK  4 active torsions:
REMARK  status: ('A' for Active; 'I' for Inactive)
REMARK    1  A    between atoms: C_1  and  C_2
REMARK    2  A    between atoms: C_2  and  C_3
REMARK    3  A    between atoms: C_3  and  O_4
REMARK    4  A    between atoms: O_4  and  C_5
REMARK                            x       y       z     vdW  Elec       q    Type
REMARK                         _______ _______ _______ _____ _____    ______ ____
ROOT
ATOM      1  C   UNL     1       6.321   4.230  16.414  0.00  0.00    +0.000 A 
ATOM      2  N   UNL     1       5.173   3.733  16.099  0.00  0.00    +0.000 NA
ATOM      3  C   UNL     1       4.316   3.653  17.137  0.00  0.00    +0.000 A 
ATOM      4  S   UNL     1       2.779   2.940  16.975  0.00  0.00    +0.000 S 
ATOM      5  C   UNL     1       2.397   3.279  18.599  0.00  0.00    +0.000 A 
ATOM      6  C   UNL     1       3.409   3.954  19.260  0.00  0.00    +0.000 A 
ATOM      7  C   UNL     1       4.549   4.119  18.404  0.00  0.00    +0.000 A 
ATOM      8  C   UNL     1       5.858   4.685  18.661  0.00  0.00    +0.000 A 
ATOM      9  O   UNL     1       6.164   5.153  19.754  0.00  0.00    +0.000 OA
ATOM     10  O   UNL     1       6.746   4.667  17.626  0.00  0.00    +0.000 OA
ATOM     11  C   UNL     1       3.265   4.384  20.693  0.00  0.00    +0.000 C 
ATOM     12  C   UNL     1       1.795   4.336  21.151  0.00  0.00    +0.000 C 
ATOM     13  C   UNL     1       1.117   3.028  20.718  0.00  0.00    +0.000 C 
ATOM     14  C   UNL     1       1.072   2.906  19.187  0.00  0.00    +0.000 C 
ENDROOT
BRANCH   1  15
ATOM     15  O   UNL     1       7.310   4.415  15.501  0.00  0.00    +0.000 OA
BRANCH  15  16
ATOM     16  C   UNL     1       6.974   5.243  14.375  0.00  0.00    +0.000 C 
BRANCH  16  18
ATOM     17  C   UNL     1       6.143   3.531  12.714  0.00  0.00    +0.000 C 
ATOM     18  C   UNL     1       7.278   4.463  13.100  0.00  0.00    +0.000 C 
ENDBRANCH  16  18
ENDBRANCH  15  16
ENDBRANCH   1  15
TORSDOF 3
ENDMDL
MODEL 5
REMARK VINA RESULT:      -6.7      2.059      2.679
REMARK  Name = 
REMARK  4 active torsions:
REMARK  status: ('A' for Active; 'I' for Inactive)
REMARK    1  A    between atoms: C_1  and  C_2
REMARK    2  A    between atoms: C_2  and  C_3
REMARK    3  A    between atoms: C_3  and  O_4
REMARK    4  A    between atoms: O_4  and  C_5
REMARK                            x       y       z     vdW  Elec       q    Type
REMARK                         _______ _______ _______ _____ _____    ______ ____
ROOT
ATOM      1  C   UNL     1       5.564   5.337  15.356  0.00  0.00    +0.000 A 
ATOM      2  N   UNL     1       5.187   6.463  15.860  0.00  0.00    +0.000 NA
ATOM      3  C   UNL     1       4.378   6.333  16.930  0.00  0.00    +0.000 A 
ATOM      4  S   UNL     1       3.681   7.685  17.695  0.00  0.00    +0.000 S 
ATOM      5  C   UNL     1       2.925   6.698  18.858  0.00  0.00    +0.000 A 
ATOM      6  C   UNL     1       3.215   5.354  18.694  0.00  0.00    +0.000 A 
ATOM      7  C   UNL     1       4.026   5.151  17.528  0.00  0.00    +0.000 A 
ATOM      8  C   UNL     1       4.515   3.936  16.908  0.00  0.00    +0.000 A 
ATOM      9  O   UNL     1       4.280   2.825  17.374  0.00  0.00    +0.000 OA
ATOM     10  O   UNL     1       5.250   4.083  15.769  0.00  0.00    +0.000 OA
ATOM     11  C   UNL     1       2.680   4.311  19.635  0.00  0.00    +0.000 C 
ATOM     12  C   UNL     1       2.149   4.944  20.935  0.00  0.00    +0.000 C 
ATOM     13  C   UNL     1       1.273   6.172  20.643  0.00  0.00    +0.000 C 
ATOM     14  C   UNL     1       2.082   7.279  19.949  0.00  0.00    +0.000 C 
ENDROOT
BRANCH   1  15
ATOM     15  O   UNL     1       6.401   5.259  14.289  0.00  0.00    +0.000 OA
BRANCH  15  16
ATOM     16  C   UNL     1       6.631   3.938  13.772  0.00  0.00    +0.000 C 
BRANCH  16  18
ATOM     17  C   UNL     1       5.137   3.149  11.894  0.00  0.00    +0.000 C 
ATOM     18  C   UNL     1       6.365   3.960  12.270  0.00  0.00    +0.000 C 
ENDBRANCH  16  18
ENDBRANCH  15  16
ENDBRANCH   1  15
TORSDOF 3
ENDMDL
MODEL 6
REMARK VINA RESULT:      -6.6      3.023      4.028
REMARK  Name = 
REMARK  4 active torsions:
REMARK  status: ('A' for Active; 'I' for Inactive)
REMARK    1  A    between atoms: C_1  and  C_2
REMARK    2  A    between atoms: C_2  and  C_3
REMARK    3  A    between atoms: C_3  and  O_4
REMARK    4  A    between atoms: O_4  and  C_5
REMARK                            x       y       z     vdW  Elec       q    Type
REMARK                         _______ _______ _______ _____ _____    ______ ____
ROOT
ATOM      1  C   UNL     1       5.791   6.847  17.477  0.00  0.00    +0.000 A 
ATOM      2  N   UNL     1       4.533   7.108  17.595  0.00  0.00    +0.000 NA
ATOM      3  C   UNL     1       3.850   6.176  18.289  0.00  0.00    +0.000 A 
ATOM      4  S   UNL     1       2.162   6.264  18.485  0.00  0.00    +0.000 S 
ATOM      5  C   UNL     1       2.149   4.852  19.435  0.00  0.00    +0.000 A 
ATOM      6  C   UNL     1       3.414   4.325  19.633  0.00  0.00    +0.000 A 
ATOM      7  C   UNL     1       4.395   5.083  18.911  0.00  0.00    +0.000 A 
ATOM      8  C   UNL     1       5.820   4.882  18.745  0.00  0.00    +0.000 A 
ATOM      9  O   UNL     1       6.415   3.949  19.278  0.00  0.00    +0.000 OA
ATOM     10  O   UNL     1       6.478   5.780  17.957  0.00  0.00    +0.000 OA
ATOM     11  C   UNL     1       3.636   3.099  20.474  0.00  0.00    +0.000 C 
ATOM     12  C   UNL     1       2.406   2.784  21.347  0.00  0.00    +0.000 C 
ATOM     13  C   UNL     1       1.105   2.879  20.535  0.00  0.00    +0.000 C 
ATOM     14  C   UNL     1       0.880   4.305  20.011  0.00  0.00    +0.000 C 
ENDROOT
BRANCH   1  15
ATOM     15  O   UNL     1       6.650   7.678  16.832  0.00  0.00    +0.000 OA
BRANCH  15  16
ATOM     16  C   UNL     1       7.895   7.931  17.504  0.00  0.00    +0.000 C 
BRANCH  16  18
ATOM     17  C   UNL     1       9.005   9.739  18.875  0.00  0.00    +0.000 C 
ATOM     18  C   UNL     1       7.990   9.426  17.790  0.00  0.00    +0.000 C 
ENDBRANCH  16  18
ENDBRANCH  15  16
ENDBRANCH   1  15
TORSDOF 3
ENDMDL
MODEL 7
REMARK VINA RESULT:      -6.5      1.791      2.478
REMARK  Name = 
REMARK  4 active torsions:
REMARK  status: ('A' for Active; 'I' for Inactive)
REMARK    1  A    between atoms: C_1  and  C_2
REMARK    2  A    between atoms: C_2  and  C_3
REMARK    3  A    between atoms: C_3  and  O_4
REMARK    4  A    between atoms: O_4  and  C_5
REMARK                            x       y       z     vdW  Elec       q    Type
REMARK                         _______ _______ _______ _____ _____    ______ ____
ROOT
ATOM      1  C   UNL     1       5.561   4.137  15.638  0.00  0.00    +0.000 A 
ATOM      2  N   UNL     1       4.946   3.643  16.659  0.00  0.00    +0.000 NA
ATOM      3  C   UNL     1       4.273   4.562  17.381  0.00  0.00    +0.000 A 
ATOM      4  S   UNL     1       3.470   4.153  18.825  0.00  0.00    +0.000 S 
ATOM      5  C   UNL     1       2.908   5.748  19.021  0.00  0.00    +0.000 A 
ATOM      6  C   UNL     1       3.296   6.586  17.990  0.00  0.00    +0.000 A 
ATOM      7  C   UNL     1       4.140   5.889  17.063  0.00  0.00    +0.000 A 
ATOM      8  C   UNL     1       4.844   6.350  15.884  0.00  0.00    +0.000 A 
ATOM      9  O   UNL     1       4.775   7.513  15.495  0.00  0.00    +0.000 OA
ATOM     10  O   UNL     1       5.602   5.428  15.223  0.00  0.00    +0.000 OA
ATOM     11  C   UNL     1       2.877   8.029  17.946  0.00  0.00    +0.000 C 
ATOM     12  C   UNL     1       1.711   8.307  18.914  0.00  0.00    +0.000 C 
ATOM     13  C   UNL     1       1.962   7.669  20.288  0.00  0.00    +0.000 C 
ATOM     14  C   UNL     1       2.049   6.139  20.183  0.00  0.00    +0.000 C 
ENDROOT
BRANCH   1  15
ATOM     15  O   UNL     1       6.274   3.367  14.775  0.00  0.00    +0.000 OA
BRANCH  15  16
ATOM     16  C   UNL     1       6.591   3.976  13.512  0.00  0.00    +0.000 C 
BRANCH  16  18
ATOM     17  C   UNL     1       4.697   3.504  11.909  0.00  0.00    +0.000 C 
ATOM     18  C   UNL     1       6.067   3.073  12.401  0.00  0.00    +0.000 C 
ENDBRANCH  16  18
ENDBRANCH  15  16
ENDBRANCH   1  15
TORSDOF 3
ENDMDL
MODEL 8
REMARK VINA RESULT:      -6.5      1.742      2.377
REMARK  Name = 
REMARK  4 active torsions:
REMARK  status: ('A' for Active; 'I' for Inactive)
REMARK    1  A    between atoms: C_1  and  C_2
REMARK    2  A    between atoms: C_2  and  C_3
REMARK    3  A    between atoms: C_3  and  O_4
REMARK    4  A    between atoms: O_4  and  C_5
REMARK                            x       y       z     vdW  Elec       q    Type
REMARK                         _______ _______ _______ _____ _____    ______ ____
ROOT
ATOM      1  C   UNL     1       5.419   5.502  15.742  0.00  0.00    +0.000 A 
ATOM      2  N   UNL     1       4.838   6.382  16.486  0.00  0.00    +0.000 NA
ATOM      3  C   UNL     1       4.045   5.848  17.436  0.00  0.00    +0.000 A 
ATOM      4  S   UNL     1       3.105   6.821  18.468  0.00  0.00    +0.000 S 
ATOM      5  C   UNL     1       2.516   5.457  19.298  0.00  0.00    +0.000 A 
ATOM      6  C   UNL     1       3.044   4.268  18.824  0.00  0.00    +0.000 A 
ATOM      7  C   UNL     1       3.899   4.510  17.697  0.00  0.00    +0.000 A 
ATOM      8  C   UNL     1       4.609   3.595  16.827  0.00  0.00    +0.000 A 
ATOM      9  O   UNL     1       4.567   2.378  16.986  0.00  0.00    +0.000 OA
ATOM     10  O   UNL     1       5.327   4.150  15.809  0.00  0.00    +0.000 OA
ATOM     11  C   UNL     1       2.687   2.945  19.439  0.00  0.00    +0.000 C 
ATOM     12  C   UNL     1       2.028   3.125  20.820  0.00  0.00    +0.000 C 
ATOM     13  C   UNL     1       0.952   4.221  20.788  0.00  0.00    +0.000 C 
ATOM     14  C   UNL     1       1.563   5.588  20.445  0.00  0.00    +0.000 C 
ENDROOT
BRANCH   1  15
ATOM     15  O   UNL     1       6.276   5.842  14.744  0.00  0.00    +0.000 OA
BRANCH  15  16
ATOM     16  C   UNL     1       7.182   4.810  14.321  0.00  0.00    +0.000 C 
BRANCH  16  18
ATOM     17  C   UNL     1       6.234   3.463  12.406  0.00  0.00    +0.000 C 
ATOM     18  C   UNL     1       7.070   4.666  12.807  0.00  0.00    +0.000 C 
ENDBRANCH  16  18
ENDBRANCH  15  16
ENDBRANCH   1  15
TORSDOF 3
ENDMDL
MODEL 9
REMARK VINA RESULT:      -6.4      3.335      4.636
REMARK  Name = 
REMARK  4 active torsions:
REMARK  status: ('A' for Active; 'I' for Inactive)
REMARK    1  A    between atoms: C_1  and  C_2
REMARK    2  A    between atoms: C_2  and  C_3
REMARK    3  A    between atoms: C_3  and  O_4
REMARK    4  A    between atoms: O_4  and  C_5
REMARK                            x       y       z     vdW  Elec       q    Type
REMARK                         _______ _______ _______ _____ _____    ______ ____
ROOT
ATOM      1  C   UNL     1       4.202   5.152  17.991  0.00  0.00    +0.000 A 
ATOM      2  N   UNL     1       3.944   6.321  17.512  0.00  0.00    +0.000 NA
ATOM      3  C   UNL     1       3.078   7.034  18.260  0.00  0.00    +0.000 A 
ATOM      4  S   UNL     1       2.519   8.564  17.769  0.00  0.00    +0.000 S 
ATOM      5  C   UNL     1       1.598   8.737  19.190  0.00  0.00    +0.000 A 
ATOM      6  C   UNL     1       1.728   7.661  20.051  0.00  0.00    +0.000 A 
ATOM      7  C   UNL     1       2.559   6.646  19.468  0.00  0.00    +0.000 A 
ATOM      8  C   UNL     1       2.922   5.326  19.941  0.00  0.00    +0.000 A 
ATOM      9  O   UNL     1       2.533   4.889  21.021  0.00  0.00    +0.000 OA
ATOM     10  O   UNL     1       3.719   4.580  19.123  0.00  0.00    +0.000 OA
ATOM     11  C   UNL     1       1.029   7.624  21.381  0.00  0.00    +0.000 C 
ATOM     12  C   UNL     1       0.523   9.021  21.790  0.00  0.00    +0.000 C 
ATOM     13  C   UNL     1      -0.183   9.725  20.621  0.00  0.00    +0.000 C 
ATOM     14  C   UNL     1       0.785   9.966  19.452  0.00  0.00    +0.000 C 
ENDROOT
BRANCH   1  15
ATOM     15  O   UNL     1       5.069   4.294  17.393  0.00  0.00    +0.000 OA
BRANCH  15  16
ATOM     16  C   UNL     1       6.208   4.899  16.759  0.00  0.00    +0.000 C 
BRANCH  16  18
ATOM     17  C   UNL     1       7.667   5.743  18.641  0.00  0.00    +0.000 C 
ATOM     18  C   UNL     1       7.434   4.636  17.627  0.00  0.00    +0.000 C 
ENDBRANCH  16  18
ENDBRANCH  15  16
ENDBRANCH   1  15
TORSDOF 3
ENDMDL
