MODEL 1
REMARK VINA RESULT:      -8.5      0.000      0.000
REMARK  Name = 
REMARK  4 active torsions:
REMARK  status: ('A' for Active; 'I' for Inactive)
REMARK    1  A    between atoms: C_2  and  C_15
REMARK    2  A    between atoms: N_3  and  C_4
REMARK    3  A    between atoms: C_8  and  O_9
REMARK    4  A    between atoms: O_9  and  C_10
REMARK                            x       y       z     vdW  Elec       q    Type
REMARK                         _______ _______ _______ _____ _____    ______ ____
ROOT
ATOM      1  O   UNL     1       2.855   8.515  17.868  0.00  0.00    +0.000 OA
ATOM      2  C   UNL     1       2.104   8.181  18.795  0.00  0.00    +0.000 C 
ATOM      3  N   UNL     1       2.272   6.948  19.418  0.00  0.00    +0.000 N 
ATOM      4  H   UNL     1       1.854   6.792  20.322  0.00  0.00    +0.000 HD
ENDROOT
BRANCH   2   5
ATOM      5  C   UNL     1       0.942   9.145  19.104  0.00  0.00    +0.000 A 
ATOM      6  C   UNL     1       0.453   9.525  17.899  0.00  0.00    +0.000 A 
ATOM      7  C   UNL     1      -0.761  10.340  17.849  0.00  0.00    +0.000 A 
ATOM      8  O   UNL     1      -1.766   9.950  17.288  0.00  0.00    +0.000 OA
ATOM      9  N   UNL     1      -0.674  11.432  18.670  0.00  0.00    +0.000 N 
ATOM     10  C   UNL     1      -0.428  11.057  20.010  0.00  0.00    +0.000 A 
ATOM     11  C   UNL     1      -1.086  11.855  20.950  0.00  0.00    +0.000 A 
ATOM     12  C   UNL     1      -1.131  11.438  22.257  0.00  0.00    +0.000 A 
ATOM     13 BR   UNL     1      -2.148  12.420  23.513  0.00  0.00    +0.000 Br
ATOM     14  C   UNL     1      -0.471  10.254  22.608  0.00  0.00    +0.000 A 
ATOM     15  C   UNL     1       0.259   9.473  21.649  0.00  0.00    +0.000 A 
ATOM     16  C   UNL     1       0.300   9.834  20.297  0.00  0.00    +0.000 A 
ATOM     17  H   UNL     1       0.089  12.040  18.383  0.00  0.00    +0.000 HD
ENDBRANCH   2   5
BRANCH   3  18
ATOM     18  C   UNL     1       3.054   5.842  18.861  0.00  0.00    +0.000 A 
ATOM     19  C   UNL     1       2.545   4.927  17.912  0.00  0.00    +0.000 A 
ATOM     20  C   UNL     1       3.305   3.853  17.413  0.00  0.00    +0.000 A 
ATOM     21  C   UNL     1       4.607   3.675  17.851  0.00  0.00    +0.000 A 
ATOM     22  C   UNL     1       5.153   4.540  18.789  0.00  0.00    +0.000 A 
ATOM     23  C   UNL     1       4.379   5.625  19.293  0.00  0.00    +0.000 A 
BRANCH  22  24
ATOM     24  O   UNL     1       6.484   4.349  19.013  0.00  0.00    +0.000 OA
BRANCH  24  25
ATOM     25  C   UNL     1       7.443   5.079  18.266  0.00  0.00    +0.000 C 
ATOM     26  F   UNL     1       6.900   5.905  17.351  0.00  0.00    +0.000 F 
ATOM     27  F   UNL     1       8.217   5.808  19.103  0.00  0.00    +0.000 F 
ATOM     28  F   UNL     1       8.243   4.198  17.623  0.00  0.00    +0.000 F 
ENDBRANCH  24  25
ENDBRANCH  22  24
ENDBRANCH   3  18
TORSDOF 4
ENDMDL
MODEL 2
REMARK VINA RESULT:      -8.2      2.084      2.804
REMARK  Name = 
REMARK  4 active torsions:
REMARK  status: ('A' for Active; 'I' for Inactive)
REMARK    1  A    between atoms: C_2  and  C_15
REMARK    2  A    between atoms: N_3  and  C_4
REMARK    3  A    between atoms: C_8  and  O_9
REMARK    4  A    between atoms: O_9  and  C_10
REMARK                            x       y       z     vdW  Elec       q    Type
REMARK                         _______ _______ _______ _____ _____    ______ ____
ROOT
ATOM      1  O   UNL     1       2.541   8.617  17.108  0.00  0.00    +0.000 OA
ATOM      2  C   UNL     1       1.968   8.583  18.205  0.00  0.00    +0.000 C 
ATOM      3  N   UNL     1       2.203   7.529  19.083  0.00  0.00    +0.000 N 
ATOM      4  H   UNL     1       1.959   7.632  20.055  0.00  0.00    +0.000 HD
ENDROOT
BRANCH   2   5
ATOM      5  C   UNL     1       0.923   9.688  18.456  0.00  0.00    +0.000 A 
ATOM      6  C   UNL     1       1.489  10.527  19.357  0.00  0.00    +0.000 A 
ATOM      7  C   UNL     1       0.799  11.770  19.702  0.00  0.00    +0.000 A 
ATOM      8  O   UNL     1       1.308  12.856  19.503  0.00  0.00    +0.000 OA
ATOM      9  N   UNL     1      -0.507  11.548  20.046  0.00  0.00    +0.000 N 
ATOM     10  C   UNL     1      -1.216  10.903  19.007  0.00  0.00    +0.000 A 
ATOM     11  C   UNL     1      -2.538  11.335  18.872  0.00  0.00    +0.000 A 
ATOM     12  C   UNL     1      -3.241  10.974  17.750  0.00  0.00    +0.000 A 
ATOM     13 BR   UNL     1      -4.976  11.675  17.473  0.00  0.00    +0.000 Br
ATOM     14  C   UNL     1      -2.623  10.144  16.807  0.00  0.00    +0.000 A 
ATOM     15  C   UNL     1      -1.286   9.650  16.983  0.00  0.00    +0.000 A 
ATOM     16  C   UNL     1      -0.513  10.024  18.090  0.00  0.00    +0.000 A 
ATOM     17  H   UNL     1      -0.569  10.951  20.867  0.00  0.00    +0.000 HD
ENDBRANCH   2   5
BRANCH   3  18
ATOM     18  C   UNL     1       2.823   6.258  18.698  0.00  0.00    +0.000 A 
ATOM     19  C   UNL     1       2.158   5.264  17.945  0.00  0.00    +0.000 A 
ATOM     20  C   UNL     1       2.762   4.037  17.613  0.00  0.00    +0.000 A 
ATOM     21  C   UNL     1       4.061   3.781  18.023  0.00  0.00    +0.000 A 
ATOM     22  C   UNL     1       4.755   4.720  18.772  0.00  0.00    +0.000 A 
ATOM     23  C   UNL     1       4.138   5.960  19.108  0.00  0.00    +0.000 A 
BRANCH  22  24
ATOM     24  O   UNL     1       6.067   4.411  18.973  0.00  0.00    +0.000 OA
BRANCH  24  25
ATOM     25  C   UNL     1       7.076   5.066  18.220  0.00  0.00    +0.000 C 
ATOM     26  F   UNL     1       8.075   4.250  17.832  0.00  0.00    +0.000 F 
ATOM     27  F   UNL     1       6.529   5.636  17.122  0.00  0.00    +0.000 F 
ATOM     28  F   UNL     1       7.603   6.052  18.981  0.00  0.00    +0.000 F 
ENDBRANCH  24  25
ENDBRANCH  22  24
ENDBRANCH   3  18
TORSDOF 4
ENDMDL
MODEL 3
REMARK VINA RESULT:      -8.2      3.584      4.303
REMARK  Name = 
REMARK  4 active torsions:
REMARK  status: ('A' for Active; 'I' for Inactive)
REMARK    1  A    between atoms: C_2  and  C_15
REMARK    2  A    between atoms: N_3  and  C_4
REMARK    3  A    between atoms: C_8  and  O_9
REMARK    4  A    between atoms: O_9  and  C_10
REMARK                            x       y       z     vdW  Elec       q    Type
REMARK                         _______ _______ _______ _____ _____    ______ ____
ROOT
ATOM      1  O   UNL     1       1.963   9.038  17.185  0.00  0.00    +0.000 OA
ATOM      2  C   UNL     1       1.473   9.217  18.309  0.00  0.00    +0.000 C 
ATOM      3  N   UNL     1       1.817   8.374  19.361  0.00  0.00    +0.000 N 
ATOM      4  H   UNL     1       1.641   8.671  20.309  0.00  0.00    +0.000 HD
ENDROOT
BRANCH   2   5
ATOM      5  C   UNL     1       0.404  10.321  18.411  0.00  0.00    +0.000 A 
ATOM      6  C   UNL     1       1.010  11.359  19.036  0.00  0.00    +0.000 A 
ATOM      7  C   UNL     1       0.294  12.629  19.162  0.00  0.00    +0.000 A 
ATOM      8  O   UNL     1       0.727  13.653  18.673  0.00  0.00    +0.000 OA
ATOM      9  N   UNL     1      -0.961  12.456  19.680  0.00  0.00    +0.000 N 
ATOM     10  C   UNL     1      -1.732  11.572  18.892  0.00  0.00    +0.000 A 
ATOM     11  C   UNL     1      -3.081  11.925  18.801  0.00  0.00    +0.000 A 
ATOM     12  C   UNL     1      -3.868  11.298  17.868  0.00  0.00    +0.000 A 
ATOM     13 BR   UNL     1      -5.654  11.870  17.621  0.00  0.00    +0.000 Br
ATOM     14  C   UNL     1      -3.301  10.291  17.077  0.00  0.00    +0.000 A 
ATOM     15  C   UNL     1      -1.930   9.888  17.221  0.00  0.00    +0.000 A 
ATOM     16  C   UNL     1      -1.076  10.525  18.129  0.00  0.00    +0.000 A 
ATOM     17  H   UNL     1      -0.915  12.061  20.616  0.00  0.00    +0.000 HD
ENDBRANCH   2   5
BRANCH   3  18
ATOM     18  C   UNL     1       2.461   7.069  19.196  0.00  0.00    +0.000 A 
ATOM     19  C   UNL     1       3.389   6.781  18.170  0.00  0.00    +0.000 A 
ATOM     20  C   UNL     1       3.972   5.511  18.012  0.00  0.00    +0.000 A 
ATOM     21  C   UNL     1       3.642   4.492  18.892  0.00  0.00    +0.000 A 
ATOM     22  C   UNL     1       2.730   4.719  19.912  0.00  0.00    +0.000 A 
ATOM     23  C   UNL     1       2.140   6.007  20.067  0.00  0.00    +0.000 A 
BRANCH  22  24
ATOM     24  O   UNL     1       2.615   3.687  20.795  0.00  0.00    +0.000 OA
BRANCH  24  25
ATOM     25  C   UNL     1       1.447   2.881  20.799  0.00  0.00    +0.000 C 
ATOM     26  F   UNL     1       1.102   2.438  22.023  0.00  0.00    +0.000 F 
ATOM     27  F   UNL     1       0.410   3.577  20.281  0.00  0.00    +0.000 F 
ATOM     28  F   UNL     1       1.666   1.809  20.004  0.00  0.00    +0.000 F 
ENDBRANCH  24  25
ENDBRANCH  22  24
ENDBRANCH   3  18
TORSDOF 4
ENDMDL
MODEL 4
REMARK VINA RESULT:      -8.1      5.238      8.753
REMARK  Name = 
REMARK  4 active torsions:
REMARK  status: ('A' for Active; 'I' for Inactive)
REMARK    1  A    between atoms: C_2  and  C_15
REMARK    2  A    between atoms: N_3  and  C_4
REMARK    3  A    between atoms: C_8  and  O_9
REMARK    4  A    between atoms: O_9  and  C_10
REMARK                            x       y       z     vdW  Elec       q    Type
REMARK                         _______ _______ _______ _____ _____    ______ ____
ROOT
ATOM      1  O   UNL     1       1.451   5.939  20.865  0.00  0.00    +0.000 OA
ATOM      2  C   UNL     1       2.098   6.466  19.950  0.00  0.00    +0.000 C 
ATOM      3  N   UNL     1       2.163   7.852  19.852  0.00  0.00    +0.000 N 
ATOM      4  H   UNL     1       2.888   8.274  19.292  0.00  0.00    +0.000 HD
ENDROOT
BRANCH   2   5
ATOM      5  C   UNL     1       2.695   5.505  18.903  0.00  0.00    +0.000 A 
ATOM      6  C   UNL     1       2.158   4.292  19.174  0.00  0.00    +0.000 A 
ATOM      7  C   UNL     1       2.419   3.179  18.261  0.00  0.00    +0.000 A 
ATOM      8  O   UNL     1       1.518   2.608  17.680  0.00  0.00    +0.000 OA
ATOM      9  N   UNL     1       3.756   3.037  18.002  0.00  0.00    +0.000 N 
ATOM     10  C   UNL     1       4.308   4.218  17.455  0.00  0.00    +0.000 A 
ATOM     11  C   UNL     1       5.279   3.988  16.478  0.00  0.00    +0.000 A 
ATOM     12  C   UNL     1       5.698   5.039  15.701  0.00  0.00    +0.000 A 
ATOM     13 BR   UNL     1       6.895   4.720  14.270  0.00  0.00    +0.000 Br
ATOM     14  C   UNL     1       5.173   6.312  15.951  0.00  0.00    +0.000 A 
ATOM     15  C   UNL     1       4.223   6.554  17.001  0.00  0.00    +0.000 A 
ATOM     16  C   UNL     1       3.733   5.508  17.793  0.00  0.00    +0.000 A 
ATOM     17  H   UNL     1       4.271   2.832  18.855  0.00  0.00    +0.000 HD
ENDBRANCH   2   5
BRANCH   3  18
ATOM     18  C   UNL     1       1.255   8.772  20.542  0.00  0.00    +0.000 A 
ATOM     19  C   UNL     1       1.048   8.760  21.940  0.00  0.00    +0.000 A 
ATOM     20  C   UNL     1       0.147   9.632  22.578  0.00  0.00    +0.000 A 
ATOM     21  C   UNL     1      -0.567  10.550  21.825  0.00  0.00    +0.000 A 
ATOM     22  C   UNL     1      -0.407  10.598  20.448  0.00  0.00    +0.000 A 
ATOM     23  C   UNL     1       0.505   9.711  19.805  0.00  0.00    +0.000 A 
BRANCH  22  24
ATOM     24  O   UNL     1      -1.044  11.644  19.850  0.00  0.00    +0.000 OA
BRANCH  24  25
ATOM     25  C   UNL     1      -1.946  11.410  18.780  0.00  0.00    +0.000 C 
ATOM     26  F   UNL     1      -1.526  11.909  17.601  0.00  0.00    +0.000 F 
ATOM     27  F   UNL     1      -2.154  10.081  18.640  0.00  0.00    +0.000 F 
ATOM     28  F   UNL     1      -3.131  11.985  19.088  0.00  0.00    +0.000 F 
ENDBRANCH  24  25
ENDBRANCH  22  24
ENDBRANCH   3  18
TORSDOF 4
ENDMDL
MODEL 5
REMARK VINA RESULT:      -8.1      3.338      4.156
REMARK  Name = 
REMARK  4 active torsions:
REMARK  status: ('A' for Active; 'I' for Inactive)
REMARK    1  A    between atoms: C_2  and  C_15
REMARK    2  A    between atoms: N_3  and  C_4
REMARK    3  A    between atoms: C_8  and  O_9
REMARK    4  A    between atoms: O_9  and  C_10
REMARK                            x       y       z     vdW  Elec       q    Type
REMARK                         _______ _______ _______ _____ _____    ______ ____
ROOT
ATOM      1  O   UNL     1       2.377   9.172  17.042  0.00  0.00    +0.000 OA
ATOM      2  C   UNL     1       1.733   9.031  18.090  0.00  0.00    +0.000 C 
ATOM      3  N   UNL     1       1.940   7.911  18.890  0.00  0.00    +0.000 N 
ATOM      4  H   UNL     1       1.628   7.924  19.849  0.00  0.00    +0.000 HD
ENDROOT
BRANCH   2   5
ATOM      5  C   UNL     1       0.643  10.086  18.362  0.00  0.00    +0.000 A 
ATOM      6  C   UNL     1       1.224  11.013  19.160  0.00  0.00    +0.000 A 
ATOM      7  C   UNL     1       0.485  12.233  19.487  0.00  0.00    +0.000 A 
ATOM      8  O   UNL     1       0.905  13.331  19.183  0.00  0.00    +0.000 OA
ATOM      9  N   UNL     1      -0.773  11.956  19.951  0.00  0.00    +0.000 N 
ATOM     10  C   UNL     1      -1.520  11.205  19.015  0.00  0.00    +0.000 A 
ATOM     11  C   UNL     1      -2.873  11.548  18.965  0.00  0.00    +0.000 A 
ATOM     12  C   UNL     1      -3.638  11.075  17.929  0.00  0.00    +0.000 A 
ATOM     13 BR   UNL     1      -5.431  11.653  17.756  0.00  0.00    +0.000 Br
ATOM     14  C   UNL     1      -3.045  10.224  16.988  0.00  0.00    +0.000 A 
ATOM     15  C   UNL     1      -1.669   9.823  17.082  0.00  0.00    +0.000 A 
ATOM     16  C   UNL     1      -0.836  10.312  18.096  0.00  0.00    +0.000 A 
ATOM     17  H   UNL     1      -0.731  11.411  20.808  0.00  0.00    +0.000 HD
ENDBRANCH   2   5
BRANCH   3  18
ATOM     18  C   UNL     1       2.619   6.693  18.442  0.00  0.00    +0.000 A 
ATOM     19  C   UNL     1       4.018   6.602  18.262  0.00  0.00    +0.000 A 
ATOM     20  C   UNL     1       4.647   5.430  17.802  0.00  0.00    +0.000 A 
ATOM     21  C   UNL     1       3.883   4.310  17.518  0.00  0.00    +0.000 A 
ATOM     22  C   UNL     1       2.504   4.348  17.670  0.00  0.00    +0.000 A 
ATOM     23  C   UNL     1       1.871   5.538  18.133  0.00  0.00    +0.000 A 
BRANCH  22  24
ATOM     24  O   UNL     1       1.893   3.140  17.509  0.00  0.00    +0.000 OA
BRANCH  24  25
ATOM     25  C   UNL     1       1.548   2.361  18.643  0.00  0.00    +0.000 C 
ATOM     26  F   UNL     1       0.274   1.926  18.632  0.00  0.00    +0.000 F 
ATOM     27  F   UNL     1       2.371   1.291  18.730  0.00  0.00    +0.000 F 
ATOM     28  F   UNL     1       1.731   3.117  19.750  0.00  0.00    +0.000 F 
ENDBRANCH  24  25
ENDBRANCH  22  24
ENDBRANCH   3  18
TORSDOF 4
ENDMDL
MODEL 6
REMARK VINA RESULT:      -8.0      5.113      8.723
REMARK  Name = 
REMARK  4 active torsions:
REMARK  status: ('A' for Active; 'I' for Inactive)
REMARK    1  A    between atoms: C_2  and  C_15
REMARK    2  A    between atoms: N_3  and  C_4
REMARK    3  A    between atoms: C_8  and  O_9
REMARK    4  A    between atoms: O_9  and  C_10
REMARK                            x       y       z     vdW  Elec       q    Type
REMARK                         _______ _______ _______ _____ _____    ______ ____
ROOT
ATOM      1  O   UNL     1       1.367   5.689  20.748  0.00  0.00    +0.000 OA
ATOM      2  C   UNL     1       2.149   6.234  19.957  0.00  0.00    +0.000 C 
ATOM      3  N   UNL     1       2.309   7.616  19.976  0.00  0.00    +0.000 N 
ATOM      4  H   UNL     1       3.119   8.025  19.536  0.00  0.00    +0.000 HD
ENDROOT
BRANCH   2   5
ATOM      5  C   UNL     1       2.806   5.310  18.913  0.00  0.00    +0.000 A 
ATOM      6  C   UNL     1       2.361   4.063  19.198  0.00  0.00    +0.000 A 
ATOM      7  C   UNL     1       2.696   2.964  18.292  0.00  0.00    +0.000 A 
ATOM      8  O   UNL     1       1.834   2.324  17.723  0.00  0.00    +0.000 OA
ATOM      9  N   UNL     1       4.037   2.918  18.022  0.00  0.00    +0.000 N 
ATOM     10  C   UNL     1       4.497   4.132  17.461  0.00  0.00    +0.000 A 
ATOM     11  C   UNL     1       5.475   3.965  16.477  0.00  0.00    +0.000 A 
ATOM     12  C   UNL     1       5.809   5.037  15.688  0.00  0.00    +0.000 A 
ATOM     13 BR   UNL     1       7.015   4.794  14.250  0.00  0.00    +0.000 Br
ATOM     14  C   UNL     1       5.194   6.271  15.933  0.00  0.00    +0.000 A 
ATOM     15  C   UNL     1       4.238   6.451  16.989  0.00  0.00    +0.000 A 
ATOM     16  C   UNL     1       3.832   5.379  17.794  0.00  0.00    +0.000 A 
ATOM     17  H   UNL     1       4.573   2.759  18.872  0.00  0.00    +0.000 HD
ENDBRANCH   2   5
BRANCH   3  18
ATOM     18  C   UNL     1       1.383   8.544  20.628  0.00  0.00    +0.000 A 
ATOM     19  C   UNL     1       1.253   8.660  22.031  0.00  0.00    +0.000 A 
ATOM     20  C   UNL     1       0.335   9.538  22.635  0.00  0.00    +0.000 A 
ATOM     21  C   UNL     1      -0.476  10.333  21.842  0.00  0.00    +0.000 A 
ATOM     22  C   UNL     1      -0.395  10.252  20.459  0.00  0.00    +0.000 A 
ATOM     23  C   UNL     1       0.535   9.360  19.851  0.00  0.00    +0.000 A 
BRANCH  22  24
ATOM     24  O   UNL     1      -1.130  11.195  19.804  0.00  0.00    +0.000 OA
BRANCH  24  25
ATOM     25  C   UNL     1      -0.602  12.497  19.605  0.00  0.00    +0.000 C 
ATOM     26  F   UNL     1       0.739  12.559  19.724  0.00  0.00    +0.000 F 
ATOM     27  F   UNL     1      -0.950  12.949  18.378  0.00  0.00    +0.000 F 
ATOM     28  F   UNL     1      -1.150  13.324  20.523  0.00  0.00    +0.000 F 
ENDBRANCH  24  25
ENDBRANCH  22  24
ENDBRANCH   3  18
TORSDOF 4
ENDMDL
MODEL 7
REMARK VINA RESULT:      -8.0      5.283      8.679
REMARK  Name = 
REMARK  4 active torsions:
REMARK  status: ('A' for Active; 'I' for Inactive)
REMARK    1  A    between atoms: C_2  and  C_15
REMARK    2  A    between atoms: N_3  and  C_4
REMARK    3  A    between atoms: C_8  and  O_9
REMARK    4  A    between atoms: O_9  and  C_10
REMARK                            x       y       z     vdW  Elec       q    Type
REMARK                         _______ _______ _______ _____ _____    ______ ____
ROOT
ATOM      1  O   UNL     1       2.057   6.557  20.014  0.00  0.00    +0.000 OA
ATOM      2  C   UNL     1       2.509   6.923  18.920  0.00  0.00    +0.000 C 
ATOM      3  N   UNL     1       2.314   8.232  18.489  0.00  0.00    +0.000 N 
ATOM      4  H   UNL     1       2.894   8.600  17.750  0.00  0.00    +0.000 HD
ENDROOT
BRANCH   2   5
ATOM      5  C   UNL     1       3.165   5.827  18.058  0.00  0.00    +0.000 A 
ATOM      6  C   UNL     1       2.680   4.654  18.529  0.00  0.00    +0.000 A 
ATOM      7  C   UNL     1       3.006   3.415  17.823  0.00  0.00    +0.000 A 
ATOM      8  O   UNL     1       2.141   2.710  17.342  0.00  0.00    +0.000 OA
ATOM      9  N   UNL     1       4.352   3.295  17.602  0.00  0.00    +0.000 N 
ATOM     10  C   UNL     1       4.858   4.390  16.864  0.00  0.00    +0.000 A 
ATOM     11  C   UNL     1       5.854   4.042  15.948  0.00  0.00    +0.000 A 
ATOM     12  C   UNL     1       6.236   4.963  15.005  0.00  0.00    +0.000 A 
ATOM     13 BR   UNL     1       7.468   4.462  13.660  0.00  0.00    +0.000 Br
ATOM     14  C   UNL     1       5.649   6.235  15.030  0.00  0.00    +0.000 A 
ATOM     15  C   UNL     1       4.673   6.606  16.015  0.00  0.00    +0.000 A 
ATOM     16  C   UNL     1       4.219   5.689  16.972  0.00  0.00    +0.000 A 
ATOM     17  H   UNL     1       4.862   3.264  18.481  0.00  0.00    +0.000 HD
ENDBRANCH   2   5
BRANCH   3  18
ATOM     18  C   UNL     1       1.326   9.150  19.060  0.00  0.00    +0.000 A 
ATOM     19  C   UNL     1       0.316   9.780  18.299  0.00  0.00    +0.000 A 
ATOM     20  C   UNL     1      -0.604  10.683  18.864  0.00  0.00    +0.000 A 
ATOM     21  C   UNL     1      -0.537  10.971  20.217  0.00  0.00    +0.000 A 
ATOM     22  C   UNL     1       0.441  10.386  21.008  0.00  0.00    +0.000 A 
ATOM     23  C   UNL     1       1.372   9.474  20.432  0.00  0.00    +0.000 A 
BRANCH  22  24
ATOM     24  O   UNL     1       0.297  10.630  22.342  0.00  0.00    +0.000 OA
BRANCH  24  25
ATOM     25  C   UNL     1      -0.485   9.759  23.144  0.00  0.00    +0.000 C 
ATOM     26  F   UNL     1      -0.910   8.660  22.492  0.00  0.00    +0.000 F 
ATOM     27  F   UNL     1       0.227   9.373  24.227  0.00  0.00    +0.000 F 
ATOM     28  F   UNL     1      -1.568  10.441  23.581  0.00  0.00    +0.000 F 
ENDBRANCH  24  25
ENDBRANCH  22  24
ENDBRANCH   3  18
TORSDOF 4
ENDMDL
MODEL 8
REMARK VINA RESULT:      -8.0      2.278      2.808
REMARK  Name = 
REMARK  4 active torsions:
REMARK  status: ('A' for Active; 'I' for Inactive)
REMARK    1  A    between atoms: C_2  and  C_15
REMARK    2  A    between atoms: N_3  and  C_4
REMARK    3  A    between atoms: C_8  and  O_9
REMARK    4  A    between atoms: O_9  and  C_10
REMARK                            x       y       z     vdW  Elec       q    Type
REMARK                         _______ _______ _______ _____ _____    ______ ____
ROOT
ATOM      1  O   UNL     1       2.579   8.873  17.031  0.00  0.00    +0.000 OA
ATOM      2  C   UNL     1       1.892   8.754  18.055  0.00  0.00    +0.000 C 
ATOM      3  N   UNL     1       1.994   7.605  18.833  0.00  0.00    +0.000 N 
ATOM      4  H   UNL     1       1.653   7.620  19.782  0.00  0.00    +0.000 HD
ENDROOT
BRANCH   2   5
ATOM      5  C   UNL     1       0.869   9.877  18.317  0.00  0.00    +0.000 A 
ATOM      6  C   UNL     1       1.526  10.804  19.055  0.00  0.00    +0.000 A 
ATOM      7  C   UNL     1       0.865  12.074  19.354  0.00  0.00    +0.000 A 
ATOM      8  O   UNL     1       1.331  13.135  18.988  0.00  0.00    +0.000 OA
ATOM      9  N   UNL     1      -0.389  11.885  19.871  0.00  0.00    +0.000 N 
ATOM     10  C   UNL     1      -1.207  11.138  18.993  0.00  0.00    +0.000 A 
ATOM     11  C   UNL     1      -2.541  11.551  18.975  0.00  0.00    +0.000 A 
ATOM     12  C   UNL     1      -3.367  11.078  17.986  0.00  0.00    +0.000 A 
ATOM     13 BR   UNL     1      -5.132  11.744  17.848  0.00  0.00    +0.000 Br
ATOM     14  C   UNL     1      -2.853  10.158  17.063  0.00  0.00    +0.000 A 
ATOM     15  C   UNL     1      -1.498   9.687  17.128  0.00  0.00    +0.000 A 
ATOM     16  C   UNL     1      -0.605  10.171  18.092  0.00  0.00    +0.000 A 
ATOM     17  H   UNL     1      -0.345  11.374  20.749  0.00  0.00    +0.000 HD
ENDBRANCH   2   5
BRANCH   3  18
ATOM     18  C   UNL     1       2.602   6.353  18.379  0.00  0.00    +0.000 A 
ATOM     19  C   UNL     1       1.853   5.214  18.003  0.00  0.00    +0.000 A 
ATOM     20  C   UNL     1       2.459   4.011  17.598  0.00  0.00    +0.000 A 
ATOM     21  C   UNL     1       3.841   3.922  17.553  0.00  0.00    +0.000 A 
ATOM     22  C   UNL     1       4.623   5.008  17.920  0.00  0.00    +0.000 A 
ATOM     23  C   UNL     1       4.005   6.224  18.331  0.00  0.00    +0.000 A 
BRANCH  22  24
ATOM     24  O   UNL     1       5.955   4.841  17.680  0.00  0.00    +0.000 OA
BRANCH  24  25
ATOM     25  C   UNL     1       6.544   5.402  16.518  0.00  0.00    +0.000 C 
ATOM     26  F   UNL     1       5.653   5.710  15.556  0.00  0.00    +0.000 F 
ATOM     27  F   UNL     1       7.230   6.521  16.847  0.00  0.00    +0.000 F 
ATOM     28  F   UNL     1       7.425   4.509  16.013  0.00  0.00    +0.000 F 
ENDBRANCH  24  25
ENDBRANCH  22  24
ENDBRANCH   3  18
TORSDOF 4
ENDMDL
MODEL 9
REMARK VINA RESULT:      -8.0      2.141      2.829
REMARK  Name = 
REMARK  4 active torsions:
REMARK  status: ('A' for Active; 'I' for Inactive)
REMARK    1  A    between atoms: C_2  and  C_15
REMARK    2  A    between atoms: N_3  and  C_4
REMARK    3  A    between atoms: C_8  and  O_9
REMARK    4  A    between atoms: O_9  and  C_10
REMARK                            x       y       z     vdW  Elec       q    Type
REMARK                         _______ _______ _______ _____ _____    ______ ____
ROOT
ATOM      1  O   UNL     1       1.484   6.401  20.890  0.00  0.00    +0.000 OA
ATOM      2  C   UNL     1       1.581   7.335  20.082  0.00  0.00    +0.000 C 
ATOM      3  N   UNL     1       2.227   7.140  18.865  0.00  0.00    +0.000 N 
ATOM      4  H   UNL     1       2.074   7.796  18.115  0.00  0.00    +0.000 HD
ENDROOT
BRANCH   2   5
ATOM      5  C   UNL     1       1.062   8.703  20.566  0.00  0.00    +0.000 A 
ATOM      6  C   UNL     1       0.557   8.485  21.804  0.00  0.00    +0.000 A 
ATOM      7  C   UNL     1       0.107   9.627  22.600  0.00  0.00    +0.000 A 
ATOM      8  O   UNL     1       0.609   9.889  23.675  0.00  0.00    +0.000 OA
ATOM      9  N   UNL     1      -0.746  10.433  21.896  0.00  0.00    +0.000 N 
ATOM     10  C   UNL     1      -0.149  10.910  20.707  0.00  0.00    +0.000 A 
ATOM     11  C   UNL     1      -0.500  12.224  20.386  0.00  0.00    +0.000 A 
ATOM     12  C   UNL     1       0.207  12.877  19.407  0.00  0.00    +0.000 A 
ATOM     13 BR   UNL     1      -0.146  14.704  19.066  0.00  0.00    +0.000 Br
ATOM     14  C   UNL     1       1.220  12.184  18.732  0.00  0.00    +0.000 A 
ATOM     15  C   UNL     1       1.532  10.813  19.023  0.00  0.00    +0.000 A 
ATOM     16  C   UNL     1       0.868  10.116  20.040  0.00  0.00    +0.000 A 
ATOM     17  H   UNL     1      -1.585   9.926  21.627  0.00  0.00    +0.000 HD
ENDBRANCH   2   5
BRANCH   3  18
ATOM     18  C   UNL     1       3.110   6.009  18.573  0.00  0.00    +0.000 A 
ATOM     19  C   UNL     1       2.742   4.927  17.741  0.00  0.00    +0.000 A 
ATOM     20  C   UNL     1       3.596   3.836  17.498  0.00  0.00    +0.000 A 
ATOM     21  C   UNL     1       4.853   3.807  18.081  0.00  0.00    +0.000 A 
ATOM     22  C   UNL     1       5.260   4.840  18.913  0.00  0.00    +0.000 A 
ATOM     23  C   UNL     1       4.391   5.943  19.158  0.00  0.00    +0.000 A 
BRANCH  22  24
ATOM     24  O   UNL     1       6.568   4.766  19.291  0.00  0.00    +0.000 OA
BRANCH  24  25
ATOM     25  C   UNL     1       7.587   5.243  18.426  0.00  0.00    +0.000 C 
ATOM     26  F   UNL     1       8.190   4.271  17.715  0.00  0.00    +0.000 F 
ATOM     27  F   UNL     1       7.069   6.151  17.568  0.00  0.00    +0.000 F 
ATOM     28  F   UNL     1       8.524   5.867  19.175  0.00  0.00    +0.000 F 
ENDBRANCH  24  25
ENDBRANCH  22  24
ENDBRANCH   3  18
TORSDOF 4
ENDMDL
