MODEL 1
REMARK VINA RESULT:      -9.1      0.000      0.000
REMARK  Name = 
REMARK  5 active torsions:
REMARK  status: ('A' for Active; 'I' for Inactive)
REMARK    1  A    between atoms: C_2  and  C_3
REMARK    2  A    between atoms: C_3  and  C_4
REMARK    3  A    between atoms: N_13  and  C_14
REMARK    4  A    between atoms: N_17  and  C_18
REMARK    5  A    between atoms: C_18  and  C_19
REMARK                            x       y       z     vdW  Elec       q    Type
REMARK                         _______ _______ _______ _____ _____    ______ ____
ROOT
ATOM      1  C   UNL     1       2.618   4.932  18.601  0.00  0.00    +0.000 C 
ATOM      2  C   UNL     1       2.398   6.298  17.955  0.00  0.00    +0.000 C 
ATOM      3  C   UNL     1       2.441   7.429  18.983  0.00  0.00    +0.000 C 
ATOM      4  N   UNL     1       1.479   7.231  20.079  0.00  0.00    +0.000 NA
ATOM      5  C   UNL     1       1.668   5.925  20.736  0.00  0.00    +0.000 C 
ATOM      6  C   UNL     1       1.629   4.752  19.750  0.00  0.00    +0.000 C 
ENDROOT
BRANCH   1   9
ATOM      7  O   UNL     1       6.083   3.975  19.018  0.00  0.00    +0.000 OA
ATOM      8  C   UNL     1       5.046   4.191  18.387  0.00  0.00    +0.000 C 
ATOM      9  N   UNL     1       4.002   4.768  19.048  0.00  0.00    +0.000 N 
ATOM     10  H   UNL     1       4.212   4.912  20.029  0.00  0.00    +0.000 HD
BRANCH   8  11
ATOM     11  C   UNL     1       4.906   3.822  16.921  0.00  0.00    +0.000 C 
BRANCH  11  12
ATOM     12  C   UNL     1       5.947   4.451  16.054  0.00  0.00    +0.000 A 
ATOM     13  C   UNL     1       6.860   5.418  16.439  0.00  0.00    +0.000 A 
ATOM     14  N   UNL     1       7.607   5.768  15.347  0.00  0.00    +0.000 N 
ATOM     15  C   UNL     1       7.200   5.059  14.244  0.00  0.00    +0.000 A 
ATOM     16  C   UNL     1       7.663   5.102  12.922  0.00  0.00    +0.000 A 
ATOM     17  C   UNL     1       7.051   4.257  11.993  0.00  0.00    +0.000 A 
ATOM     18  C   UNL     1       6.020   3.403  12.372  0.00  0.00    +0.000 A 
ATOM     19  C   UNL     1       5.567   3.375  13.696  0.00  0.00    +0.000 A 
ATOM     20  C   UNL     1       6.166   4.217  14.655  0.00  0.00    +0.000 A 
ATOM     21  H   UNL     1       8.343   6.461  15.341  0.00  0.00    +0.000 HD
ENDBRANCH  11  12
ENDBRANCH   8  11
ENDBRANCH   1   9
BRANCH   4  22
ATOM     22  C   UNL     1       1.630   8.351  21.041  0.00  0.00    +0.000 C 
BRANCH  22  23
ATOM     23  C   UNL     1       0.859   9.560  20.609  0.00  0.00    +0.000 A 
ATOM     24  C   UNL     1       0.859  10.140  19.352  0.00  0.00    +0.000 A 
ATOM     25  N   UNL     1      -0.035  11.174  19.354  0.00  0.00    +0.000 N 
ATOM     26  C   UNL     1      -0.630  11.289  20.589  0.00  0.00    +0.000 A 
ATOM     27  C   UNL     1      -1.635  12.158  21.029  0.00  0.00    +0.000 A 
ATOM     28  C   UNL     1      -2.049  12.052  22.360  0.00  0.00    +0.000 A 
ATOM     29  C   UNL     1      -1.458  11.132  23.223  0.00  0.00    +0.000 A 
ATOM     30  C   UNL     1      -0.458  10.267  22.765  0.00  0.00    +0.000 A 
ATOM     31  C   UNL     1      -0.048  10.327  21.416  0.00  0.00    +0.000 A 
ATOM     32  H   UNL     1      -0.251  11.757  18.559  0.00  0.00    +0.000 HD
ENDBRANCH  22  23
ENDBRANCH   4  22
TORSDOF 5
ENDMDL
MODEL 2
REMARK VINA RESULT:      -9.0      0.920      1.611
REMARK  Name = 
REMARK  5 active torsions:
REMARK  status: ('A' for Active; 'I' for Inactive)
REMARK    1  A    between atoms: C_2  and  C_3
REMARK    2  A    between atoms: C_3  and  C_4
REMARK    3  A    between atoms: N_13  and  C_14
REMARK    4  A    between atoms: N_17  and  C_18
REMARK    5  A    between atoms: C_18  and  C_19
REMARK                            x       y       z     vdW  Elec       q    Type
REMARK                         _______ _______ _______ _____ _____    ______ ____
ROOT
ATOM      1  C   UNL     1       2.482   5.080  18.584  0.00  0.00    +0.000 C 
ATOM      2  C   UNL     1       2.387   6.541  18.147  0.00  0.00    +0.000 C 
ATOM      3  C   UNL     1       2.545   7.501  19.327  0.00  0.00    +0.000 C 
ATOM      4  N   UNL     1       1.576   7.235  20.402  0.00  0.00    +0.000 NA
ATOM      5  C   UNL     1       1.644   5.835  20.859  0.00  0.00    +0.000 C 
ATOM      6  C   UNL     1       1.488   4.828  19.715  0.00  0.00    +0.000 C 
ENDROOT
BRANCH   1   9
ATOM      7  O   UNL     1       5.839   3.747  18.791  0.00  0.00    +0.000 OA
ATOM      8  C   UNL     1       4.822   4.144  18.218  0.00  0.00    +0.000 C 
ATOM      9  N   UNL     1       3.846   4.725  18.974  0.00  0.00    +0.000 N 
ATOM     10  H   UNL     1       4.079   4.715  19.960  0.00  0.00    +0.000 HD
BRANCH   8  11
ATOM     11  C   UNL     1       4.632   3.991  16.720  0.00  0.00    +0.000 C 
BRANCH  11  12
ATOM     12  C   UNL     1       5.772   4.538  15.924  0.00  0.00    +0.000 A 
ATOM     13  C   UNL     1       6.724   5.441  16.367  0.00  0.00    +0.000 A 
ATOM     14  N   UNL     1       7.566   5.729  15.328  0.00  0.00    +0.000 N 
ATOM     15  C   UNL     1       7.185   5.042  14.202  0.00  0.00    +0.000 A 
ATOM     16  C   UNL     1       7.738   5.043  12.914  0.00  0.00    +0.000 A 
ATOM     17  C   UNL     1       7.131   4.236  11.947  0.00  0.00    +0.000 A 
ATOM     18  C   UNL     1       6.018   3.461  12.258  0.00  0.00    +0.000 A 
ATOM     19  C   UNL     1       5.477   3.474  13.548  0.00  0.00    +0.000 A 
ATOM     20  C   UNL     1       6.068   4.279  14.544  0.00  0.00    +0.000 A 
ATOM     21  H   UNL     1       8.348   6.367  15.370  0.00  0.00    +0.000 HD
ENDBRANCH  11  12
ENDBRANCH   8  11
ENDBRANCH   1   9
BRANCH   4  22
ATOM     22  C   UNL     1       1.839   8.183  21.512  0.00  0.00    +0.000 C 
BRANCH  22  23
ATOM     23  C   UNL     1       0.707   9.146  21.700  0.00  0.00    +0.000 A 
ATOM     24  C   UNL     1       0.035   9.417  22.879  0.00  0.00    +0.000 A 
ATOM     25  N   UNL     1      -0.874  10.409  22.639  0.00  0.00    +0.000 N 
ATOM     26  C   UNL     1      -0.816  10.802  21.322  0.00  0.00    +0.000 A 
ATOM     27  C   UNL     1      -1.514  11.812  20.650  0.00  0.00    +0.000 A 
ATOM     28  C   UNL     1      -1.252  11.987  19.288  0.00  0.00    +0.000 A 
ATOM     29  C   UNL     1      -0.350  11.163  18.620  0.00  0.00    +0.000 A 
ATOM     30  C   UNL     1       0.343  10.160  19.309  0.00  0.00    +0.000 A 
ATOM     31  C   UNL     1       0.126   9.988  20.692  0.00  0.00    +0.000 A 
ATOM     32  H   UNL     1      -1.486  10.818  23.331  0.00  0.00    +0.000 HD
ENDBRANCH  22  23
ENDBRANCH   4  22
TORSDOF 5
ENDMDL
MODEL 3
REMARK VINA RESULT:      -8.9      5.153      8.060
REMARK  Name = 
REMARK  5 active torsions:
REMARK  status: ('A' for Active; 'I' for Inactive)
REMARK    1  A    between atoms: C_2  and  C_3
REMARK    2  A    between atoms: C_3  and  C_4
REMARK    3  A    between atoms: N_13  and  C_14
REMARK    4  A    between atoms: N_17  and  C_18
REMARK    5  A    between atoms: C_18  and  C_19
REMARK                            x       y       z     vdW  Elec       q    Type
REMARK                         _______ _______ _______ _____ _____    ______ ____
ROOT
ATOM      1  C   UNL     1       7.708   6.647  17.496  0.00  0.00    +0.000 C 
ATOM      2  C   UNL     1       7.303   5.769  16.313  0.00  0.00    +0.000 C 
ATOM      3  C   UNL     1       5.784   5.678  16.164  0.00  0.00    +0.000 C 
ATOM      4  N   UNL     1       5.126   5.201  17.392  0.00  0.00    +0.000 NA
ATOM      5  C   UNL     1       5.485   6.031  18.557  0.00  0.00    +0.000 C 
ATOM      6  C   UNL     1       6.999   6.154  18.756  0.00  0.00    +0.000 C 
ENDROOT
BRANCH   1   9
ATOM      7  O   UNL     1       7.404  10.249  17.639  0.00  0.00    +0.000 OA
ATOM      8  C   UNL     1       7.918   9.155  17.883  0.00  0.00    +0.000 C 
ATOM      9  N   UNL     1       7.428   8.059  17.236  0.00  0.00    +0.000 N 
ATOM     10  H   UNL     1       6.642   8.294  16.643  0.00  0.00    +0.000 HD
BRANCH   8  11
ATOM     11  C   UNL     1       9.053   9.006  18.880  0.00  0.00    +0.000 C 
BRANCH  11  12
ATOM     12  C   UNL     1       9.462  10.300  19.505  0.00  0.00    +0.000 A 
ATOM     13  C   UNL     1       9.124  10.742  20.773  0.00  0.00    +0.000 A 
ATOM     14  N   UNL     1       9.651  11.992  20.951  0.00  0.00    +0.000 N 
ATOM     15  C   UNL     1      10.325  12.390  19.823  0.00  0.00    +0.000 A 
ATOM     16  C   UNL     1      10.999  13.588  19.551  0.00  0.00    +0.000 A 
ATOM     17  C   UNL     1      11.601  13.723  18.296  0.00  0.00    +0.000 A 
ATOM     18  C   UNL     1      11.530  12.701  17.355  0.00  0.00    +0.000 A 
ATOM     19  C   UNL     1      10.849  11.512  17.642  0.00  0.00    +0.000 A 
ATOM     20  C   UNL     1      10.232  11.348  18.899  0.00  0.00    +0.000 A 
ATOM     21  H   UNL     1       9.549  12.555  21.784  0.00  0.00    +0.000 HD
ENDBRANCH  11  12
ENDBRANCH   8  11
ENDBRANCH   1   9
BRANCH   4  22
ATOM     22  C   UNL     1       3.661   5.191  17.162  0.00  0.00    +0.000 C 
BRANCH  22  23
ATOM     23  C   UNL     1       3.010   3.991  17.780  0.00  0.00    +0.000 A 
ATOM     24  C   UNL     1       2.757   2.777  17.167  0.00  0.00    +0.000 A 
ATOM     25  N   UNL     1       2.224   1.927  18.096  0.00  0.00    +0.000 N 
ATOM     26  C   UNL     1       2.123   2.556  19.315  0.00  0.00    +0.000 A 
ATOM     27  C   UNL     1       1.694   2.062  20.553  0.00  0.00    +0.000 A 
ATOM     28  C   UNL     1       1.691   2.942  21.638  0.00  0.00    +0.000 A 
ATOM     29  C   UNL     1       2.074   4.272  21.483  0.00  0.00    +0.000 A 
ATOM     30  C   UNL     1       2.505   4.749  20.240  0.00  0.00    +0.000 A 
ATOM     31  C   UNL     1       2.554   3.870  19.136  0.00  0.00    +0.000 A 
ATOM     32  H   UNL     1       1.965   0.966  17.926  0.00  0.00    +0.000 HD
ENDBRANCH  22  23
ENDBRANCH   4  22
TORSDOF 5
ENDMDL
MODEL 4
REMARK VINA RESULT:      -8.7      1.582      2.273
REMARK  Name = 
REMARK  5 active torsions:
REMARK  status: ('A' for Active; 'I' for Inactive)
REMARK    1  A    between atoms: C_2  and  C_3
REMARK    2  A    between atoms: C_3  and  C_4
REMARK    3  A    between atoms: N_13  and  C_14
REMARK    4  A    between atoms: N_17  and  C_18
REMARK    5  A    between atoms: C_18  and  C_19
REMARK                            x       y       z     vdW  Elec       q    Type
REMARK                         _______ _______ _______ _____ _____    ______ ____
ROOT
ATOM      1  C   UNL     1       2.666   5.515  19.405  0.00  0.00    +0.000 C 
ATOM      2  C   UNL     1       2.379   6.129  18.036  0.00  0.00    +0.000 C 
ATOM      3  C   UNL     1       2.456   7.656  18.068  0.00  0.00    +0.000 C 
ATOM      4  N   UNL     1       1.562   8.243  19.080  0.00  0.00    +0.000 NA
ATOM      5  C   UNL     1       1.817   7.682  20.419  0.00  0.00    +0.000 C 
ATOM      6  C   UNL     1       1.748   6.152  20.445  0.00  0.00    +0.000 C 
ENDROOT
BRANCH   1   9
ATOM      7  O   UNL     1       6.252   5.180  19.753  0.00  0.00    +0.000 OA
ATOM      8  C   UNL     1       5.168   5.097  19.172  0.00  0.00    +0.000 C 
ATOM      9  N   UNL     1       4.076   5.655  19.769  0.00  0.00    +0.000 N 
ATOM     10  H   UNL     1       4.304   6.048  20.675  0.00  0.00    +0.000 HD
BRANCH   8  11
ATOM     11  C   UNL     1       5.024   4.387  17.838  0.00  0.00    +0.000 C 
BRANCH  11  12
ATOM     12  C   UNL     1       5.993   4.869  16.807  0.00  0.00    +0.000 A 
ATOM     13  C   UNL     1       6.975   5.829  16.990  0.00  0.00    +0.000 A 
ATOM     14  N   UNL     1       7.619   6.023  15.798  0.00  0.00    +0.000 N 
ATOM     15  C   UNL     1       7.077   5.217  14.827  0.00  0.00    +0.000 A 
ATOM     16  C   UNL     1       7.404   5.094  13.470  0.00  0.00    +0.000 A 
ATOM     17  C   UNL     1       6.670   4.182  12.706  0.00  0.00    +0.000 A 
ATOM     18  C   UNL     1       5.653   3.424  13.278  0.00  0.00    +0.000 A 
ATOM     19  C   UNL     1       5.338   3.561  14.635  0.00  0.00    +0.000 A 
ATOM     20  C   UNL     1       6.060   4.474  15.430  0.00  0.00    +0.000 A 
ATOM     21  H   UNL     1       8.374   6.675  15.642  0.00  0.00    +0.000 HD
ENDBRANCH  11  12
ENDBRANCH   8  11
ENDBRANCH   1   9
BRANCH   4  22
ATOM     22  C   UNL     1       1.743   9.715  19.063  0.00  0.00    +0.000 C 
BRANCH  22  23
ATOM     23  C   UNL     1       0.474  10.434  19.409  0.00  0.00    +0.000 A 
ATOM     24  C   UNL     1       0.244  11.221  20.523  0.00  0.00    +0.000 A 
ATOM     25  N   UNL     1      -1.011  11.755  20.422  0.00  0.00    +0.000 N 
ATOM     26  C   UNL     1      -1.615  11.337  19.260  0.00  0.00    +0.000 A 
ATOM     27  C   UNL     1      -2.863  11.672  18.721  0.00  0.00    +0.000 A 
ATOM     28  C   UNL     1      -3.226  11.082  17.507  0.00  0.00    +0.000 A 
ATOM     29  C   UNL     1      -2.385  10.170  16.874  0.00  0.00    +0.000 A 
ATOM     30  C   UNL     1      -1.139   9.850  17.424  0.00  0.00    +0.000 A 
ATOM     31  C   UNL     1      -0.732  10.461  18.629  0.00  0.00    +0.000 A 
ATOM     32  H   UNL     1      -1.429  12.387  21.089  0.00  0.00    +0.000 HD
ENDBRANCH  22  23
ENDBRANCH   4  22
TORSDOF 5
ENDMDL
MODEL 5
REMARK VINA RESULT:      -8.6      2.734      3.951
REMARK  Name = 
REMARK  5 active torsions:
REMARK  status: ('A' for Active; 'I' for Inactive)
REMARK    1  A    between atoms: C_2  and  C_3
REMARK    2  A    between atoms: C_3  and  C_4
REMARK    3  A    between atoms: N_13  and  C_14
REMARK    4  A    between atoms: N_17  and  C_18
REMARK    5  A    between atoms: C_18  and  C_19
REMARK                            x       y       z     vdW  Elec       q    Type
REMARK                         _______ _______ _______ _____ _____    ______ ____
ROOT
ATOM      1  C   UNL     1       2.622   7.002  18.535  0.00  0.00    +0.000 C 
ATOM      2  C   UNL     1       2.403   7.219  20.031  0.00  0.00    +0.000 C 
ATOM      3  C   UNL     1       1.125   8.012  20.311  0.00  0.00    +0.000 C 
ATOM      4  N   UNL     1       1.099   9.304  19.607  0.00  0.00    +0.000 NA
ATOM      5  C   UNL     1       1.297   9.135  18.156  0.00  0.00    +0.000 C 
ATOM      6  C   UNL     1       2.568   8.349  17.817  0.00  0.00    +0.000 C 
ENDROOT
BRANCH   1   9
ATOM      7  O   UNL     1       0.905   4.103  17.218  0.00  0.00    +0.000 OA
ATOM      8  C   UNL     1       1.744   4.698  17.897  0.00  0.00    +0.000 C 
ATOM      9  N   UNL     1       1.652   6.056  17.983  0.00  0.00    +0.000 N 
ATOM     10  H   UNL     1       0.895   6.417  17.417  0.00  0.00    +0.000 HD
BRANCH   8  11
ATOM     11  C   UNL     1       2.864   3.965  18.614  0.00  0.00    +0.000 C 
BRANCH  11  12
ATOM     12  C   UNL     1       4.149   3.962  17.850  0.00  0.00    +0.000 A 
ATOM     13  C   UNL     1       4.373   3.357  16.625  0.00  0.00    +0.000 A 
ATOM     14  N   UNL     1       5.685   3.538  16.284  0.00  0.00    +0.000 N 
ATOM     15  C   UNL     1       6.338   4.244  17.265  0.00  0.00    +0.000 A 
ATOM     16  C   UNL     1       7.679   4.641  17.350  0.00  0.00    +0.000 A 
ATOM     17  C   UNL     1       8.073   5.357  18.484  0.00  0.00    +0.000 A 
ATOM     18  C   UNL     1       7.161   5.664  19.489  0.00  0.00    +0.000 A 
ATOM     19  C   UNL     1       5.826   5.257  19.389  0.00  0.00    +0.000 A 
ATOM     20  C   UNL     1       5.400   4.532  18.258  0.00  0.00    +0.000 A 
ATOM     21  H   UNL     1       6.124   3.191  15.443  0.00  0.00    +0.000 HD
ENDBRANCH  11  12
ENDBRANCH   8  11
ENDBRANCH   1   9
BRANCH   4  22
ATOM     22  C   UNL     1      -0.191   9.972  19.906  0.00  0.00    +0.000 C 
BRANCH  22  23
ATOM     23  C   UNL     1      -0.320  11.279  19.186  0.00  0.00    +0.000 A 
ATOM     24  C   UNL     1      -1.202  11.580  18.163  0.00  0.00    +0.000 A 
ATOM     25  N   UNL     1      -1.051  12.899  17.837  0.00  0.00    +0.000 N 
ATOM     26  C   UNL     1      -0.086  13.479  18.627  0.00  0.00    +0.000 A 
ATOM     27  C   UNL     1       0.356  14.806  18.685  0.00  0.00    +0.000 A 
ATOM     28  C   UNL     1       1.371  15.114  19.595  0.00  0.00    +0.000 A 
ATOM     29  C   UNL     1       1.940  14.126  20.395  0.00  0.00    +0.000 A 
ATOM     30  C   UNL     1       1.483  12.804  20.328  0.00  0.00    +0.000 A 
ATOM     31  C   UNL     1       0.433  12.475  19.445  0.00  0.00    +0.000 A 
ATOM     32  H   UNL     1      -1.586  13.390  17.136  0.00  0.00    +0.000 HD
ENDBRANCH  22  23
ENDBRANCH   4  22
TORSDOF 5
ENDMDL
MODEL 6
REMARK VINA RESULT:      -8.5      5.098      8.354
REMARK  Name = 
REMARK  5 active torsions:
REMARK  status: ('A' for Active; 'I' for Inactive)
REMARK    1  A    between atoms: C_2  and  C_3
REMARK    2  A    between atoms: C_3  and  C_4
REMARK    3  A    between atoms: N_13  and  C_14
REMARK    4  A    between atoms: N_17  and  C_18
REMARK    5  A    between atoms: C_18  and  C_19
REMARK                            x       y       z     vdW  Elec       q    Type
REMARK                         _______ _______ _______ _____ _____    ______ ____
ROOT
ATOM      1  C   UNL     1       7.792   6.549  17.702  0.00  0.00    +0.000 C 
ATOM      2  C   UNL     1       7.715   5.575  16.527  0.00  0.00    +0.000 C 
ATOM      3  C   UNL     1       6.269   5.251  16.149  0.00  0.00    +0.000 C 
ATOM      4  N   UNL     1       5.495   4.728  17.286  0.00  0.00    +0.000 NA
ATOM      5  C   UNL     1       5.536   5.646  18.438  0.00  0.00    +0.000 C 
ATOM      6  C   UNL     1       6.964   6.003  18.863  0.00  0.00    +0.000 C 
ENDROOT
BRANCH   1   9
ATOM      7  O   UNL     1       7.136  10.100  17.490  0.00  0.00    +0.000 OA
ATOM      8  C   UNL     1       7.767   9.093  17.816  0.00  0.00    +0.000 C 
ATOM      9  N   UNL     1       7.361   7.892  17.314  0.00  0.00    +0.000 N 
ATOM     10  H   UNL     1       6.528   7.985  16.745  0.00  0.00    +0.000 HD
BRANCH   8  11
ATOM     11  C   UNL     1       8.956   9.160  18.757  0.00  0.00    +0.000 C 
BRANCH  11  12
ATOM     12  C   UNL     1       9.561  10.523  18.845  0.00  0.00    +0.000 A 
ATOM     13  C   UNL     1      10.321  11.148  17.870  0.00  0.00    +0.000 A 
ATOM     14  N   UNL     1      10.728  12.363  18.350  0.00  0.00    +0.000 N 
ATOM     15  C   UNL     1      10.260  12.552  19.627  0.00  0.00    +0.000 A 
ATOM     16  C   UNL     1      10.443  13.629  20.505  0.00  0.00    +0.000 A 
ATOM     17  C   UNL     1       9.844  13.547  21.765  0.00  0.00    +0.000 A 
ATOM     18  C   UNL     1       9.093  12.434  22.130  0.00  0.00    +0.000 A 
ATOM     19  C   UNL     1       8.924  11.365  21.242  0.00  0.00    +0.000 A 
ATOM     20  C   UNL     1       9.518  11.420  19.965  0.00  0.00    +0.000 A 
ATOM     21  H   UNL     1      11.305  13.025  17.849  0.00  0.00    +0.000 HD
ENDBRANCH  11  12
ENDBRANCH   8  11
ENDBRANCH   1   9
BRANCH   4  22
ATOM     22  C   UNL     1       4.103   4.488  16.831  0.00  0.00    +0.000 C 
BRANCH  22  23
ATOM     23  C   UNL     1       3.418   3.448  17.664  0.00  0.00    +0.000 A 
ATOM     24  C   UNL     1       3.478   2.077  17.494  0.00  0.00    +0.000 A 
ATOM     25  N   UNL     1       2.778   1.485  18.508  0.00  0.00    +0.000 N 
ATOM     26  C   UNL     1       2.257   2.440  19.350  0.00  0.00    +0.000 A 
ATOM     27  C   UNL     1       1.529   2.297  20.537  0.00  0.00    +0.000 A 
ATOM     28  C   UNL     1       1.117   3.461  21.191  0.00  0.00    +0.000 A 
ATOM     29  C   UNL     1       1.397   4.718  20.660  0.00  0.00    +0.000 A 
ATOM     30  C   UNL     1       2.131   4.844  19.475  0.00  0.00    +0.000 A 
ATOM     31  C   UNL     1       2.592   3.684  18.816  0.00  0.00    +0.000 A 
ATOM     32  H   UNL     1       2.676   0.489  18.642  0.00  0.00    +0.000 HD
ENDBRANCH  22  23
ENDBRANCH   4  22
TORSDOF 5
ENDMDL
MODEL 7
REMARK VINA RESULT:      -8.5      2.279      3.349
REMARK  Name = 
REMARK  5 active torsions:
REMARK  status: ('A' for Active; 'I' for Inactive)
REMARK    1  A    between atoms: C_2  and  C_3
REMARK    2  A    between atoms: C_3  and  C_4
REMARK    3  A    between atoms: N_13  and  C_14
REMARK    4  A    between atoms: N_17  and  C_18
REMARK    5  A    between atoms: C_18  and  C_19
REMARK                            x       y       z     vdW  Elec       q    Type
REMARK                         _______ _______ _______ _____ _____    ______ ____
ROOT
ATOM      1  C   UNL     1       2.818   7.016  18.588  0.00  0.00    +0.000 C 
ATOM      2  C   UNL     1       2.469   7.230  20.060  0.00  0.00    +0.000 C 
ATOM      3  C   UNL     1       1.138   7.964  20.229  0.00  0.00    +0.000 C 
ATOM      4  N   UNL     1       1.110   9.251  19.514  0.00  0.00    +0.000 NA
ATOM      5  C   UNL     1       1.433   9.084  18.085  0.00  0.00    +0.000 C 
ATOM      6  C   UNL     1       2.761   8.355  17.857  0.00  0.00    +0.000 C 
ENDROOT
BRANCH   1   9
ATOM      7  O   UNL     1       1.310   4.012  17.250  0.00  0.00    +0.000 OA
ATOM      8  C   UNL     1       2.037   4.664  18.003  0.00  0.00    +0.000 C 
ATOM      9  N   UNL     1       1.940   6.024  17.968  0.00  0.00    +0.000 N 
ATOM     10  H   UNL     1       1.281   6.335  17.265  0.00  0.00    +0.000 HD
BRANCH   8  11
ATOM     11  C   UNL     1       3.028   3.996  18.939  0.00  0.00    +0.000 C 
BRANCH  11  12
ATOM     12  C   UNL     1       4.451   4.314  18.612  0.00  0.00    +0.000 A 
ATOM     13  C   UNL     1       5.428   4.717  19.507  0.00  0.00    +0.000 A 
ATOM     14  N   UNL     1       6.582   4.955  18.812  0.00  0.00    +0.000 N 
ATOM     15  C   UNL     1       6.387   4.725  17.472  0.00  0.00    +0.000 A 
ATOM     16  C   UNL     1       7.274   4.856  16.395  0.00  0.00    +0.000 A 
ATOM     17  C   UNL     1       6.794   4.553  15.118  0.00  0.00    +0.000 A 
ATOM     18  C   UNL     1       5.480   4.136  14.928  0.00  0.00    +0.000 A 
ATOM     19  C   UNL     1       4.606   4.014  16.014  0.00  0.00    +0.000 A 
ATOM     20  C   UNL     1       5.063   4.314  17.314  0.00  0.00    +0.000 A 
ATOM     21  H   UNL     1       7.453   5.270  19.216  0.00  0.00    +0.000 HD
ENDBRANCH  11  12
ENDBRANCH   8  11
ENDBRANCH   1   9
BRANCH   4  22
ATOM     22  C   UNL     1      -0.229   9.860  19.702  0.00  0.00    +0.000 C 
BRANCH  22  23
ATOM     23  C   UNL     1      -0.323  11.207  19.052  0.00  0.00    +0.000 A 
ATOM     24  C   UNL     1      -1.183  11.579  18.035  0.00  0.00    +0.000 A 
ATOM     25  N   UNL     1      -1.003  12.910  17.783  0.00  0.00    +0.000 N 
ATOM     26  C   UNL     1      -0.041  13.428  18.618  0.00  0.00    +0.000 A 
ATOM     27  C   UNL     1       0.424  14.742  18.754  0.00  0.00    +0.000 A 
ATOM     28  C   UNL     1       1.429  14.981  19.695  0.00  0.00    +0.000 A 
ATOM     29  C   UNL     1       1.968  13.940  20.448  0.00  0.00    +0.000 A 
ATOM     30  C   UNL     1       1.489  12.634  20.302  0.00  0.00    +0.000 A 
ATOM     31  C   UNL     1       0.447  12.372  19.387  0.00  0.00    +0.000 A 
ATOM     32  H   UNL     1      -1.519  13.449  17.102  0.00  0.00    +0.000 HD
ENDBRANCH  22  23
ENDBRANCH   4  22
TORSDOF 5
ENDMDL
MODEL 8
REMARK VINA RESULT:      -8.5      1.929      9.618
REMARK  Name = 
REMARK  5 active torsions:
REMARK  status: ('A' for Active; 'I' for Inactive)
REMARK    1  A    between atoms: C_2  and  C_3
REMARK    2  A    between atoms: C_3  and  C_4
REMARK    3  A    between atoms: N_13  and  C_14
REMARK    4  A    between atoms: N_17  and  C_18
REMARK    5  A    between atoms: C_18  and  C_19
REMARK                            x       y       z     vdW  Elec       q    Type
REMARK                         _______ _______ _______ _____ _____    ______ ____
ROOT
ATOM      1  C   UNL     1       1.471   6.625  20.062  0.00  0.00    +0.000 C 
ATOM      2  C   UNL     1       1.760   5.153  20.351  0.00  0.00    +0.000 C 
ATOM      3  C   UNL     1       3.260   4.857  20.359  0.00  0.00    +0.000 C 
ATOM      4  N   UNL     1       3.920   5.263  19.107  0.00  0.00    +0.000 NA
ATOM      5  C   UNL     1       3.673   6.683  18.799  0.00  0.00    +0.000 C 
ATOM      6  C   UNL     1       2.181   7.035  18.775  0.00  0.00    +0.000 C 
ENDROOT
BRANCH   1   9
ATOM      7  O   UNL     1       1.826   9.281  22.492  0.00  0.00    +0.000 OA
ATOM      8  C   UNL     1       1.232   8.595  21.659  0.00  0.00    +0.000 C 
ATOM      9  N   UNL     1       1.855   7.477  21.187  0.00  0.00    +0.000 N 
ATOM     10  H   UNL     1       2.787   7.377  21.572  0.00  0.00    +0.000 HD
BRANCH   8  11
ATOM     11  C   UNL     1      -0.147   8.968  21.147  0.00  0.00    +0.000 C 
BRANCH  11  12
ATOM     12  C   UNL     1      -0.138  10.162  20.248  0.00  0.00    +0.000 A 
ATOM     13  C   UNL     1       0.032  10.152  18.873  0.00  0.00    +0.000 A 
ATOM     14  N   UNL     1       0.027  11.446  18.426  0.00  0.00    +0.000 N 
ATOM     15  C   UNL     1      -0.133  12.313  19.480  0.00  0.00    +0.000 A 
ATOM     16  C   UNL     1      -0.179  13.713  19.496  0.00  0.00    +0.000 A 
ATOM     17  C   UNL     1      -0.350  14.342  20.732  0.00  0.00    +0.000 A 
ATOM     18  C   UNL     1      -0.472  13.598  21.903  0.00  0.00    +0.000 A 
ATOM     19  C   UNL     1      -0.421  12.200  21.868  0.00  0.00    +0.000 A 
ATOM     20  C   UNL     1      -0.248  11.539  20.635  0.00  0.00    +0.000 A 
ATOM     21  H   UNL     1       0.142  11.731  17.464  0.00  0.00    +0.000 HD
ENDBRANCH  11  12
ENDBRANCH   8  11
ENDBRANCH   1   9
BRANCH   4  22
ATOM     22  C   UNL     1       5.371   4.978  19.231  0.00  0.00    +0.000 C 
BRANCH  22  23
ATOM     23  C   UNL     1       6.127   5.403  18.010  0.00  0.00    +0.000 A 
ATOM     24  C   UNL     1       7.118   6.366  17.941  0.00  0.00    +0.000 A 
ATOM     25  N   UNL     1       7.603   6.394  16.663  0.00  0.00    +0.000 N 
ATOM     26  C   UNL     1       6.953   5.466  15.885  0.00  0.00    +0.000 A 
ATOM     27  C   UNL     1       7.156   5.109  14.546  0.00  0.00    +0.000 A 
ATOM     28  C   UNL     1       6.330   4.120  14.005  0.00  0.00    +0.000 A 
ATOM     29  C   UNL     1       5.321   3.534  14.765  0.00  0.00    +0.000 A 
ATOM     30  C   UNL     1       5.135   3.899  16.103  0.00  0.00    +0.000 A 
ATOM     31  C   UNL     1       5.980   4.867  16.685  0.00  0.00    +0.000 A 
ATOM     32  H   UNL     1       8.350   6.990  16.338  0.00  0.00    +0.000 HD
ENDBRANCH  22  23
ENDBRANCH   4  22
TORSDOF 5
ENDMDL
MODEL 9
REMARK VINA RESULT:      -8.4      1.909      2.788
REMARK  Name = 
REMARK  5 active torsions:
REMARK  status: ('A' for Active; 'I' for Inactive)
REMARK    1  A    between atoms: C_2  and  C_3
REMARK    2  A    between atoms: C_3  and  C_4
REMARK    3  A    between atoms: N_13  and  C_14
REMARK    4  A    between atoms: N_17  and  C_18
REMARK    5  A    between atoms: C_18  and  C_19
REMARK                            x       y       z     vdW  Elec       q    Type
REMARK                         _______ _______ _______ _____ _____    ______ ____
ROOT
ATOM      1  C   UNL     1       2.918   6.639  18.738  0.00  0.00    +0.000 C 
ATOM      2  C   UNL     1       2.346   7.148  20.059  0.00  0.00    +0.000 C 
ATOM      3  C   UNL     1       1.178   8.112  19.842  0.00  0.00    +0.000 C 
ATOM      4  N   UNL     1       1.540   9.249  18.980  0.00  0.00    +0.000 NA
ATOM      5  C   UNL     1       2.088   8.797  17.688  0.00  0.00    +0.000 C 
ATOM      6  C   UNL     1       3.265   7.830  17.847  0.00  0.00    +0.000 C 
ENDROOT
BRANCH   1   9
ATOM      7  O   UNL     1       1.304   3.793  17.193  0.00  0.00    +0.000 OA
ATOM      8  C   UNL     1       2.081   4.362  17.963  0.00  0.00    +0.000 C 
ATOM      9  N   UNL     1       1.995   5.718  18.074  0.00  0.00    +0.000 N 
ATOM     10  H   UNL     1       1.298   6.102  17.447  0.00  0.00    +0.000 HD
BRANCH   8  11
ATOM     11  C   UNL     1       3.120   3.599  18.763  0.00  0.00    +0.000 C 
BRANCH  11  12
ATOM     12  C   UNL     1       4.521   4.029  18.471  0.00  0.00    +0.000 A 
ATOM     13  C   UNL     1       5.473   4.412  19.402  0.00  0.00    +0.000 A 
ATOM     14  N   UNL     1       6.609   4.779  18.734  0.00  0.00    +0.000 N 
ATOM     15  C   UNL     1       6.426   4.655  17.379  0.00  0.00    +0.000 A 
ATOM     16  C   UNL     1       7.303   4.933  16.321  0.00  0.00    +0.000 A 
ATOM     17  C   UNL     1       6.840   4.713  15.021  0.00  0.00    +0.000 A 
ATOM     18  C   UNL     1       5.554   4.235  14.790  0.00  0.00    +0.000 A 
ATOM     19  C   UNL     1       4.690   3.966  15.858  0.00  0.00    +0.000 A 
ATOM     20  C   UNL     1       5.130   4.179  17.181  0.00  0.00    +0.000 A 
ATOM     21  H   UNL     1       7.459   5.111  19.168  0.00  0.00    +0.000 HD
ENDBRANCH  11  12
ENDBRANCH   8  11
ENDBRANCH   1   9
BRANCH   4  22
ATOM     22  C   UNL     1       0.336  10.096  18.795  0.00  0.00    +0.000 C 
BRANCH  22  23
ATOM     23  C   UNL     1       0.452  11.395  19.532  0.00  0.00    +0.000 A 
ATOM     24  C   UNL     1       1.105  12.537  19.103  0.00  0.00    +0.000 A 
ATOM     25  N   UNL     1       0.909  13.520  20.033  0.00  0.00    +0.000 N 
ATOM     26  C   UNL     1       0.136  13.051  21.068  0.00  0.00    +0.000 A 
ATOM     27  C   UNL     1      -0.359  13.714  22.198  0.00  0.00    +0.000 A 
ATOM     28  C   UNL     1      -1.127  12.974  23.102  0.00  0.00    +0.000 A 
ATOM     29  C   UNL     1      -1.363  11.617  22.898  0.00  0.00    +0.000 A 
ATOM     30  C   UNL     1      -0.864  10.970  21.761  0.00  0.00    +0.000 A 
ATOM     31  C   UNL     1      -0.119  11.704  20.813  0.00  0.00    +0.000 A 
ATOM     32  H   UNL     1       1.257  14.465  19.962  0.00  0.00    +0.000 HD
ENDBRANCH  22  23
ENDBRANCH   4  22
TORSDOF 5
ENDMDL
