MODEL 1
REMARK VINA RESULT:      -6.8      0.000      0.000
REMARK  Name = 
REMARK  6 active torsions:
REMARK  status: ('A' for Active; 'I' for Inactive)
REMARK    1  A    between atoms: C_2  and  C_3
REMARK    2  A    between atoms: C_4  and  C_5
REMARK    3  A    between atoms: C_12  and  S_13
REMARK    4  A    between atoms: S_13  and  C_14
REMARK    5  A    between atoms: C_14  and  C_15
REMARK    6  A    between atoms: C_15  and  O_17
REMARK                            x       y       z     vdW  Elec       q    Type
REMARK                         _______ _______ _______ _____ _____    ______ ____
ROOT
ATOM      1  C   UNL     1       2.887   4.505  19.120  0.00  0.00    +0.000 A 
ATOM      2  C   UNL     1       3.378   5.720  18.768  0.00  0.00    +0.000 A 
ATOM      3  N   UNL     1       4.605   5.903  18.127  0.00  0.00    +0.000 NA
ATOM      4  C   UNL     1       5.211   4.824  17.741  0.00  0.00    +0.000 A 
ATOM      5  N   UNL     1       4.773   3.564  17.984  0.00  0.00    +0.000 N 
ATOM      6  C   UNL     1       3.637   3.312  18.684  0.00  0.00    +0.000 A 
ATOM      7  O   UNL     1       3.245   2.167  18.879  0.00  0.00    +0.000 OA
ATOM      8  H   UNL     1       5.293   2.776  17.629  0.00  0.00    +0.000 HD
ENDROOT
BRANCH   2   9
ATOM      9  C   UNL     1       2.454   6.941  18.878  0.00  0.00    +0.000 C 
ATOM     10  C   UNL     1       2.765   8.103  17.920  0.00  0.00    +0.000 C 
ATOM     11  C   UNL     1       1.531   9.005  17.828  0.00  0.00    +0.000 C 
ATOM     12  C   UNL     1       1.071   9.511  19.197  0.00  0.00    +0.000 C 
ATOM     13  C   UNL     1       0.996   8.418  20.268  0.00  0.00    +0.000 C 
ATOM     14  C   UNL     1       2.240   7.517  20.288  0.00  0.00    +0.000 C 
ENDBRANCH   2   9
BRANCH   1  16
ATOM     15  N   UNL     1       0.627   4.068  20.289  0.00  0.00    +0.000 NA
ATOM     16  C   UNL     1       1.639   4.299  19.774  0.00  0.00    +0.000 C 
ENDBRANCH   1  16
BRANCH   4  17
ATOM     17  S   UNL     1       6.668   4.788  16.806  0.00  0.00    +0.000 S 
BRANCH  17  18
ATOM     18  C   UNL     1       7.947   4.622  18.060  0.00  0.00    +0.000 C 
BRANCH  18  19
ATOM     19  C   UNL     1       7.968   5.801  19.000  0.00  0.00    +0.000 C 
ATOM     20  O   UNL     1       8.090   6.968  18.651  0.00  0.00    +0.000 OA
BRANCH  19  21
ATOM     21  O   UNL     1       7.858   5.458  20.308  0.00  0.00    +0.000 OA
ATOM     22  H   UNL     1       6.947   5.181  20.565  0.00  0.00    +0.000 HD
ENDBRANCH  19  21
ENDBRANCH  18  19
ENDBRANCH  17  18
ENDBRANCH   4  17
TORSDOF 6
ENDMDL
MODEL 2
REMARK VINA RESULT:      -6.8      3.526      5.716
REMARK  Name = 
REMARK  6 active torsions:
REMARK  status: ('A' for Active; 'I' for Inactive)
REMARK    1  A    between atoms: C_2  and  C_3
REMARK    2  A    between atoms: C_4  and  C_5
REMARK    3  A    between atoms: C_12  and  S_13
REMARK    4  A    between atoms: S_13  and  C_14
REMARK    5  A    between atoms: C_14  and  C_15
REMARK    6  A    between atoms: C_15  and  O_17
REMARK                            x       y       z     vdW  Elec       q    Type
REMARK                         _______ _______ _______ _____ _____    ______ ____
ROOT
ATOM      1  C   UNL     1       3.355   4.512  19.639  0.00  0.00    +0.000 A 
ATOM      2  C   UNL     1       3.657   5.461  18.718  0.00  0.00    +0.000 A 
ATOM      3  N   UNL     1       3.059   6.723  18.685  0.00  0.00    +0.000 NA
ATOM      4  C   UNL     1       2.286   7.013  19.684  0.00  0.00    +0.000 A 
ATOM      5  N   UNL     1       1.972   6.159  20.689  0.00  0.00    +0.000 N 
ATOM      6  C   UNL     1       2.441   4.886  20.734  0.00  0.00    +0.000 A 
ATOM      7  O   UNL     1       2.162   4.132  21.661  0.00  0.00    +0.000 OA
ATOM      8  H   UNL     1       1.378   6.470  21.443  0.00  0.00    +0.000 HD
ENDROOT
BRANCH   2   9
ATOM      9  C   UNL     1       4.864   5.230  17.799  0.00  0.00    +0.000 C 
ATOM     10  C   UNL     1       5.722   6.470  17.498  0.00  0.00    +0.000 C 
ATOM     11  C   UNL     1       7.087   6.007  16.979  0.00  0.00    +0.000 C 
ATOM     12  C   UNL     1       6.969   5.093  15.757  0.00  0.00    +0.000 C 
ATOM     13  C   UNL     1       5.923   3.984  15.911  0.00  0.00    +0.000 C 
ATOM     14  C   UNL     1       4.590   4.496  16.476  0.00  0.00    +0.000 C 
ENDBRANCH   2   9
BRANCH   1  16
ATOM     15  N   UNL     1       4.442   2.174  19.795  0.00  0.00    +0.000 NA
ATOM     16  C   UNL     1       3.952   3.220  19.689  0.00  0.00    +0.000 C 
ENDBRANCH   1  16
BRANCH   4  17
ATOM     17  S   UNL     1       1.544   8.555  19.945  0.00  0.00    +0.000 S 
BRANCH  17  18
ATOM     18  C   UNL     1       0.630   8.308  21.476  0.00  0.00    +0.000 C 
BRANCH  18  19
ATOM     19  C   UNL     1       1.023   9.309  22.532  0.00  0.00    +0.000 C 
ATOM     20  O   UNL     1       0.252  10.095  23.069  0.00  0.00    +0.000 OA
BRANCH  19  21
ATOM     21  O   UNL     1       2.344   9.286  22.842  0.00  0.00    +0.000 OA
ATOM     22  H   UNL     1       2.779   8.426  22.636  0.00  0.00    +0.000 HD
ENDBRANCH  19  21
ENDBRANCH  18  19
ENDBRANCH  17  18
ENDBRANCH   4  17
TORSDOF 6
ENDMDL
MODEL 3
REMARK VINA RESULT:      -6.8      1.813      2.018
REMARK  Name = 
REMARK  6 active torsions:
REMARK  status: ('A' for Active; 'I' for Inactive)
REMARK    1  A    between atoms: C_2  and  C_3
REMARK    2  A    between atoms: C_4  and  C_5
REMARK    3  A    between atoms: C_12  and  S_13
REMARK    4  A    between atoms: S_13  and  C_14
REMARK    5  A    between atoms: C_14  and  C_15
REMARK    6  A    between atoms: C_15  and  O_17
REMARK                            x       y       z     vdW  Elec       q    Type
REMARK                         _______ _______ _______ _____ _____    ______ ____
ROOT
ATOM      1  C   UNL     1       3.173   4.396  19.474  0.00  0.00    +0.000 A 
ATOM      2  C   UNL     1       3.663   5.618  19.149  0.00  0.00    +0.000 A 
ATOM      3  N   UNL     1       4.973   5.836  18.714  0.00  0.00    +0.000 NA
ATOM      4  C   UNL     1       5.681   4.774  18.491  0.00  0.00    +0.000 A 
ATOM      5  N   UNL     1       5.263   3.505  18.721  0.00  0.00    +0.000 N 
ATOM      6  C   UNL     1       4.037   3.226  19.231  0.00  0.00    +0.000 A 
ATOM      7  O   UNL     1       3.667   2.071  19.416  0.00  0.00    +0.000 OA
ATOM      8  H   UNL     1       5.870   2.730  18.498  0.00  0.00    +0.000 HD
ENDROOT
BRANCH   2   9
ATOM      9  C   UNL     1       2.682   6.794  19.040  0.00  0.00    +0.000 C 
ATOM     10  C   UNL     1       3.032   7.860  17.989  0.00  0.00    +0.000 C 
ATOM     11  C   UNL     1       1.774   8.682  17.688  0.00  0.00    +0.000 C 
ATOM     12  C   UNL     1       1.167   9.308  18.946  0.00  0.00    +0.000 C 
ATOM     13  C   UNL     1       1.041   8.334  20.123  0.00  0.00    +0.000 C 
ATOM     14  C   UNL     1       2.314   7.506  20.352  0.00  0.00    +0.000 C 
ENDBRANCH   2   9
BRANCH   1  16
ATOM     15  N   UNL     1       0.770   3.893  20.275  0.00  0.00    +0.000 NA
ATOM     16  C   UNL     1       1.842   4.155  19.919  0.00  0.00    +0.000 C 
ENDBRANCH   1  16
BRANCH   4  17
ATOM     17  S   UNL     1       7.276   4.773  17.817  0.00  0.00    +0.000 S 
BRANCH  17  18
ATOM     18  C   UNL     1       7.005   4.177  16.141  0.00  0.00    +0.000 C 
BRANCH  18  19
ATOM     19  C   UNL     1       6.760   5.308  15.175  0.00  0.00    +0.000 C 
ATOM     20  O   UNL     1       5.730   5.968  15.121  0.00  0.00    +0.000 OA
BRANCH  19  21
ATOM     21  O   UNL     1       7.795   5.537  14.328  0.00  0.00    +0.000 OA
ATOM     22  H   UNL     1       8.478   4.825  14.342  0.00  0.00    +0.000 HD
ENDBRANCH  19  21
ENDBRANCH  18  19
ENDBRANCH  17  18
ENDBRANCH   4  17
TORSDOF 6
ENDMDL
MODEL 4
REMARK VINA RESULT:      -6.7      1.333      1.412
REMARK  Name = 
REMARK  6 active torsions:
REMARK  status: ('A' for Active; 'I' for Inactive)
REMARK    1  A    between atoms: C_2  and  C_3
REMARK    2  A    between atoms: C_4  and  C_5
REMARK    3  A    between atoms: C_12  and  S_13
REMARK    4  A    between atoms: S_13  and  C_14
REMARK    5  A    between atoms: C_14  and  C_15
REMARK    6  A    between atoms: C_15  and  O_17
REMARK                            x       y       z     vdW  Elec       q    Type
REMARK                         _______ _______ _______ _____ _____    ______ ____
ROOT
ATOM      1  C   UNL     1       3.100   4.283  19.509  0.00  0.00    +0.000 A 
ATOM      2  C   UNL     1       3.617   5.520  19.308  0.00  0.00    +0.000 A 
ATOM      3  N   UNL     1       4.966   5.758  19.030  0.00  0.00    +0.000 NA
ATOM      4  C   UNL     1       5.698   4.709  18.825  0.00  0.00    +0.000 A 
ATOM      5  N   UNL     1       5.262   3.430  18.936  0.00  0.00    +0.000 N 
ATOM      6  C   UNL     1       3.989   3.126  19.295  0.00  0.00    +0.000 A 
ATOM      7  O   UNL     1       3.605   1.963  19.374  0.00  0.00    +0.000 OA
ATOM      8  H   UNL     1       5.892   2.667  18.738  0.00  0.00    +0.000 HD
ENDROOT
BRANCH   2   9
ATOM      9  C   UNL     1       2.650   6.702  19.160  0.00  0.00    +0.000 C 
ATOM     10  C   UNL     1       3.021   7.740  18.088  0.00  0.00    +0.000 C 
ATOM     11  C   UNL     1       1.775   8.566  17.753  0.00  0.00    +0.000 C 
ATOM     12  C   UNL     1       1.162   9.228  18.990  0.00  0.00    +0.000 C 
ATOM     13  C   UNL     1       1.013   8.284  20.188  0.00  0.00    +0.000 C 
ATOM     14  C   UNL     1       2.275   7.450  20.451  0.00  0.00    +0.000 C 
ENDBRANCH   2   9
BRANCH   1  16
ATOM     15  N   UNL     1       0.633   3.772  20.079  0.00  0.00    +0.000 NA
ATOM     16  C   UNL     1       1.729   4.020  19.794  0.00  0.00    +0.000 C 
ENDBRANCH   1  16
BRANCH   4  17
ATOM     17  S   UNL     1       7.356   4.742  18.328  0.00  0.00    +0.000 S 
BRANCH  17  18
ATOM     18  C   UNL     1       7.829   6.453  18.616  0.00  0.00    +0.000 C 
BRANCH  18  19
ATOM     19  C   UNL     1       7.649   7.301  17.382  0.00  0.00    +0.000 C 
ATOM     20  O   UNL     1       7.574   8.524  17.381  0.00  0.00    +0.000 OA
BRANCH  19  21
ATOM     21  O   UNL     1       7.555   6.583  16.235  0.00  0.00    +0.000 OA
ATOM     22  H   UNL     1       6.675   6.155  16.112  0.00  0.00    +0.000 HD
ENDBRANCH  19  21
ENDBRANCH  18  19
ENDBRANCH  17  18
ENDBRANCH   4  17
TORSDOF 6
ENDMDL
MODEL 5
REMARK VINA RESULT:      -6.6      1.058      1.105
REMARK  Name = 
REMARK  6 active torsions:
REMARK  status: ('A' for Active; 'I' for Inactive)
REMARK    1  A    between atoms: C_2  and  C_3
REMARK    2  A    between atoms: C_4  and  C_5
REMARK    3  A    between atoms: C_12  and  S_13
REMARK    4  A    between atoms: S_13  and  C_14
REMARK    5  A    between atoms: C_14  and  C_15
REMARK    6  A    between atoms: C_15  and  O_17
REMARK                            x       y       z     vdW  Elec       q    Type
REMARK                         _______ _______ _______ _____ _____    ______ ____
ROOT
ATOM      1  C   UNL     1       2.632   4.538  18.494  0.00  0.00    +0.000 A 
ATOM      2  C   UNL     1       3.074   5.781  18.177  0.00  0.00    +0.000 A 
ATOM      3  N   UNL     1       4.129   6.024  17.294  0.00  0.00    +0.000 NA
ATOM      4  C   UNL     1       4.590   4.992  16.660  0.00  0.00    +0.000 A 
ATOM      5  N   UNL     1       4.172   3.717  16.856  0.00  0.00    +0.000 N 
ATOM      6  C   UNL     1       3.218   3.397  17.766  0.00  0.00    +0.000 A 
ATOM      7  O   UNL     1       2.838   2.240  17.917  0.00  0.00    +0.000 OA
ATOM      8  H   UNL     1       4.568   2.971  16.304  0.00  0.00    +0.000 HD
ENDROOT
BRANCH   2   9
ATOM      9  C   UNL     1       2.246   6.990  18.633  0.00  0.00    +0.000 C 
ATOM     10  C   UNL     1       2.433   8.276  17.811  0.00  0.00    +0.000 C 
ATOM     11  C   UNL     1       1.247   9.207  18.083  0.00  0.00    +0.000 C 
ATOM     12  C   UNL     1       1.070   9.511  19.572  0.00  0.00    +0.000 C 
ATOM     13  C   UNL     1       1.140   8.271  20.470  0.00  0.00    +0.000 C 
ATOM     14  C   UNL     1       2.321   7.351  20.125  0.00  0.00    +0.000 C 
ENDBRANCH   2   9
BRANCH   1  16
ATOM     15  N   UNL     1       0.730   4.020  20.161  0.00  0.00    +0.000 NA
ATOM     16  C   UNL     1       1.560   4.270  19.391  0.00  0.00    +0.000 C 
ENDBRANCH   1  16
BRANCH   4  17
ATOM     17  S   UNL     1       5.792   5.051  15.416  0.00  0.00    +0.000 S 
BRANCH  17  18
ATOM     18  C   UNL     1       7.289   4.546  16.278  0.00  0.00    +0.000 C 
BRANCH  18  19
ATOM     19  C   UNL     1       7.298   5.016  17.710  0.00  0.00    +0.000 C 
ATOM     20  O   UNL     1       7.752   6.088  18.089  0.00  0.00    +0.000 OA
BRANCH  19  21
ATOM     21  O   UNL     1       6.764   4.123  18.581  0.00  0.00    +0.000 OA
ATOM     22  H   UNL     1       7.439   3.569  19.038  0.00  0.00    +0.000 HD
ENDBRANCH  19  21
ENDBRANCH  18  19
ENDBRANCH  17  18
ENDBRANCH   4  17
TORSDOF 6
ENDMDL
MODEL 6
REMARK VINA RESULT:      -6.6      2.340      2.637
REMARK  Name = 
REMARK  6 active torsions:
REMARK  status: ('A' for Active; 'I' for Inactive)
REMARK    1  A    between atoms: C_2  and  C_3
REMARK    2  A    between atoms: C_4  and  C_5
REMARK    3  A    between atoms: C_12  and  S_13
REMARK    4  A    between atoms: S_13  and  C_14
REMARK    5  A    between atoms: C_14  and  C_15
REMARK    6  A    between atoms: C_15  and  O_17
REMARK                            x       y       z     vdW  Elec       q    Type
REMARK                         _______ _______ _______ _____ _____    ______ ____
ROOT
ATOM      1  C   UNL     1       2.977   4.209  18.540  0.00  0.00    +0.000 A 
ATOM      2  C   UNL     1       3.514   5.445  18.389  0.00  0.00    +0.000 A 
ATOM      3  N   UNL     1       4.767   5.679  17.818  0.00  0.00    +0.000 NA
ATOM      4  C   UNL     1       5.353   4.650  17.293  0.00  0.00    +0.000 A 
ATOM      5  N   UNL     1       4.871   3.383  17.332  0.00  0.00    +0.000 N 
ATOM      6  C   UNL     1       3.705   3.069  17.952  0.00  0.00    +0.000 A 
ATOM      7  O   UNL     1       3.273   1.921  17.962  0.00  0.00    +0.000 OA
ATOM      8  H   UNL     1       5.379   2.640  16.878  0.00  0.00    +0.000 HD
ENDROOT
BRANCH   2   9
ATOM      9  C   UNL     1       2.623   6.667  18.653  0.00  0.00    +0.000 C 
ATOM     10  C   UNL     1       2.925   7.911  17.801  0.00  0.00    +0.000 C 
ATOM     11  C   UNL     1       1.708   8.841  17.846  0.00  0.00    +0.000 C 
ATOM     12  C   UNL     1       1.312   9.220  19.275  0.00  0.00    +0.000 C 
ATOM     13  C   UNL     1       1.254   8.029  20.238  0.00  0.00    +0.000 C 
ATOM     14  C   UNL     1       2.476   7.106  20.120  0.00  0.00    +0.000 C 
ENDBRANCH   2   9
BRANCH   1  16
ATOM     15  N   UNL     1       0.692   3.695  19.630  0.00  0.00    +0.000 NA
ATOM     16  C   UNL     1       1.702   3.951  19.119  0.00  0.00    +0.000 C 
ENDBRANCH   1  16
BRANCH   4  17
ATOM     17  S   UNL     1       6.840   4.704  16.406  0.00  0.00    +0.000 S 
BRANCH  17  18
ATOM     18  C   UNL     1       6.390   3.978  14.822  0.00  0.00    +0.000 C 
BRANCH  18  19
ATOM     19  C   UNL     1       7.120   4.633  13.677  0.00  0.00    +0.000 C 
ATOM     20  O   UNL     1       7.897   5.572  13.791  0.00  0.00    +0.000 OA
BRANCH  19  21
ATOM     21  O   UNL     1       6.826   4.098  12.465  0.00  0.00    +0.000 OA
ATOM     22  H   UNL     1       5.981   3.591  12.455  0.00  0.00    +0.000 HD
ENDBRANCH  19  21
ENDBRANCH  18  19
ENDBRANCH  17  18
ENDBRANCH   4  17
TORSDOF 6
ENDMDL
MODEL 7
REMARK VINA RESULT:      -6.5      3.302      5.632
REMARK  Name = 
REMARK  6 active torsions:
REMARK  status: ('A' for Active; 'I' for Inactive)
REMARK    1  A    between atoms: C_2  and  C_3
REMARK    2  A    between atoms: C_4  and  C_5
REMARK    3  A    between atoms: C_12  and  S_13
REMARK    4  A    between atoms: S_13  and  C_14
REMARK    5  A    between atoms: C_14  and  C_15
REMARK    6  A    between atoms: C_15  and  O_17
REMARK                            x       y       z     vdW  Elec       q    Type
REMARK                         _______ _______ _______ _____ _____    ______ ____
ROOT
ATOM      1  C   UNL     1       3.476   4.117  19.775  0.00  0.00    +0.000 A 
ATOM      2  C   UNL     1       3.770   5.034  18.820  0.00  0.00    +0.000 A 
ATOM      3  N   UNL     1       3.156   6.286  18.735  0.00  0.00    +0.000 NA
ATOM      4  C   UNL     1       2.373   6.603  19.718  0.00  0.00    +0.000 A 
ATOM      5  N   UNL     1       2.065   5.784  20.754  0.00  0.00    +0.000 N 
ATOM      6  C   UNL     1       2.551   4.521  20.851  0.00  0.00    +0.000 A 
ATOM      7  O   UNL     1       2.277   3.799  21.804  0.00  0.00    +0.000 OA
ATOM      8  H   UNL     1       1.463   6.116  21.493  0.00  0.00    +0.000 HD
ENDROOT
BRANCH   2   9
ATOM      9  C   UNL     1       4.985   4.785  17.916  0.00  0.00    +0.000 C 
ATOM     10  C   UNL     1       6.058   5.886  17.920  0.00  0.00    +0.000 C 
ATOM     11  C   UNL     1       7.360   5.303  17.362  0.00  0.00    +0.000 C 
ATOM     12  C   UNL     1       7.181   4.696  15.969  0.00  0.00    +0.000 C 
ATOM     13  C   UNL     1       5.956   3.784  15.844  0.00  0.00    +0.000 C 
ATOM     14  C   UNL     1       4.689   4.399  16.457  0.00  0.00    +0.000 C 
ENDBRANCH   2   9
BRANCH   1  16
ATOM     15  N   UNL     1       4.637   1.814  19.918  0.00  0.00    +0.000 NA
ATOM     16  C   UNL     1       4.091   2.836  19.878  0.00  0.00    +0.000 C 
ENDBRANCH   1  16
BRANCH   4  17
ATOM     17  S   UNL     1       1.609   8.144  19.917  0.00  0.00    +0.000 S 
BRANCH  17  18
ATOM     18  C   UNL     1       1.885   8.939  18.327  0.00  0.00    +0.000 C 
BRANCH  18  19
ATOM     19  C   UNL     1       1.629  10.423  18.389  0.00  0.00    +0.000 C 
ATOM     20  O   UNL     1       0.908  10.972  19.212  0.00  0.00    +0.000 OA
BRANCH  19  21
ATOM     21  O   UNL     1       2.265  11.127  17.419  0.00  0.00    +0.000 OA
ATOM     22  H   UNL     1       3.127  11.507  17.711  0.00  0.00    +0.000 HD
ENDBRANCH  19  21
ENDBRANCH  18  19
ENDBRANCH  17  18
ENDBRANCH   4  17
TORSDOF 6
ENDMDL
MODEL 8
REMARK VINA RESULT:      -6.4      3.617      5.851
REMARK  Name = 
REMARK  6 active torsions:
REMARK  status: ('A' for Active; 'I' for Inactive)
REMARK    1  A    between atoms: C_2  and  C_3
REMARK    2  A    between atoms: C_4  and  C_5
REMARK    3  A    between atoms: C_12  and  S_13
REMARK    4  A    between atoms: S_13  and  C_14
REMARK    5  A    between atoms: C_14  and  C_15
REMARK    6  A    between atoms: C_15  and  O_17
REMARK                            x       y       z     vdW  Elec       q    Type
REMARK                         _______ _______ _______ _____ _____    ______ ____
ROOT
ATOM      1  C   UNL     1       3.256   4.361  19.702  0.00  0.00    +0.000 A 
ATOM      2  C   UNL     1       3.574   5.376  18.861  0.00  0.00    +0.000 A 
ATOM      3  N   UNL     1       3.006   6.650  18.937  0.00  0.00    +0.000 NA
ATOM      4  C   UNL     1       2.246   6.873  19.962  0.00  0.00    +0.000 A 
ATOM      5  N   UNL     1       1.918   5.946  20.896  0.00  0.00    +0.000 N 
ATOM      6  C   UNL     1       2.357   4.664  20.832  0.00  0.00    +0.000 A 
ATOM      7  O   UNL     1       2.066   3.842  21.695  0.00  0.00    +0.000 OA
ATOM      8  H   UNL     1       1.336   6.208  21.678  0.00  0.00    +0.000 HD
ENDROOT
BRANCH   2   9
ATOM      9  C   UNL     1       4.770   5.195  17.916  0.00  0.00    +0.000 C 
ATOM     10  C   UNL     1       6.156   5.417  18.543  0.00  0.00    +0.000 C 
ATOM     11  C   UNL     1       7.211   4.770  17.640  0.00  0.00    +0.000 C 
ATOM     12  C   UNL     1       7.152   5.292  16.202  0.00  0.00    +0.000 C 
ATOM     13  C   UNL     1       5.737   5.338  15.617  0.00  0.00    +0.000 C 
ATOM     14  C   UNL     1       4.713   5.955  16.581  0.00  0.00    +0.000 C 
ENDBRANCH   2   9
BRANCH   1  16
ATOM     15  N   UNL     1       4.253   1.985  19.532  0.00  0.00    +0.000 NA
ATOM     16  C   UNL     1       3.823   3.056  19.640  0.00  0.00    +0.000 C 
ENDBRANCH   1  16
BRANCH   4  17
ATOM     17  S   UNL     1       1.542   8.405  20.357  0.00  0.00    +0.000 S 
BRANCH  17  18
ATOM     18  C   UNL     1       1.409   9.212  18.755  0.00  0.00    +0.000 C 
BRANCH  18  19
ATOM     19  C   UNL     1       0.230  10.150  18.694  0.00  0.00    +0.000 C 
ATOM     20  O   UNL     1      -0.114  10.897  19.601  0.00  0.00    +0.000 OA
BRANCH  19  21
ATOM     21  O   UNL     1      -0.457  10.087  17.526  0.00  0.00    +0.000 OA
ATOM     22  H   UNL     1      -0.265  10.839  16.918  0.00  0.00    +0.000 HD
ENDBRANCH  19  21
ENDBRANCH  18  19
ENDBRANCH  17  18
ENDBRANCH   4  17
TORSDOF 6
ENDMDL
MODEL 9
REMARK VINA RESULT:      -6.4      1.684      1.736
REMARK  Name = 
REMARK  6 active torsions:
REMARK  status: ('A' for Active; 'I' for Inactive)
REMARK    1  A    between atoms: C_2  and  C_3
REMARK    2  A    between atoms: C_4  and  C_5
REMARK    3  A    between atoms: C_12  and  S_13
REMARK    4  A    between atoms: S_13  and  C_14
REMARK    5  A    between atoms: C_14  and  C_15
REMARK    6  A    between atoms: C_15  and  O_17
REMARK                            x       y       z     vdW  Elec       q    Type
REMARK                         _______ _______ _______ _____ _____    ______ ____
ROOT
ATOM      1  C   UNL     1       3.210   4.554  18.369  0.00  0.00    +0.000 A 
ATOM      2  C   UNL     1       3.559   5.719  18.969  0.00  0.00    +0.000 A 
ATOM      3  N   UNL     1       4.842   5.983  19.456  0.00  0.00    +0.000 NA
ATOM      4  C   UNL     1       5.749   5.101  19.176  0.00  0.00    +0.000 A 
ATOM      5  N   UNL     1       5.517   3.935  18.524  0.00  0.00    +0.000 N 
ATOM      6  C   UNL     1       4.278   3.571  18.107  0.00  0.00    +0.000 A 
ATOM      7  O   UNL     1       4.088   2.521  17.502  0.00  0.00    +0.000 OA
ATOM      8  H   UNL     1       6.284   3.312  18.326  0.00  0.00    +0.000 HD
ENDROOT
BRANCH   2   9
ATOM      9  C   UNL     1       2.570   6.891  18.922  0.00  0.00    +0.000 C 
ATOM     10  C   UNL     1       2.910   8.014  17.928  0.00  0.00    +0.000 C 
ATOM     11  C   UNL     1       1.646   8.840  17.672  0.00  0.00    +0.000 C 
ATOM     12  C   UNL     1       1.037   9.395  18.962  0.00  0.00    +0.000 C 
ATOM     13  C   UNL     1       0.919   8.361  20.086  0.00  0.00    +0.000 C 
ATOM     14  C   UNL     1       2.198   7.531  20.270  0.00  0.00    +0.000 C 
ENDBRANCH   2   9
BRANCH   1  16
ATOM     15  N   UNL     1       0.876   4.026  17.398  0.00  0.00    +0.000 NA
ATOM     16  C   UNL     1       1.908   4.266  17.867  0.00  0.00    +0.000 C 
ENDBRANCH   1  16
BRANCH   4  17
ATOM     17  S   UNL     1       7.433   5.265  19.542  0.00  0.00    +0.000 S 
BRANCH  17  18
ATOM     18  C   UNL     1       7.942   6.638  18.496  0.00  0.00    +0.000 C 
BRANCH  18  19
ATOM     19  C   UNL     1       7.312   6.566  17.129  0.00  0.00    +0.000 C 
ATOM     20  O   UNL     1       6.600   7.436  16.643  0.00  0.00    +0.000 OA
BRANCH  19  21
ATOM     21  O   UNL     1       7.585   5.417  16.461  0.00  0.00    +0.000 OA
ATOM     22  H   UNL     1       7.572   5.522  15.481  0.00  0.00    +0.000 HD
ENDBRANCH  19  21
ENDBRANCH  18  19
ENDBRANCH  17  18
ENDBRANCH   4  17
TORSDOF 6
ENDMDL
