MODEL 1
REMARK VINA RESULT:      -7.1      0.000      0.000
REMARK  Name = 
REMARK  4 active torsions:
REMARK  status: ('A' for Active; 'I' for Inactive)
REMARK    1  A    between atoms: C_1  and  C_2
REMARK    2  A    between atoms: C_9  and  C_10
REMARK    3  A    between atoms: C_10  and  N_11
REMARK    4  A    between atoms: C_12  and  C_14
REMARK                            x       y       z     vdW  Elec       q    Type
REMARK                         _______ _______ _______ _____ _____    ______ ____
ROOT
ATOM      1  N   UNL     1       1.459   6.796  20.836  0.00  0.00    +0.000 N 
ATOM      2  C   UNL     1       2.200   5.854  20.158  0.00  0.00    +0.000 C 
ATOM      3  O   UNL     1       3.289   6.132  19.663  0.00  0.00    +0.000 OA
ATOM      4  H   UNL     1       0.629   6.512  21.341  0.00  0.00    +0.000 HD
ENDROOT
BRANCH   2   5
ATOM      5  C   UNL     1       1.675   4.420  20.171  0.00  0.00    +0.000 C 
ATOM      6  C   UNL     1       2.073   3.720  21.513  0.00  0.00    +0.000 C 
ATOM      7  O   UNL     1       2.975   2.599  21.222  0.00  0.00    +0.000 OA
ATOM      8  C   UNL     1       3.058   2.537  19.879  0.00  0.00    +0.000 A 
ATOM      9  N   UNL     1       3.721   1.650  19.087  0.00  0.00    +0.000 NA
ATOM     10  C   UNL     1       3.459   1.969  17.832  0.00  0.00    +0.000 A 
ATOM     11  S   UNL     1       2.373   3.303  17.584  0.00  0.00    +0.000 S 
ATOM     12  C   UNL     1       2.349   3.508  19.246  0.00  0.00    +0.000 A 
ENDBRANCH   2   5
BRANCH   1  13
ATOM     13  C   UNL     1       1.892   8.176  20.987  0.00  0.00    +0.000 C 
BRANCH  13  22
ATOM     14  C   UNL     1      -0.152   9.553  22.758  0.00  0.00    +0.000 C 
ATOM     15  C   UNL     1      -0.068   9.808  21.274  0.00  0.00    +0.000 A 
ATOM     16  C   UNL     1      -1.003  10.705  20.717  0.00  0.00    +0.000 A 
ATOM     17  C   UNL     1      -0.997  10.987  19.357  0.00  0.00    +0.000 A 
ATOM     18 CL   UNL     1      -2.154  12.078  18.703  0.00  0.00    +0.000 Cl
ATOM     19  C   UNL     1      -0.068  10.383  18.523  0.00  0.00    +0.000 A 
ATOM     20  C   UNL     1       0.862   9.485  19.056  0.00  0.00    +0.000 A 
ATOM     21 CL   UNL     1       1.941   8.736  17.925  0.00  0.00    +0.000 Cl
ATOM     22  C   UNL     1       0.899   9.186  20.437  0.00  0.00    +0.000 A 
ENDBRANCH  13  22
ENDBRANCH   1  13
TORSDOF 3
ENDMDL
MODEL 2
REMARK VINA RESULT:      -7.0      1.306      1.974
REMARK  Name = 
REMARK  4 active torsions:
REMARK  status: ('A' for Active; 'I' for Inactive)
REMARK    1  A    between atoms: C_1  and  C_2
REMARK    2  A    between atoms: C_9  and  C_10
REMARK    3  A    between atoms: C_10  and  N_11
REMARK    4  A    between atoms: C_12  and  C_14
REMARK                            x       y       z     vdW  Elec       q    Type
REMARK                         _______ _______ _______ _____ _____    ______ ____
ROOT
ATOM      1  N   UNL     1       1.460   6.851  20.901  0.00  0.00    +0.000 N 
ATOM      2  C   UNL     1       2.143   5.935  20.133  0.00  0.00    +0.000 C 
ATOM      3  O   UNL     1       3.180   6.238  19.548  0.00  0.00    +0.000 OA
ATOM      4  H   UNL     1       0.681   6.545  21.472  0.00  0.00    +0.000 HD
ENDROOT
BRANCH   2   5
ATOM      5  C   UNL     1       1.633   4.496  20.154  0.00  0.00    +0.000 C 
ATOM      6  C   UNL     1       2.030   3.811  21.505  0.00  0.00    +0.000 C 
ATOM      7  O   UNL     1       2.945   2.697  21.229  0.00  0.00    +0.000 OA
ATOM      8  C   UNL     1       3.037   2.625  19.888  0.00  0.00    +0.000 A 
ATOM      9  N   UNL     1       3.715   1.739  19.108  0.00  0.00    +0.000 NA
ATOM     10  C   UNL     1       3.457   2.044  17.847  0.00  0.00    +0.000 A 
ATOM     11  S   UNL     1       2.359   3.364  17.582  0.00  0.00    +0.000 S 
ATOM     12  C   UNL     1       2.322   3.583  19.242  0.00  0.00    +0.000 A 
ENDBRANCH   2   5
BRANCH   1  13
ATOM     13  C   UNL     1       1.894   8.231  21.049  0.00  0.00    +0.000 C 
BRANCH  13  22
ATOM     14  C   UNL     1       1.587   9.110  18.160  0.00  0.00    +0.000 C 
ATOM     15  C   UNL     1       0.727   9.664  19.268  0.00  0.00    +0.000 A 
ATOM     16  C   UNL     1      -0.227  10.642  18.920  0.00  0.00    +0.000 A 
ATOM     17  C   UNL     1      -1.053  11.209  19.884  0.00  0.00    +0.000 A 
ATOM     18 CL   UNL     1      -2.201  12.406  19.432  0.00  0.00    +0.000 Cl
ATOM     19  C   UNL     1      -0.944  10.820  21.210  0.00  0.00    +0.000 A 
ATOM     20  C   UNL     1       0.001   9.856  21.576  0.00  0.00    +0.000 A 
ATOM     21 CL   UNL     1       0.101   9.482  23.265  0.00  0.00    +0.000 Cl
ATOM     22  C   UNL     1       0.846   9.245  20.622  0.00  0.00    +0.000 A 
ENDBRANCH  13  22
ENDBRANCH   1  13
TORSDOF 3
ENDMDL
MODEL 3
REMARK VINA RESULT:      -6.5      3.533      4.549
REMARK  Name = 
REMARK  4 active torsions:
REMARK  status: ('A' for Active; 'I' for Inactive)
REMARK    1  A    between atoms: C_1  and  C_2
REMARK    2  A    between atoms: C_9  and  C_10
REMARK    3  A    between atoms: C_10  and  N_11
REMARK    4  A    between atoms: C_12  and  C_14
REMARK                            x       y       z     vdW  Elec       q    Type
REMARK                         _______ _______ _______ _____ _____    ______ ____
ROOT
ATOM      1  N   UNL     1       3.864   5.454  17.981  0.00  0.00    +0.000 N 
ATOM      2  C   UNL     1       4.529   4.394  18.554  0.00  0.00    +0.000 C 
ATOM      3  O   UNL     1       3.928   3.521  19.174  0.00  0.00    +0.000 OA
ATOM      4  H   UNL     1       4.364   6.089  17.371  0.00  0.00    +0.000 HD
ENDROOT
BRANCH   2   5
ATOM      5  C   UNL     1       6.024   4.278  18.266  0.00  0.00    +0.000 C 
ATOM      6  C   UNL     1       6.787   5.479  18.920  0.00  0.00    +0.000 C 
ATOM      7  O   UNL     1       7.402   6.291  17.863  0.00  0.00    +0.000 OA
ATOM      8  C   UNL     1       7.149   5.641  16.711  0.00  0.00    +0.000 A 
ATOM      9  N   UNL     1       7.538   5.938  15.441  0.00  0.00    +0.000 NA
ATOM     10  C   UNL     1       7.088   4.976  14.654  0.00  0.00    +0.000 A 
ATOM     11  S   UNL     1       6.237   3.676  15.435  0.00  0.00    +0.000 S 
ATOM     12  C   UNL     1       6.406   4.516  16.874  0.00  0.00    +0.000 A 
ENDBRANCH   2   5
BRANCH   1  13
ATOM     13  C   UNL     1       2.425   5.631  18.092  0.00  0.00    +0.000 C 
BRANCH  13  22
ATOM     14  C   UNL     1       1.487   4.659  20.810  0.00  0.00    +0.000 C 
ATOM     15  C   UNL     1       1.557   6.123  20.457  0.00  0.00    +0.000 A 
ATOM     16  C   UNL     1       1.142   7.046  21.438  0.00  0.00    +0.000 A 
ATOM     17  C   UNL     1       1.168   8.413  21.188  0.00  0.00    +0.000 A 
ATOM     18 CL   UNL     1       0.647   9.517  22.399  0.00  0.00    +0.000 Cl
ATOM     19  C   UNL     1       1.602   8.889  19.960  0.00  0.00    +0.000 A 
ATOM     20  C   UNL     1       2.011   7.988  18.972  0.00  0.00    +0.000 A 
ATOM     21 CL   UNL     1       2.478   8.676  17.451  0.00  0.00    +0.000 Cl
ATOM     22  C   UNL     1       2.015   6.592  19.195  0.00  0.00    +0.000 A 
ENDBRANCH  13  22
ENDBRANCH   1  13
TORSDOF 3
ENDMDL
MODEL 4
REMARK VINA RESULT:      -6.5      3.783      4.904
REMARK  Name = 
REMARK  4 active torsions:
REMARK  status: ('A' for Active; 'I' for Inactive)
REMARK    1  A    between atoms: C_1  and  C_2
REMARK    2  A    between atoms: C_9  and  C_10
REMARK    3  A    between atoms: C_10  and  N_11
REMARK    4  A    between atoms: C_12  and  C_14
REMARK                            x       y       z     vdW  Elec       q    Type
REMARK                         _______ _______ _______ _____ _____    ______ ____
ROOT
ATOM      1  N   UNL     1       3.936   5.144  17.929  0.00  0.00    +0.000 N 
ATOM      2  C   UNL     1       4.747   4.343  18.701  0.00  0.00    +0.000 C 
ATOM      3  O   UNL     1       4.282   3.618  19.577  0.00  0.00    +0.000 OA
ATOM      4  H   UNL     1       4.326   5.635  17.134  0.00  0.00    +0.000 HD
ENDROOT
BRANCH   2   5
ATOM      5  C   UNL     1       6.226   4.292  18.328  0.00  0.00    +0.000 C 
ATOM      6  C   UNL     1       6.970   5.533  18.925  0.00  0.00    +0.000 C 
ATOM      7  O   UNL     1       7.485   6.360  17.827  0.00  0.00    +0.000 OA
ATOM      8  C   UNL     1       7.196   5.686  16.697  0.00  0.00    +0.000 A 
ATOM      9  N   UNL     1       7.497   5.986  15.404  0.00  0.00    +0.000 NA
ATOM     10  C   UNL     1       7.046   4.995  14.654  0.00  0.00    +0.000 A 
ATOM     11  S   UNL     1       6.303   3.668  15.494  0.00  0.00    +0.000 S 
ATOM     12  C   UNL     1       6.515   4.531  16.913  0.00  0.00    +0.000 A 
ENDBRANCH   2   5
BRANCH   1  13
ATOM     13  C   UNL     1       2.495   5.212  18.112  0.00  0.00    +0.000 C 
BRANCH  13  22
ATOM     14  C   UNL     1       2.710   8.176  17.495  0.00  0.00    +0.000 C 
ATOM     15  C   UNL     1       2.186   7.662  18.812  0.00  0.00    +0.000 A 
ATOM     16  C   UNL     1       1.813   8.618  19.779  0.00  0.00    +0.000 A 
ATOM     17  C   UNL     1       1.328   8.226  21.020  0.00  0.00    +0.000 A 
ATOM     18 CL   UNL     1       0.890   9.414  22.184  0.00  0.00    +0.000 Cl
ATOM     19  C   UNL     1       1.207   6.880  21.328  0.00  0.00    +0.000 A 
ATOM     20  C   UNL     1       1.578   5.916  20.385  0.00  0.00    +0.000 A 
ATOM     21 CL   UNL     1       1.448   4.262  20.885  0.00  0.00    +0.000 Cl
ATOM     22  C   UNL     1       2.059   6.276  19.105  0.00  0.00    +0.000 A 
ENDBRANCH  13  22
ENDBRANCH   1  13
TORSDOF 3
ENDMDL
MODEL 5
REMARK VINA RESULT:      -6.4      1.719      2.092
REMARK  Name = 
REMARK  4 active torsions:
REMARK  status: ('A' for Active; 'I' for Inactive)
REMARK    1  A    between atoms: C_1  and  C_2
REMARK    2  A    between atoms: C_9  and  C_10
REMARK    3  A    between atoms: C_10  and  N_11
REMARK    4  A    between atoms: C_12  and  C_14
REMARK                            x       y       z     vdW  Elec       q    Type
REMARK                         _______ _______ _______ _____ _____    ______ ____
ROOT
ATOM      1  N   UNL     1       2.070   7.237  20.462  0.00  0.00    +0.000 N 
ATOM      2  C   UNL     1       2.228   5.879  20.301  0.00  0.00    +0.000 C 
ATOM      3  O   UNL     1       1.312   5.095  20.535  0.00  0.00    +0.000 OA
ATOM      4  H   UNL     1       2.795   7.868  20.144  0.00  0.00    +0.000 HD
ENDROOT
BRANCH   2   5
ATOM      5  C   UNL     1       3.543   5.404  19.687  0.00  0.00    +0.000 C 
ATOM      6  C   UNL     1       3.712   6.014  18.255  0.00  0.00    +0.000 C 
ATOM      7  O   UNL     1       3.718   4.928  17.267  0.00  0.00    +0.000 OA
ATOM      8  C   UNL     1       3.661   3.787  17.980  0.00  0.00    +0.000 A 
ATOM      9  N   UNL     1       3.691   2.493  17.557  0.00  0.00    +0.000 NA
ATOM     10  C   UNL     1       3.661   1.725  18.632  0.00  0.00    +0.000 A 
ATOM     11  S   UNL     1       3.649   2.544  20.166  0.00  0.00    +0.000 S 
ATOM     12  C   UNL     1       3.578   3.988  19.321  0.00  0.00    +0.000 A 
ENDBRANCH   2   5
BRANCH   1  13
ATOM     13  C   UNL     1       0.833   7.831  20.943  0.00  0.00    +0.000 C 
BRANCH  13  22
ATOM     14  C   UNL     1      -0.121   9.792  23.055  0.00  0.00    +0.000 C 
ATOM     15  C   UNL     1       0.262  10.228  21.663  0.00  0.00    +0.000 A 
ATOM     16  C   UNL     1       0.138  11.599  21.357  0.00  0.00    +0.000 A 
ATOM     17  C   UNL     1       0.463  12.080  20.095  0.00  0.00    +0.000 A 
ATOM     18 CL   UNL     1       0.293  13.755  19.745  0.00  0.00    +0.000 Cl
ATOM     19  C   UNL     1       0.912  11.211  19.112  0.00  0.00    +0.000 A 
ATOM     20  C   UNL     1       1.035   9.847  19.395  0.00  0.00    +0.000 A 
ATOM     21 CL   UNL     1       1.546   8.834  18.084  0.00  0.00    +0.000 Cl
ATOM     22  C   UNL     1       0.731   9.323  20.672  0.00  0.00    +0.000 A 
ENDBRANCH  13  22
ENDBRANCH   1  13
TORSDOF 3
ENDMDL
MODEL 6
REMARK VINA RESULT:      -6.4      3.221      3.748
REMARK  Name = 
REMARK  4 active torsions:
REMARK  status: ('A' for Active; 'I' for Inactive)
REMARK    1  A    between atoms: C_1  and  C_2
REMARK    2  A    between atoms: C_9  and  C_10
REMARK    3  A    between atoms: C_10  and  N_11
REMARK    4  A    between atoms: C_12  and  C_14
REMARK                            x       y       z     vdW  Elec       q    Type
REMARK                         _______ _______ _______ _____ _____    ______ ____
ROOT
ATOM      1  N   UNL     1       3.811   5.881  19.512  0.00  0.00    +0.000 N 
ATOM      2  C   UNL     1       4.201   4.616  19.135  0.00  0.00    +0.000 C 
ATOM      3  O   UNL     1       3.383   3.712  18.984  0.00  0.00    +0.000 OA
ATOM      4  H   UNL     1       4.486   6.636  19.508  0.00  0.00    +0.000 HD
ENDROOT
BRANCH   2   5
ATOM      5  C   UNL     1       5.673   4.423  18.779  0.00  0.00    +0.000 C 
ATOM      6  C   UNL     1       6.526   5.580  19.398  0.00  0.00    +0.000 C 
ATOM      7  O   UNL     1       7.135   6.362  18.316  0.00  0.00    +0.000 OA
ATOM      8  C   UNL     1       6.796   5.731  17.175  0.00  0.00    +0.000 A 
ATOM      9  N   UNL     1       7.141   6.012  15.889  0.00  0.00    +0.000 NA
ATOM     10  C   UNL     1       6.606   5.077  15.123  0.00  0.00    +0.000 A 
ATOM     11  S   UNL     1       5.725   3.821  15.940  0.00  0.00    +0.000 S 
ATOM     12  C   UNL     1       6.003   4.646  17.371  0.00  0.00    +0.000 A 
ENDBRANCH   2   5
BRANCH   1  13
ATOM     13  C   UNL     1       2.425   6.227  19.784  0.00  0.00    +0.000 C 
BRANCH  13  22
ATOM     14  C   UNL     1       0.782   7.959  21.659  0.00  0.00    +0.000 C 
ATOM     15  C   UNL     1       1.297   8.466  20.336  0.00  0.00    +0.000 A 
ATOM     16  C   UNL     1       0.965   9.788  19.976  0.00  0.00    +0.000 A 
ATOM     17  C   UNL     1       1.395  10.328  18.769  0.00  0.00    +0.000 A 
ATOM     18 CL   UNL     1       0.967  11.940  18.351  0.00  0.00    +0.000 Cl
ATOM     19  C   UNL     1       2.156   9.566  17.896  0.00  0.00    +0.000 A 
ATOM     20  C   UNL     1       2.489   8.250  18.233  0.00  0.00    +0.000 A 
ATOM     21 CL   UNL     1       3.391   7.360  17.050  0.00  0.00    +0.000 Cl
ATOM     22  C   UNL     1       2.086   7.672  19.458  0.00  0.00    +0.000 A 
ENDBRANCH  13  22
ENDBRANCH   1  13
TORSDOF 3
ENDMDL
MODEL 7
REMARK VINA RESULT:      -6.4      3.681      7.214
REMARK  Name = 
REMARK  4 active torsions:
REMARK  status: ('A' for Active; 'I' for Inactive)
REMARK    1  A    between atoms: C_1  and  C_2
REMARK    2  A    between atoms: C_9  and  C_10
REMARK    3  A    between atoms: C_10  and  N_11
REMARK    4  A    between atoms: C_12  and  C_14
REMARK                            x       y       z     vdW  Elec       q    Type
REMARK                         _______ _______ _______ _____ _____    ______ ____
ROOT
ATOM      1  N   UNL     1       3.236   6.480  20.007  0.00  0.00    +0.000 N 
ATOM      2  C   UNL     1       2.008   6.897  20.468  0.00  0.00    +0.000 C 
ATOM      3  O   UNL     1       1.134   6.091  20.779  0.00  0.00    +0.000 OA
ATOM      4  H   UNL     1       3.980   7.156  19.878  0.00  0.00    +0.000 HD
ENDROOT
BRANCH   2   5
ATOM      5  C   UNL     1       1.830   8.394  20.708  0.00  0.00    +0.000 C 
ATOM      6  C   UNL     1       0.898   8.628  21.943  0.00  0.00    +0.000 C 
ATOM      7  O   UNL     1      -0.326   9.308  21.501  0.00  0.00    +0.000 OA
ATOM      8  C   UNL     1      -0.149   9.558  20.190  0.00  0.00    +0.000 A 
ATOM      9  N   UNL     1      -0.958  10.212  19.311  0.00  0.00    +0.000 NA
ATOM     10  C   UNL     1      -0.331  10.249  18.148  0.00  0.00    +0.000 A 
ATOM     11  S   UNL     1       1.258   9.546  18.106  0.00  0.00    +0.000 S 
ATOM     12  C   UNL     1       1.028   9.090  19.701  0.00  0.00    +0.000 A 
ENDBRANCH   2   5
BRANCH   1  13
ATOM     13  C   UNL     1       3.574   5.077  19.829  0.00  0.00    +0.000 C 
BRANCH  13  22
ATOM     14  C   UNL     1       1.974   3.980  17.494  0.00  0.00    +0.000 C 
ATOM     15  C   UNL     1       3.456   4.239  17.405  0.00  0.00    +0.000 A 
ATOM     16  C   UNL     1       4.096   3.927  16.188  0.00  0.00    +0.000 A 
ATOM     17  C   UNL     1       5.462   4.129  16.029  0.00  0.00    +0.000 A 
ATOM     18 CL   UNL     1       6.219   3.730  14.536  0.00  0.00    +0.000 Cl
ATOM     19  C   UNL     1       6.218   4.639  17.073  0.00  0.00    +0.000 A 
ATOM     20  C   UNL     1       5.602   4.948  18.289  0.00  0.00    +0.000 A 
ATOM     21 CL   UNL     1       6.642   5.522  19.552  0.00  0.00    +0.000 Cl
ATOM     22  C   UNL     1       4.213   4.773  18.484  0.00  0.00    +0.000 A 
ENDBRANCH  13  22
ENDBRANCH   1  13
TORSDOF 3
ENDMDL
MODEL 8
REMARK VINA RESULT:      -6.4      4.193      7.475
REMARK  Name = 
REMARK  4 active torsions:
REMARK  status: ('A' for Active; 'I' for Inactive)
REMARK    1  A    between atoms: C_1  and  C_2
REMARK    2  A    between atoms: C_9  and  C_10
REMARK    3  A    between atoms: C_10  and  N_11
REMARK    4  A    between atoms: C_12  and  C_14
REMARK                            x       y       z     vdW  Elec       q    Type
REMARK                         _______ _______ _______ _____ _____    ______ ____
ROOT
ATOM      1  N   UNL     1       1.654   7.396  21.046  0.00  0.00    +0.000 N 
ATOM      2  C   UNL     1       0.591   8.167  21.457  0.00  0.00    +0.000 C 
ATOM      3  O   UNL     1      -0.566   7.767  21.358  0.00  0.00    +0.000 OA
ATOM      4  H   UNL     1       2.600   7.694  21.253  0.00  0.00    +0.000 HD
ENDROOT
BRANCH   2   5
ATOM      5  C   UNL     1       0.920   9.479  22.166  0.00  0.00    +0.000 C 
ATOM      6  C   UNL     1       0.066   9.607  23.471  0.00  0.00    +0.000 C 
ATOM      7  O   UNL     1      -0.832  10.761  23.347  0.00  0.00    +0.000 OA
ATOM      8  C   UNL     1      -0.521  11.340  22.172  0.00  0.00    +0.000 A 
ATOM      9  N   UNL     1      -1.019  12.471  21.599  0.00  0.00    +0.000 NA
ATOM     10  C   UNL     1      -0.363  12.662  20.468  0.00  0.00    +0.000 A 
ATOM     11  S   UNL     1       0.894  11.519  20.101  0.00  0.00    +0.000 S 
ATOM     12  C   UNL     1       0.449  10.685  21.484  0.00  0.00    +0.000 A 
ENDBRANCH   2   5
BRANCH   1  13
ATOM     13  C   UNL     1       1.486   6.081  20.447  0.00  0.00    +0.000 C 
BRANCH  13  22
ATOM     14  C   UNL     1       2.395   7.819  18.131  0.00  0.00    +0.000 C 
ATOM     15  C   UNL     1       3.037   6.491  18.443  0.00  0.00    +0.000 A 
ATOM     16  C   UNL     1       4.077   6.059  17.595  0.00  0.00    +0.000 A 
ATOM     17  C   UNL     1       4.714   4.843  17.811  0.00  0.00    +0.000 A 
ATOM     18 CL   UNL     1       5.973   4.336  16.755  0.00  0.00    +0.000 Cl
ATOM     19  C   UNL     1       4.329   4.032  18.867  0.00  0.00    +0.000 A 
ATOM     20  C   UNL     1       3.295   4.440  19.715  0.00  0.00    +0.000 A 
ATOM     21 CL   UNL     1       2.846   3.330  20.968  0.00  0.00    +0.000 Cl
ATOM     22  C   UNL     1       2.635   5.678  19.539  0.00  0.00    +0.000 A 
ENDBRANCH  13  22
ENDBRANCH   1  13
TORSDOF 3
ENDMDL
MODEL 9
REMARK VINA RESULT:      -6.3      3.502      7.186
REMARK  Name = 
REMARK  4 active torsions:
REMARK  status: ('A' for Active; 'I' for Inactive)
REMARK    1  A    between atoms: C_1  and  C_2
REMARK    2  A    between atoms: C_9  and  C_10
REMARK    3  A    between atoms: C_10  and  N_11
REMARK    4  A    between atoms: C_12  and  C_14
REMARK                            x       y       z     vdW  Elec       q    Type
REMARK                         _______ _______ _______ _____ _____    ______ ____
ROOT
ATOM      1  N   UNL     1       3.218   6.463  19.992  0.00  0.00    +0.000 N 
ATOM      2  C   UNL     1       2.005   6.908  20.468  0.00  0.00    +0.000 C 
ATOM      3  O   UNL     1       1.130   6.122  20.822  0.00  0.00    +0.000 OA
ATOM      4  H   UNL     1       3.966   7.126  19.827  0.00  0.00    +0.000 HD
ENDROOT
BRANCH   2   5
ATOM      5  C   UNL     1       1.850   8.413  20.667  0.00  0.00    +0.000 C 
ATOM      6  C   UNL     1       0.949   8.695  21.916  0.00  0.00    +0.000 C 
ATOM      7  O   UNL     1      -0.277   9.376  21.482  0.00  0.00    +0.000 OA
ATOM      8  C   UNL     1      -0.129   9.585  20.160  0.00  0.00    +0.000 A 
ATOM      9  N   UNL     1      -0.951  10.222  19.282  0.00  0.00    +0.000 NA
ATOM     10  C   UNL     1      -0.350  10.217  18.104  0.00  0.00    +0.000 A 
ATOM     11  S   UNL     1       1.229   9.494  18.046  0.00  0.00    +0.000 S 
ATOM     12  C   UNL     1       1.032   9.088  19.658  0.00  0.00    +0.000 A 
ENDBRANCH   2   5
BRANCH   1  13
ATOM     13  C   UNL     1       3.536   5.051  19.848  0.00  0.00    +0.000 C 
BRANCH  13  22
ATOM     14  C   UNL     1       6.521   5.414  19.440  0.00  0.00    +0.000 C 
ATOM     15  C   UNL     1       5.613   4.909  18.347  0.00  0.00    +0.000 A 
ATOM     16  C   UNL     1       6.199   4.629  17.096  0.00  0.00    +0.000 A 
ATOM     17  C   UNL     1       5.429   4.167  16.035  0.00  0.00    +0.000 A 
ATOM     18 CL   UNL     1       6.169   3.842  14.517  0.00  0.00    +0.000 Cl
ATOM     19  C   UNL     1       4.065   3.981  16.194  0.00  0.00    +0.000 A 
ATOM     20  C   UNL     1       3.464   4.260  17.425  0.00  0.00    +0.000 A 
ATOM     21 CL   UNL     1       1.745   4.053  17.506  0.00  0.00    +0.000 Cl
ATOM     22  C   UNL     1       4.217   4.714  18.532  0.00  0.00    +0.000 A 
ENDBRANCH  13  22
ENDBRANCH   1  13
TORSDOF 3
ENDMDL
