MODEL 1
REMARK VINA RESULT:      -7.2      0.000      0.000
REMARK  Name = 
REMARK  4 active torsions:
REMARK  status: ('A' for Active; 'I' for Inactive)
REMARK    1  A    between atoms: C_3  and  S_4
REMARK    2  A    between atoms: S_4  and  N_7
REMARK    3  A    between atoms: N_15  and  C_16
REMARK    4  A    between atoms: C_16  and  C_17
REMARK                            x       y       z     vdW  Elec       q    Type
REMARK                         _______ _______ _______ _____ _____    ______ ____
ROOT
ATOM      1  O   UNL     1       2.081   8.249  17.379  0.00  0.00    +0.000 OA
ATOM      2  C   UNL     1       2.044   8.155  18.601  0.00  0.00    +0.000 A 
ATOM      3  C   UNL     1       2.467   6.904  19.290  0.00  0.00    +0.000 A 
ATOM      4  C   UNL     1       1.979   6.633  20.513  0.00  0.00    +0.000 A 
ATOM      5  C   UNL     1       1.156   7.603  21.197  0.00  0.00    +0.000 A 
ATOM      6  C   UNL     1       1.016   8.835  20.691  0.00  0.00    +0.000 A 
ATOM      7  N   UNL     1       1.504   9.159  19.430  0.00  0.00    +0.000 N 
ENDROOT
BRANCH   3   8
ATOM      8  S   UNL     1       3.708   5.898  18.603  0.00  0.00    +0.000 S 
ATOM      9  O   UNL     1       4.579   6.711  17.776  0.00  0.00    +0.000 OA
ATOM     10  O   UNL     1       4.305   5.128  19.676  0.00  0.00    +0.000 OA
BRANCH   8  11
ATOM     11  N   UNL     1       3.017   4.740  17.562  0.00  0.00    +0.000 NA
ATOM     12  C   UNL     1       1.572   4.475  17.653  0.00  0.00    +0.000 C 
ATOM     13  C   UNL     1       1.523   3.175  18.438  0.00  0.00    +0.000 C 
ATOM     14  C   UNL     1       2.718   2.393  17.908  0.00  0.00    +0.000 C 
ATOM     15  C   UNL     1       3.694   3.440  17.378  0.00  0.00    +0.000 C 
ENDBRANCH   8  11
ENDBRANCH   3   8
BRANCH   7  16
ATOM     16  C   UNL     1       1.134  10.456  18.836  0.00  0.00    +0.000 C 
BRANCH  16  17
ATOM     17  C   UNL     1      -0.319  10.874  18.953  0.00  0.00    +0.000 A 
ATOM     18  C   UNL     1      -1.252  10.378  18.034  0.00  0.00    +0.000 A 
ATOM     19  F   UNL     1      -0.878   9.443  17.144  0.00  0.00    +0.000 F 
ATOM     20  C   UNL     1      -2.568  10.848  17.965  0.00  0.00    +0.000 A 
ATOM     21  C   UNL     1      -2.995  11.826  18.853  0.00  0.00    +0.000 A 
ATOM     22  C   UNL     1      -2.107  12.314  19.808  0.00  0.00    +0.000 A 
ATOM     23  C   UNL     1      -0.782  11.845  19.855  0.00  0.00    +0.000 A 
ATOM     24 CL   UNL     1       0.249  12.567  21.036  0.00  0.00    +0.000 Cl
ENDBRANCH  16  17
ENDBRANCH   7  16
TORSDOF 4
ENDMDL
MODEL 2
REMARK VINA RESULT:      -7.2      3.226      7.324
REMARK  Name = 
REMARK  4 active torsions:
REMARK  status: ('A' for Active; 'I' for Inactive)
REMARK    1  A    between atoms: C_3  and  S_4
REMARK    2  A    between atoms: S_4  and  N_7
REMARK    3  A    between atoms: N_15  and  C_16
REMARK    4  A    between atoms: C_16  and  C_17
REMARK                            x       y       z     vdW  Elec       q    Type
REMARK                         _______ _______ _______ _____ _____    ______ ____
ROOT
ATOM      1  O   UNL     1       2.107   9.274  17.432  0.00  0.00    +0.000 OA
ATOM      2  C   UNL     1       1.727   8.725  18.460  0.00  0.00    +0.000 A 
ATOM      3  C   UNL     1       0.827   9.423  19.419  0.00  0.00    +0.000 A 
ATOM      4  C   UNL     1       0.820   9.042  20.709  0.00  0.00    +0.000 A 
ATOM      5  C   UNL     1       1.582   7.890  21.127  0.00  0.00    +0.000 A 
ATOM      6  C   UNL     1       2.159   7.101  20.212  0.00  0.00    +0.000 A 
ATOM      7  N   UNL     1       2.191   7.457  18.868  0.00  0.00    +0.000 N 
ENDROOT
BRANCH   3   8
ATOM      8  S   UNL     1      -0.326  10.594  18.849  0.00  0.00    +0.000 S 
ATOM      9  O   UNL     1      -0.912  10.122  17.609  0.00  0.00    +0.000 OA
ATOM     10  O   UNL     1      -1.216  10.917  19.947  0.00  0.00    +0.000 OA
BRANCH   8  11
ATOM     11  N   UNL     1       0.458  12.058  18.472  0.00  0.00    +0.000 NA
ATOM     12  C   UNL     1       1.727  12.378  19.147  0.00  0.00    +0.000 C 
ATOM     13  C   UNL     1       1.296  13.375  20.208  0.00  0.00    +0.000 C 
ATOM     14  C   UNL     1       0.224  14.201  19.507  0.00  0.00    +0.000 C 
ATOM     15  C   UNL     1      -0.333  13.304  18.405  0.00  0.00    +0.000 C 
ENDBRANCH   8  11
ENDBRANCH   3   8
BRANCH   7  16
ATOM     16  C   UNL     1       3.023   6.668  17.942  0.00  0.00    +0.000 C 
BRANCH  16  17
ATOM     17  C   UNL     1       3.065   5.168  18.168  0.00  0.00    +0.000 A 
ATOM     18  C   UNL     1       1.949   4.392  17.835  0.00  0.00    +0.000 A 
ATOM     19  F   UNL     1       0.908   4.959  17.205  0.00  0.00    +0.000 F 
ATOM     20  C   UNL     1       1.843   3.038  18.173  0.00  0.00    +0.000 A 
ATOM     21  C   UNL     1       2.887   2.413  18.841  0.00  0.00    +0.000 A 
ATOM     22  C   UNL     1       4.031   3.143  19.152  0.00  0.00    +0.000 A 
ATOM     23  C   UNL     1       4.118   4.508  18.822  0.00  0.00    +0.000 A 
ATOM     24 CL   UNL     1       5.554   5.330  19.314  0.00  0.00    +0.000 Cl
ENDBRANCH  16  17
ENDBRANCH   7  16
TORSDOF 4
ENDMDL
MODEL 3
REMARK VINA RESULT:      -7.1      3.488      7.601
REMARK  Name = 
REMARK  4 active torsions:
REMARK  status: ('A' for Active; 'I' for Inactive)
REMARK    1  A    between atoms: C_3  and  S_4
REMARK    2  A    between atoms: S_4  and  N_7
REMARK    3  A    between atoms: N_15  and  C_16
REMARK    4  A    between atoms: C_16  and  C_17
REMARK                            x       y       z     vdW  Elec       q    Type
REMARK                         _______ _______ _______ _____ _____    ______ ____
ROOT
ATOM      1  O   UNL     1       0.975   7.560  21.208  0.00  0.00    +0.000 OA
ATOM      2  C   UNL     1       1.538   8.003  20.213  0.00  0.00    +0.000 A 
ATOM      3  C   UNL     1       1.169   9.331  19.647  0.00  0.00    +0.000 A 
ATOM      4  C   UNL     1       1.409   9.579  18.348  0.00  0.00    +0.000 A 
ATOM      5  C   UNL     1       2.128   8.617  17.547  0.00  0.00    +0.000 A 
ATOM      6  C   UNL     1       2.702   7.558  18.131  0.00  0.00    +0.000 A 
ATOM      7  N   UNL     1       2.480   7.263  19.471  0.00  0.00    +0.000 N 
ENDROOT
BRANCH   3   8
ATOM      8  S   UNL     1       0.600  10.603  20.688  0.00  0.00    +0.000 S 
ATOM      9  O   UNL     1      -0.841  10.504  20.819  0.00  0.00    +0.000 OA
ATOM     10  O   UNL     1       1.400  10.584  21.896  0.00  0.00    +0.000 OA
BRANCH   8  11
ATOM     11  N   UNL     1       0.906  12.123  19.982  0.00  0.00    +0.000 NA
ATOM     12  C   UNL     1       1.672  13.120  20.749  0.00  0.00    +0.000 C 
ATOM     13  C   UNL     1       0.585  14.051  21.258  0.00  0.00    +0.000 C 
ATOM     14  C   UNL     1      -0.397  14.124  20.095  0.00  0.00    +0.000 C 
ATOM     15  C   UNL     1      -0.193  12.837  19.301  0.00  0.00    +0.000 C 
ENDBRANCH   8  11
ENDBRANCH   3   8
BRANCH   7  16
ATOM     16  C   UNL     1       2.957   5.974  20.004  0.00  0.00    +0.000 C 
BRANCH  16  17
ATOM     17  C   UNL     1       2.607   4.731  19.207  0.00  0.00    +0.000 A 
ATOM     18  C   UNL     1       1.427   4.037  19.500  0.00  0.00    +0.000 A 
ATOM     19  F   UNL     1       0.559   4.546  20.390  0.00  0.00    +0.000 F 
ATOM     20  C   UNL     1       1.122   2.793  18.936  0.00  0.00    +0.000 A 
ATOM     21  C   UNL     1       1.997   2.220  18.025  0.00  0.00    +0.000 A 
ATOM     22  C   UNL     1       3.162   2.900  17.677  0.00  0.00    +0.000 A 
ATOM     23  C   UNL     1       3.465   4.142  18.265  0.00  0.00    +0.000 A 
ATOM     24 CL   UNL     1       4.965   4.864  17.811  0.00  0.00    +0.000 Cl
ENDBRANCH  16  17
ENDBRANCH   7  16
TORSDOF 4
ENDMDL
MODEL 4
REMARK VINA RESULT:      -7.1      3.340      7.378
REMARK  Name = 
REMARK  4 active torsions:
REMARK  status: ('A' for Active; 'I' for Inactive)
REMARK    1  A    between atoms: C_3  and  S_4
REMARK    2  A    between atoms: S_4  and  N_7
REMARK    3  A    between atoms: N_15  and  C_16
REMARK    4  A    between atoms: C_16  and  C_17
REMARK                            x       y       z     vdW  Elec       q    Type
REMARK                         _______ _______ _______ _____ _____    ______ ____
ROOT
ATOM      1  O   UNL     1       1.036   7.574  21.176  0.00  0.00    +0.000 OA
ATOM      2  C   UNL     1       1.641   7.954  20.180  0.00  0.00    +0.000 A 
ATOM      3  C   UNL     1       1.353   9.279  19.563  0.00  0.00    +0.000 A 
ATOM      4  C   UNL     1       1.631   9.470  18.261  0.00  0.00    +0.000 A 
ATOM      5  C   UNL     1       2.314   8.444  17.508  0.00  0.00    +0.000 A 
ATOM      6  C   UNL     1       2.821   7.378  18.139  0.00  0.00    +0.000 A 
ATOM      7  N   UNL     1       2.557   7.140  19.483  0.00  0.00    +0.000 N 
ENDROOT
BRANCH   3   8
ATOM      8  S   UNL     1       0.832  10.613  20.548  0.00  0.00    +0.000 S 
ATOM      9  O   UNL     1       1.093  10.308  21.942  0.00  0.00    +0.000 OA
ATOM     10  O   UNL     1       1.400  11.827  19.996  0.00  0.00    +0.000 OA
BRANCH   8  11
ATOM     11  N   UNL     1      -0.854  10.818  20.419  0.00  0.00    +0.000 NA
ATOM     12  C   UNL     1      -1.493  10.632  19.105  0.00  0.00    +0.000 C 
ATOM     13  C   UNL     1      -1.713  12.062  18.640  0.00  0.00    +0.000 C 
ATOM     14  C   UNL     1      -2.096  12.798  19.917  0.00  0.00    +0.000 C 
ATOM     15  C   UNL     1      -1.491  11.986  21.059  0.00  0.00    +0.000 C 
ENDBRANCH   8  11
ENDBRANCH   3   8
BRANCH   7  16
ATOM     16  C   UNL     1       2.955   5.847  20.068  0.00  0.00    +0.000 C 
BRANCH  16  17
ATOM     17  C   UNL     1       2.509   4.597  19.335  0.00  0.00    +0.000 A 
ATOM     18  C   UNL     1       1.293   3.995  19.679  0.00  0.00    +0.000 A 
ATOM     19  F   UNL     1       0.478   4.599  20.561  0.00  0.00    +0.000 F 
ATOM     20  C   UNL     1       0.896   2.750  19.177  0.00  0.00    +0.000 A 
ATOM     21  C   UNL     1       1.714   2.081  18.277  0.00  0.00    +0.000 A 
ATOM     22  C   UNL     1       2.913   2.668  17.879  0.00  0.00    +0.000 A 
ATOM     23  C   UNL     1       3.308   3.912  18.405  0.00  0.00    +0.000 A 
ATOM     24 CL   UNL     1       4.842   4.513  17.892  0.00  0.00    +0.000 Cl
ENDBRANCH  16  17
ENDBRANCH   7  16
TORSDOF 4
ENDMDL
MODEL 5
REMARK VINA RESULT:      -7.0      3.765      7.858
REMARK  Name = 
REMARK  4 active torsions:
REMARK  status: ('A' for Active; 'I' for Inactive)
REMARK    1  A    between atoms: C_3  and  S_4
REMARK    2  A    between atoms: S_4  and  N_7
REMARK    3  A    between atoms: N_15  and  C_16
REMARK    4  A    between atoms: C_16  and  C_17
REMARK                            x       y       z     vdW  Elec       q    Type
REMARK                         _______ _______ _______ _____ _____    ______ ____
ROOT
ATOM      1  O   UNL     1       1.615   6.235  20.949  0.00  0.00    +0.000 OA
ATOM      2  C   UNL     1       2.098   6.967  20.093  0.00  0.00    +0.000 A 
ATOM      3  C   UNL     1       1.525   8.314  19.820  0.00  0.00    +0.000 A 
ATOM      4  C   UNL     1       1.718   8.877  18.614  0.00  0.00    +0.000 A 
ATOM      5  C   UNL     1       2.574   8.235  17.644  0.00  0.00    +0.000 A 
ATOM      6  C   UNL     1       3.308   7.173  18.000  0.00  0.00    +0.000 A 
ATOM      7  N   UNL     1       3.140   6.560  19.236  0.00  0.00    +0.000 N 
ENDROOT
BRANCH   3   8
ATOM      8  S   UNL     1       0.770   9.224  21.096  0.00  0.00    +0.000 S 
ATOM      9  O   UNL     1      -0.477   8.583  21.466  0.00  0.00    +0.000 OA
ATOM     10  O   UNL     1       1.759   9.447  22.132  0.00  0.00    +0.000 OA
BRANCH   8  11
ATOM     11  N   UNL     1       0.354  10.781  20.543  0.00  0.00    +0.000 NA
ATOM     12  C   UNL     1       0.723  11.947  21.362  0.00  0.00    +0.000 C 
ATOM     13  C   UNL     1      -0.588  12.302  22.042  0.00  0.00    +0.000 C 
ATOM     14  C   UNL     1      -1.631  12.045  20.961  0.00  0.00    +0.000 C 
ATOM     15  C   UNL     1      -1.005  11.021  20.018  0.00  0.00    +0.000 C 
ENDBRANCH   8  11
ENDBRANCH   3   8
BRANCH   7  16
ATOM     16  C   UNL     1       3.813   5.273  19.489  0.00  0.00    +0.000 C 
BRANCH  16  17
ATOM     17  C   UNL     1       4.812   4.806  18.448  0.00  0.00    +0.000 A 
ATOM     18  C   UNL     1       6.160   5.162  18.581  0.00  0.00    +0.000 A 
ATOM     19  F   UNL     1       6.573   5.801  19.687  0.00  0.00    +0.000 F 
ATOM     20  C   UNL     1       7.107   4.922  17.579  0.00  0.00    +0.000 A 
ATOM     21  C   UNL     1       6.722   4.280  16.410  0.00  0.00    +0.000 A 
ATOM     22  C   UNL     1       5.399   3.873  16.259  0.00  0.00    +0.000 A 
ATOM     23  C   UNL     1       4.453   4.136  17.267  0.00  0.00    +0.000 A 
ATOM     24 CL   UNL     1       2.829   3.647  16.946  0.00  0.00    +0.000 Cl
ENDBRANCH  16  17
ENDBRANCH   7  16
TORSDOF 4
ENDMDL
MODEL 6
REMARK VINA RESULT:      -7.0      3.420      7.567
REMARK  Name = 
REMARK  4 active torsions:
REMARK  status: ('A' for Active; 'I' for Inactive)
REMARK    1  A    between atoms: C_3  and  S_4
REMARK    2  A    between atoms: S_4  and  N_7
REMARK    3  A    between atoms: N_15  and  C_16
REMARK    4  A    between atoms: C_16  and  C_17
REMARK                            x       y       z     vdW  Elec       q    Type
REMARK                         _______ _______ _______ _____ _____    ______ ____
ROOT
ATOM      1  O   UNL     1       1.040   7.805  21.294  0.00  0.00    +0.000 OA
ATOM      2  C   UNL     1       1.376   8.314  20.231  0.00  0.00    +0.000 A 
ATOM      3  C   UNL     1       0.787   9.604  19.775  0.00  0.00    +0.000 A 
ATOM      4  C   UNL     1       0.773   9.890  18.461  0.00  0.00    +0.000 A 
ATOM      5  C   UNL     1       1.432   9.014  17.521  0.00  0.00    +0.000 A 
ATOM      6  C   UNL     1       2.199   8.011  17.968  0.00  0.00    +0.000 A 
ATOM      7  N   UNL     1       2.243   7.680  19.318  0.00  0.00    +0.000 N 
ENDROOT
BRANCH   3   8
ATOM      8  S   UNL     1       0.286  10.800  20.934  0.00  0.00    +0.000 S 
ATOM      9  O   UNL     1      -0.711  10.223  21.814  0.00  0.00    +0.000 OA
ATOM     10  O   UNL     1       1.477  11.372  21.530  0.00  0.00    +0.000 OA
BRANCH   8  11
ATOM     11  N   UNL     1      -0.479  12.101  20.144  0.00  0.00    +0.000 NA
ATOM     12  C   UNL     1      -0.162  13.475  20.570  0.00  0.00    +0.000 C 
ATOM     13  C   UNL     1      -1.365  13.841  21.423  0.00  0.00    +0.000 C 
ATOM     14  C   UNL     1      -2.533  13.195  20.689  0.00  0.00    +0.000 C 
ATOM     15  C   UNL     1      -1.933  12.039  19.894  0.00  0.00    +0.000 C 
ENDBRANCH   8  11
ENDBRANCH   3   8
BRANCH   7  16
ATOM     16  C   UNL     1       2.927   6.440  19.724  0.00  0.00    +0.000 C 
BRANCH  16  17
ATOM     17  C   UNL     1       2.458   5.153  19.072  0.00  0.00    +0.000 A 
ATOM     18  C   UNL     1       1.463   4.390  19.695  0.00  0.00    +0.000 A 
ATOM     19  F   UNL     1       0.848   4.866  20.790  0.00  0.00    +0.000 F 
ATOM     20  C   UNL     1       1.103   3.112  19.254  0.00  0.00    +0.000 A 
ATOM     21  C   UNL     1       1.725   2.571  18.137  0.00  0.00    +0.000 A 
ATOM     22  C   UNL     1       2.689   3.318  17.465  0.00  0.00    +0.000 A 
ATOM     23  C   UNL     1       3.055   4.594  17.930  0.00  0.00    +0.000 A 
ATOM     24 CL   UNL     1       4.308   5.402  17.060  0.00  0.00    +0.000 Cl
ENDBRANCH  16  17
ENDBRANCH   7  16
TORSDOF 4
ENDMDL
MODEL 7
REMARK VINA RESULT:      -7.0      3.419      7.465
REMARK  Name = 
REMARK  4 active torsions:
REMARK  status: ('A' for Active; 'I' for Inactive)
REMARK    1  A    between atoms: C_3  and  S_4
REMARK    2  A    between atoms: S_4  and  N_7
REMARK    3  A    between atoms: N_15  and  C_16
REMARK    4  A    between atoms: C_16  and  C_17
REMARK                            x       y       z     vdW  Elec       q    Type
REMARK                         _______ _______ _______ _____ _____    ______ ____
ROOT
ATOM      1  O   UNL     1       0.976   7.950  21.308  0.00  0.00    +0.000 OA
ATOM      2  C   UNL     1       1.466   8.263  20.229  0.00  0.00    +0.000 A 
ATOM      3  C   UNL     1       1.142   9.566  19.585  0.00  0.00    +0.000 A 
ATOM      4  C   UNL     1       1.267   9.687  18.252  0.00  0.00    +0.000 A 
ATOM      5  C   UNL     1       1.828   8.606  17.475  0.00  0.00    +0.000 A 
ATOM      6  C   UNL     1       2.377   7.554  18.095  0.00  0.00    +0.000 A 
ATOM      7  N   UNL     1       2.271   7.388  19.471  0.00  0.00    +0.000 N 
ENDROOT
BRANCH   3   8
ATOM      8  S   UNL     1       0.779  10.961  20.558  0.00  0.00    +0.000 S 
ATOM      9  O   UNL     1       1.647  10.972  21.720  0.00  0.00    +0.000 OA
ATOM     10  O   UNL     1       0.780  12.123  19.692  0.00  0.00    +0.000 OA
BRANCH   8  11
ATOM     11  N   UNL     1      -0.812  10.862  21.158  0.00  0.00    +0.000 NA
ATOM     12  C   UNL     1      -1.802  11.857  20.712  0.00  0.00    +0.000 C 
ATOM     13  C   UNL     1      -1.869  12.809  21.894  0.00  0.00    +0.000 C 
ATOM     14  C   UNL     1      -1.753  11.887  23.102  0.00  0.00    +0.000 C 
ATOM     15  C   UNL     1      -1.026  10.642  22.603  0.00  0.00    +0.000 C 
ENDBRANCH   8  11
ENDBRANCH   3   8
BRANCH   7  16
ATOM     16  C   UNL     1       2.701   6.112  20.069  0.00  0.00    +0.000 C 
BRANCH  16  17
ATOM     17  C   UNL     1       2.484   4.859  19.241  0.00  0.00    +0.000 A 
ATOM     18  C   UNL     1       1.352   4.070  19.473  0.00  0.00    +0.000 A 
ATOM     19  F   UNL     1       0.410   4.493  20.331  0.00  0.00    +0.000 F 
ATOM     20  C   UNL     1       1.171   2.815  18.879  0.00  0.00    +0.000 A 
ATOM     21  C   UNL     1       2.127   2.328  17.998  0.00  0.00    +0.000 A 
ATOM     22  C   UNL     1       3.247   3.104  17.710  0.00  0.00    +0.000 A 
ATOM     23  C   UNL     1       3.425   4.356  18.328  0.00  0.00    +0.000 A 
ATOM     24 CL   UNL     1       4.881   5.201  17.949  0.00  0.00    +0.000 Cl
ENDBRANCH  16  17
ENDBRANCH   7  16
TORSDOF 4
ENDMDL
MODEL 8
REMARK VINA RESULT:      -6.9      5.085      6.726
REMARK  Name = 
REMARK  4 active torsions:
REMARK  status: ('A' for Active; 'I' for Inactive)
REMARK    1  A    between atoms: C_3  and  S_4
REMARK    2  A    between atoms: S_4  and  N_7
REMARK    3  A    between atoms: N_15  and  C_16
REMARK    4  A    between atoms: C_16  and  C_17
REMARK                            x       y       z     vdW  Elec       q    Type
REMARK                         _______ _______ _______ _____ _____    ______ ____
ROOT
ATOM      1  O   UNL     1       6.495   4.528  18.347  0.00  0.00    +0.000 OA
ATOM      2  C   UNL     1       5.636   5.165  17.749  0.00  0.00    +0.000 A 
ATOM      3  C   UNL     1       5.786   5.491  16.303  0.00  0.00    +0.000 A 
ATOM      4  C   UNL     1       5.136   6.555  15.800  0.00  0.00    +0.000 A 
ATOM      5  C   UNL     1       4.209   7.294  16.624  0.00  0.00    +0.000 A 
ATOM      6  C   UNL     1       3.867   6.825  17.830  0.00  0.00    +0.000 A 
ATOM      7  N   UNL     1       4.513   5.728  18.389  0.00  0.00    +0.000 N 
ENDROOT
BRANCH   3   8
ATOM      8  S   UNL     1       6.645   4.412  15.243  0.00  0.00    +0.000 S 
ATOM      9  O   UNL     1       8.070   4.644  15.378  0.00  0.00    +0.000 OA
ATOM     10  O   UNL     1       6.146   3.070  15.470  0.00  0.00    +0.000 OA
BRANCH   8  11
ATOM     11  N   UNL     1       6.264   4.754  13.619  0.00  0.00    +0.000 NA
ATOM     12  C   UNL     1       5.177   4.001  12.971  0.00  0.00    +0.000 C 
ATOM     13  C   UNL     1       5.934   2.984  12.133  0.00  0.00    +0.000 C 
ATOM     14  C   UNL     1       7.140   3.766  11.626  0.00  0.00    +0.000 C 
ATOM     15  C   UNL     1       7.356   4.891  12.634  0.00  0.00    +0.000 C 
ENDBRANCH   8  11
ENDBRANCH   3   8
BRANCH   7  16
ATOM     16  C   UNL     1       4.250   5.390  19.800  0.00  0.00    +0.000 C 
BRANCH  16  17
ATOM     17  C   UNL     1       3.067   4.482  20.078  0.00  0.00    +0.000 A 
ATOM     18  C   UNL     1       3.191   3.106  19.853  0.00  0.00    +0.000 A 
ATOM     19  F   UNL     1       4.385   2.590  19.518  0.00  0.00    +0.000 F 
ATOM     20  C   UNL     1       2.101   2.229  19.916  0.00  0.00    +0.000 A 
ATOM     21  C   UNL     1       0.844   2.719  20.242  0.00  0.00    +0.000 A 
ATOM     22  C   UNL     1       0.691   4.077  20.514  0.00  0.00    +0.000 A 
ATOM     23  C   UNL     1       1.791   4.950  20.430  0.00  0.00    +0.000 A 
ATOM     24 CL   UNL     1       1.473   6.621  20.722  0.00  0.00    +0.000 Cl
ENDBRANCH  16  17
ENDBRANCH   7  16
TORSDOF 4
ENDMDL
MODEL 9
REMARK VINA RESULT:      -6.9      4.051      6.389
REMARK  Name = 
REMARK  4 active torsions:
REMARK  status: ('A' for Active; 'I' for Inactive)
REMARK    1  A    between atoms: C_3  and  S_4
REMARK    2  A    between atoms: S_4  and  N_7
REMARK    3  A    between atoms: N_15  and  C_16
REMARK    4  A    between atoms: C_16  and  C_17
REMARK                            x       y       z     vdW  Elec       q    Type
REMARK                         _______ _______ _______ _____ _____    ______ ____
ROOT
ATOM      1  O   UNL     1       4.547   5.239  19.046  0.00  0.00    +0.000 OA
ATOM      2  C   UNL     1       3.852   6.106  18.529  0.00  0.00    +0.000 A 
ATOM      3  C   UNL     1       4.294   6.815  17.296  0.00  0.00    +0.000 A 
ATOM      4  C   UNL     1       3.805   8.039  17.033  0.00  0.00    +0.000 A 
ATOM      5  C   UNL     1       2.771   8.602  17.870  0.00  0.00    +0.000 A 
ATOM      6  C   UNL     1       2.181   7.844  18.802  0.00  0.00    +0.000 A 
ATOM      7  N   UNL     1       2.654   6.573  19.108  0.00  0.00    +0.000 N 
ENDROOT
BRANCH   3   8
ATOM      8  S   UNL     1       5.290   6.002  16.124  0.00  0.00    +0.000 S 
ATOM      9  O   UNL     1       4.945   4.594  16.099  0.00  0.00    +0.000 OA
ATOM     10  O   UNL     1       5.219   6.747  14.883  0.00  0.00    +0.000 OA
BRANCH   8  11
ATOM     11  N   UNL     1       6.927   6.078  16.589  0.00  0.00    +0.000 NA
ATOM     12  C   UNL     1       7.599   4.843  17.026  0.00  0.00    +0.000 C 
ATOM     13  C   UNL     1       7.605   4.988  18.539  0.00  0.00    +0.000 C 
ATOM     14  C   UNL     1       7.861   6.474  18.754  0.00  0.00    +0.000 C 
ATOM     15  C   UNL     1       7.374   7.165  17.483  0.00  0.00    +0.000 C 
ENDBRANCH   8  11
ENDBRANCH   3   8
BRANCH   7  16
ATOM     16  C   UNL     1       2.108   5.874  20.284  0.00  0.00    +0.000 C 
BRANCH  16  17
ATOM     17  C   UNL     1       1.778   4.403  20.116  0.00  0.00    +0.000 A 
ATOM     18  C   UNL     1       2.003   3.523  21.181  0.00  0.00    +0.000 A 
ATOM     19  F   UNL     1       2.385   4.007  22.375  0.00  0.00    +0.000 F 
ATOM     20  C   UNL     1       1.892   2.134  21.050  0.00  0.00    +0.000 A 
ATOM     21  C   UNL     1       1.516   1.588  19.831  0.00  0.00    +0.000 A 
ATOM     22  C   UNL     1       1.244   2.434  18.759  0.00  0.00    +0.000 A 
ATOM     23  C   UNL     1       1.376   3.828  18.900  0.00  0.00    +0.000 A 
ATOM     24 CL   UNL     1       1.077   4.777  17.490  0.00  0.00    +0.000 Cl
ENDBRANCH  16  17
ENDBRANCH   7  16
TORSDOF 4
ENDMDL
