MODEL 1
REMARK VINA RESULT:      -7.1      0.000      0.000
REMARK  Name = 
REMARK  6 active torsions:
REMARK  status: ('A' for Active; 'I' for Inactive)
REMARK    1  A    between atoms: C_1  and  O_2
REMARK    2  A    between atoms: O_2  and  C_3
REMARK    3  A    between atoms: C_5  and  N_6
REMARK    4  A    between atoms: C_10  and  C_11
REMARK    5  A    between atoms: N_13  and  C_14
REMARK    6  A    between atoms: C_14  and  C_15
REMARK                            x       y       z     vdW  Elec       q    Type
REMARK                         _______ _______ _______ _____ _____    ______ ____
ROOT
ATOM      1  C   UNL     1       1.892   8.955  18.321  0.00  0.00    +0.000 C 
ATOM      2  O   UNL     1       2.043   9.602  17.287  0.00  0.00    +0.000 OA
ATOM      3  N   UNL     1       2.475   7.727  18.506  0.00  0.00    +0.000 N 
ATOM      4  H   UNL     1       2.369   7.275  19.408  0.00  0.00    +0.000 HD
ENDROOT
BRANCH   1  11
ATOM      5  C   UNL     1      -0.128  10.271  19.262  0.00  0.00    +0.000 A 
ATOM      6  C   UNL     1      -0.834  10.707  20.399  0.00  0.00    +0.000 A 
ATOM      7  C   UNL     1      -0.386  10.430  21.696  0.00  0.00    +0.000 A 
ATOM      8  C   UNL     1       0.752   9.626  21.847  0.00  0.00    +0.000 A 
ATOM      9 CL   UNL     1       1.318   9.188  23.422  0.00  0.00    +0.000 Cl
ATOM     10  C   UNL     1       1.470   9.188  20.735  0.00  0.00    +0.000 A 
ATOM     11  C   UNL     1       1.044   9.505  19.434  0.00  0.00    +0.000 A 
BRANCH   7  12
ATOM     12  N   UNL     1      -1.208  10.767  22.787  0.00  0.00    +0.000 N 
ATOM     13  H   UNL     1      -1.290  10.047  23.499  0.00  0.00    +0.000 HD
ATOM     14  H   UNL     1      -2.113  11.136  22.497  0.00  0.00    +0.000 HD
ENDBRANCH   7  12
BRANCH   5  16
ATOM     15  C   UNL     1      -1.801  10.051  17.558  0.00  0.00    +0.000 C 
ATOM     16  O   UNL     1      -0.535  10.549  17.979  0.00  0.00    +0.000 OA
ENDBRANCH   5  16
ENDBRANCH   1  11
BRANCH   3  17
ATOM     17  C   UNL     1       3.373   7.116  17.547  0.00  0.00    +0.000 C 
BRANCH  17  18
ATOM     18  C   UNL     1       4.394   6.161  18.198  0.00  0.00    +0.000 C 
ATOM     19  C   UNL     1       4.749   4.996  17.260  0.00  0.00    +0.000 C 
ATOM     20  C   UNL     1       3.590   4.010  17.113  0.00  0.00    +0.000 C 
ATOM     21  C   UNL     1       3.010   3.577  18.475  0.00  0.00    +0.000 C 
ATOM     22  C   UNL     1       1.753   2.720  18.236  0.00  0.00    +0.000 C 
ATOM     23  C   UNL     1       1.084   2.323  19.548  0.00  0.00    +0.000 C 
ATOM     24  C   UNL     1       0.818   3.559  20.396  0.00  0.00    +0.000 C 
ATOM     25  C   UNL     1       2.099   4.365  20.600  0.00  0.00    +0.000 C 
ATOM     26  N   UNL     1       2.687   4.751  19.312  0.00  0.00    +0.000 NA
ATOM     27  C   UNL     1       3.882   5.583  19.526  0.00  0.00    +0.000 C 
ENDBRANCH  17  18
ENDBRANCH   3  17
TORSDOF 5
ENDMDL
MODEL 2
REMARK VINA RESULT:      -7.1      2.804      4.304
REMARK  Name = 
REMARK  6 active torsions:
REMARK  status: ('A' for Active; 'I' for Inactive)
REMARK    1  A    between atoms: C_1  and  O_2
REMARK    2  A    between atoms: O_2  and  C_3
REMARK    3  A    between atoms: C_5  and  N_6
REMARK    4  A    between atoms: C_10  and  C_11
REMARK    5  A    between atoms: N_13  and  C_14
REMARK    6  A    between atoms: C_14  and  C_15
REMARK                            x       y       z     vdW  Elec       q    Type
REMARK                         _______ _______ _______ _____ _____    ______ ____
ROOT
ATOM      1  C   UNL     1       1.072   9.400  18.365  0.00  0.00    +0.000 C 
ATOM      2  O   UNL     1       1.886   9.691  17.492  0.00  0.00    +0.000 OA
ATOM      3  N   UNL     1       1.295   8.389  19.264  0.00  0.00    +0.000 N 
ATOM      4  H   UNL     1       0.615   8.243  20.004  0.00  0.00    +0.000 HD
ENDROOT
BRANCH   1  11
ATOM      5  C   UNL     1      -0.552  11.061  19.507  0.00  0.00    +0.000 A 
ATOM      6  C   UNL     1      -1.794  11.721  19.469  0.00  0.00    +0.000 A 
ATOM      7  C   UNL     1      -2.725  11.482  18.450  0.00  0.00    +0.000 A 
ATOM      8  C   UNL     1      -2.358  10.624  17.405  0.00  0.00    +0.000 A 
ATOM      9 CL   UNL     1      -3.432  10.342  16.079  0.00  0.00    +0.000 Cl
ATOM     10  C   UNL     1      -1.134   9.956  17.425  0.00  0.00    +0.000 A 
ATOM     11  C   UNL     1      -0.219  10.162  18.471  0.00  0.00    +0.000 A 
BRANCH   7  12
ATOM     12  N   UNL     1      -3.885  12.276  18.388  0.00  0.00    +0.000 N 
ATOM     13  H   UNL     1      -3.840  13.048  17.730  0.00  0.00    +0.000 HD
ATOM     14  H   UNL     1      -4.213  12.563  19.310  0.00  0.00    +0.000 HD
ENDBRANCH   7  12
BRANCH   5  16
ATOM     15  C   UNL     1       0.883  12.577  20.689  0.00  0.00    +0.000 C 
ATOM     16  O   UNL     1       0.369  11.262  20.507  0.00  0.00    +0.000 OA
ENDBRANCH   5  16
ENDBRANCH   1  11
BRANCH   3  17
ATOM     17  C   UNL     1       2.526   7.625  19.320  0.00  0.00    +0.000 C 
BRANCH  17  18
ATOM     18  C   UNL     1       2.586   6.499  18.267  0.00  0.00    +0.000 C 
ATOM     19  C   UNL     1       2.712   5.119  18.932  0.00  0.00    +0.000 C 
ATOM     20  C   UNL     1       4.093   4.910  19.554  0.00  0.00    +0.000 C 
ATOM     21  C   UNL     1       5.236   5.254  18.577  0.00  0.00    +0.000 C 
ATOM     22  C   UNL     1       6.579   5.175  19.327  0.00  0.00    +0.000 C 
ATOM     23  C   UNL     1       7.746   5.582  18.435  0.00  0.00    +0.000 C 
ATOM     24  C   UNL     1       7.483   6.947  17.814  0.00  0.00    +0.000 C 
ATOM     25  C   UNL     1       6.142   6.962  17.084  0.00  0.00    +0.000 C 
ATOM     26  N   UNL     1       5.046   6.597  17.989  0.00  0.00    +0.000 NA
ATOM     27  C   UNL     1       3.755   6.682  17.289  0.00  0.00    +0.000 C 
ENDBRANCH  17  18
ENDBRANCH   3  17
TORSDOF 5
ENDMDL
MODEL 3
REMARK VINA RESULT:      -7.1      4.758      7.524
REMARK  Name = 
REMARK  6 active torsions:
REMARK  status: ('A' for Active; 'I' for Inactive)
REMARK    1  A    between atoms: C_1  and  O_2
REMARK    2  A    between atoms: O_2  and  C_3
REMARK    3  A    between atoms: C_5  and  N_6
REMARK    4  A    between atoms: C_10  and  C_11
REMARK    5  A    between atoms: N_13  and  C_14
REMARK    6  A    between atoms: C_14  and  C_15
REMARK                            x       y       z     vdW  Elec       q    Type
REMARK                         _______ _______ _______ _____ _____    ______ ____
ROOT
ATOM      1  C   UNL     1       4.446   2.745  18.183  0.00  0.00    +0.000 C 
ATOM      2  O   UNL     1       3.604   2.003  17.683  0.00  0.00    +0.000 OA
ATOM      3  N   UNL     1       4.605   2.859  19.541  0.00  0.00    +0.000 N 
ATOM      4  H   UNL     1       5.363   3.436  19.890  0.00  0.00    +0.000 HD
ENDROOT
BRANCH   1  11
ATOM      5  C   UNL     1       6.299   4.499  17.753  0.00  0.00    +0.000 A 
ATOM      6  C   UNL     1       7.086   5.186  16.810  0.00  0.00    +0.000 A 
ATOM      7  C   UNL     1       6.921   4.994  15.432  0.00  0.00    +0.000 A 
ATOM      8  C   UNL     1       6.002   4.027  15.003  0.00  0.00    +0.000 A 
ATOM      9 CL   UNL     1       5.802   3.691  13.318  0.00  0.00    +0.000 Cl
ATOM     10  C   UNL     1       5.209   3.339  15.920  0.00  0.00    +0.000 A 
ATOM     11  C   UNL     1       5.343   3.565  17.300  0.00  0.00    +0.000 A 
BRANCH   7  12
ATOM     12  N   UNL     1       7.832   5.599  14.547  0.00  0.00    +0.000 N 
ATOM     13  H   UNL     1       8.158   6.518  14.831  0.00  0.00    +0.000 HD
ATOM     14  H   UNL     1       7.512   5.578  13.579  0.00  0.00    +0.000 HD
ENDBRANCH   7  12
BRANCH   5  16
ATOM     15  C   UNL     1       7.421   5.596  19.567  0.00  0.00    +0.000 C 
ATOM     16  O   UNL     1       6.427   4.686  19.108  0.00  0.00    +0.000 OA
ENDBRANCH   5  16
ENDBRANCH   1  11
BRANCH   3  17
ATOM     17  C   UNL     1       3.858   2.073  20.502  0.00  0.00    +0.000 C 
BRANCH  17  18
ATOM     18  C   UNL     1       2.799   2.897  21.263  0.00  0.00    +0.000 C 
ATOM     19  C   UNL     1       1.378   2.571  20.774  0.00  0.00    +0.000 C 
ATOM     20  C   UNL     1       1.119   3.123  19.372  0.00  0.00    +0.000 C 
ATOM     21  C   UNL     1       1.513   4.609  19.243  0.00  0.00    +0.000 C 
ATOM     22  C   UNL     1       1.375   5.039  17.771  0.00  0.00    +0.000 C 
ATOM     23  C   UNL     1       1.826   6.481  17.561  0.00  0.00    +0.000 C 
ATOM     24  C   UNL     1       3.230   6.679  18.117  0.00  0.00    +0.000 C 
ATOM     25  C   UNL     1       3.303   6.238  19.577  0.00  0.00    +0.000 C 
ATOM     26  N   UNL     1       2.891   4.837  19.725  0.00  0.00    +0.000 NA
ATOM     27  C   UNL     1       3.032   4.408  21.126  0.00  0.00    +0.000 C 
ENDBRANCH  17  18
ENDBRANCH   3  17
TORSDOF 5
ENDMDL
MODEL 4
REMARK VINA RESULT:      -6.9      4.375      7.472
REMARK  Name = 
REMARK  6 active torsions:
REMARK  status: ('A' for Active; 'I' for Inactive)
REMARK    1  A    between atoms: C_1  and  O_2
REMARK    2  A    between atoms: O_2  and  C_3
REMARK    3  A    between atoms: C_5  and  N_6
REMARK    4  A    between atoms: C_10  and  C_11
REMARK    5  A    between atoms: N_13  and  C_14
REMARK    6  A    between atoms: C_14  and  C_15
REMARK                            x       y       z     vdW  Elec       q    Type
REMARK                         _______ _______ _______ _____ _____    ______ ____
ROOT
ATOM      1  C   UNL     1       5.351   3.847  18.603  0.00  0.00    +0.000 C 
ATOM      2  O   UNL     1       5.538   4.425  19.671  0.00  0.00    +0.000 OA
ATOM      3  N   UNL     1       4.554   2.735  18.504  0.00  0.00    +0.000 N 
ATOM      4  H   UNL     1       4.385   2.344  17.583  0.00  0.00    +0.000 HD
ENDROOT
BRANCH   1  11
ATOM      5  C   UNL     1       7.080   5.269  17.305  0.00  0.00    +0.000 A 
ATOM      6  C   UNL     1       7.608   5.646  16.056  0.00  0.00    +0.000 A 
ATOM      7  C   UNL     1       7.071   5.166  14.854  0.00  0.00    +0.000 A 
ATOM      8  C   UNL     1       6.037   4.223  14.919  0.00  0.00    +0.000 A 
ATOM      9 CL   UNL     1       5.378   3.538  13.474  0.00  0.00    +0.000 Cl
ATOM     10  C   UNL     1       5.496   3.840  16.146  0.00  0.00    +0.000 A 
ATOM     11  C   UNL     1       6.005   4.356  17.349  0.00  0.00    +0.000 A 
BRANCH   7  12
ATOM     12  N   UNL     1       7.730   5.465  13.647  0.00  0.00    +0.000 N 
ATOM     13  H   UNL     1       8.693   5.146  13.596  0.00  0.00    +0.000 HD
ATOM     14  H   UNL     1       7.625   6.442  13.374  0.00  0.00    +0.000 HD
ENDBRANCH   7  12
BRANCH   5  16
ATOM     15  C   UNL     1       8.068   7.078  18.533  0.00  0.00    +0.000 C 
ATOM     16  O   UNL     1       7.575   5.742  18.496  0.00  0.00    +0.000 OA
ENDBRANCH   5  16
ENDBRANCH   1  11
BRANCH   3  17
ATOM     17  C   UNL     1       3.808   2.184  19.618  0.00  0.00    +0.000 C 
BRANCH  17  18
ATOM     18  C   UNL     1       2.281   2.287  19.431  0.00  0.00    +0.000 C 
ATOM     19  C   UNL     1       1.907   2.434  17.947  0.00  0.00    +0.000 C 
ATOM     20  C   UNL     1       2.288   3.809  17.397  0.00  0.00    +0.000 C 
ATOM     21  C   UNL     1       1.792   4.960  18.296  0.00  0.00    +0.000 C 
ATOM     22  C   UNL     1       2.352   6.291  17.764  0.00  0.00    +0.000 C 
ATOM     23  C   UNL     1       1.962   7.464  18.657  0.00  0.00    +0.000 C 
ATOM     24  C   UNL     1       2.355   7.179  20.100  0.00  0.00    +0.000 C 
ATOM     25  C   UNL     1       1.769   5.850  20.571  0.00  0.00    +0.000 C 
ATOM     26  N   UNL     1       2.198   4.749  19.702  0.00  0.00    +0.000 NA
ATOM     27  C   UNL     1       1.680   3.468  20.208  0.00  0.00    +0.000 C 
ENDBRANCH  17  18
ENDBRANCH   3  17
TORSDOF 5
ENDMDL
MODEL 5
REMARK VINA RESULT:      -6.9      1.249      1.469
REMARK  Name = 
REMARK  6 active torsions:
REMARK  status: ('A' for Active; 'I' for Inactive)
REMARK    1  A    between atoms: C_1  and  O_2
REMARK    2  A    between atoms: O_2  and  C_3
REMARK    3  A    between atoms: C_5  and  N_6
REMARK    4  A    between atoms: C_10  and  C_11
REMARK    5  A    between atoms: N_13  and  C_14
REMARK    6  A    between atoms: C_14  and  C_15
REMARK                            x       y       z     vdW  Elec       q    Type
REMARK                         _______ _______ _______ _____ _____    ______ ____
ROOT
ATOM      1  C   UNL     1       1.938   9.109  18.273  0.00  0.00    +0.000 C 
ATOM      2  O   UNL     1       1.895   9.532  17.120  0.00  0.00    +0.000 OA
ATOM      3  N   UNL     1       2.558   7.928  18.594  0.00  0.00    +0.000 N 
ATOM      4  H   UNL     1       2.619   7.667  19.573  0.00  0.00    +0.000 HD
ENDROOT
BRANCH   1  11
ATOM      5  C   UNL     1       1.217  11.297  19.450  0.00  0.00    +0.000 A 
ATOM      6  C   UNL     1       0.569  11.897  20.546  0.00  0.00    +0.000 A 
ATOM      7  C   UNL     1       0.032  11.135  21.591  0.00  0.00    +0.000 A 
ATOM      8  C   UNL     1       0.077   9.739  21.485  0.00  0.00    +0.000 A 
ATOM      9 CL   UNL     1      -0.631   8.740  22.707  0.00  0.00    +0.000 Cl
ATOM     10  C   UNL     1       0.718   9.124  20.410  0.00  0.00    +0.000 A 
ATOM     11  C   UNL     1       1.297   9.890  19.384  0.00  0.00    +0.000 A 
BRANCH   7  12
ATOM     12  N   UNL     1      -0.727  11.781  22.584  0.00  0.00    +0.000 N 
ATOM     13  H   UNL     1      -0.358  12.676  22.889  0.00  0.00    +0.000 HD
ATOM     14  H   UNL     1      -0.960  11.166  23.363  0.00  0.00    +0.000 HD
ENDBRANCH   7  12
BRANCH   5  16
ATOM     15  C   UNL     1       2.432  13.243  18.746  0.00  0.00    +0.000 C 
ATOM     16  O   UNL     1       1.771  12.024  18.423  0.00  0.00    +0.000 OA
ENDBRANCH   5  16
ENDBRANCH   1  11
BRANCH   3  17
ATOM     17  C   UNL     1       3.277   7.115  17.633  0.00  0.00    +0.000 C 
BRANCH  17  18
ATOM     18  C   UNL     1       4.331   6.198  18.287  0.00  0.00    +0.000 C 
ATOM     19  C   UNL     1       4.753   5.065  17.337  0.00  0.00    +0.000 C 
ATOM     20  C   UNL     1       3.643   4.029  17.157  0.00  0.00    +0.000 C 
ATOM     21  C   UNL     1       3.063   3.549  18.503  0.00  0.00    +0.000 C 
ATOM     22  C   UNL     1       1.851   2.639  18.232  0.00  0.00    +0.000 C 
ATOM     23  C   UNL     1       1.181   2.192  19.526  0.00  0.00    +0.000 C 
ATOM     24  C   UNL     1       0.845   3.401  20.389  0.00  0.00    +0.000 C 
ATOM     25  C   UNL     1       2.084   4.262  20.625  0.00  0.00    +0.000 C 
ATOM     26  N   UNL     1       2.674   4.694  19.352  0.00  0.00    +0.000 NA
ATOM     27  C   UNL     1       3.826   5.577  19.597  0.00  0.00    +0.000 C 
ENDBRANCH  17  18
ENDBRANCH   3  17
TORSDOF 5
ENDMDL
MODEL 6
REMARK VINA RESULT:      -6.8      2.556      4.046
REMARK  Name = 
REMARK  6 active torsions:
REMARK  status: ('A' for Active; 'I' for Inactive)
REMARK    1  A    between atoms: C_1  and  O_2
REMARK    2  A    between atoms: O_2  and  C_3
REMARK    3  A    between atoms: C_5  and  N_6
REMARK    4  A    between atoms: C_10  and  C_11
REMARK    5  A    between atoms: N_13  and  C_14
REMARK    6  A    between atoms: C_14  and  C_15
REMARK                            x       y       z     vdW  Elec       q    Type
REMARK                         _______ _______ _______ _____ _____    ______ ____
ROOT
ATOM      1  C   UNL     1       1.279   9.370  18.946  0.00  0.00    +0.000 C 
ATOM      2  O   UNL     1       2.089   9.712  18.087  0.00  0.00    +0.000 OA
ATOM      3  N   UNL     1       1.406   8.194  19.641  0.00  0.00    +0.000 N 
ATOM      4  H   UNL     1       0.743   8.001  20.385  0.00  0.00    +0.000 HD
ENDROOT
BRANCH   1  11
ATOM      5  C   UNL     1      -0.134  10.877  20.503  0.00  0.00    +0.000 A 
ATOM      6  C   UNL     1      -1.272  11.691  20.653  0.00  0.00    +0.000 A 
ATOM      7  C   UNL     1      -2.195  11.868  19.613  0.00  0.00    +0.000 A 
ATOM      8  C   UNL     1      -1.917  11.277  18.374  0.00  0.00    +0.000 A 
ATOM      9 CL   UNL     1      -2.978  11.514  17.029  0.00  0.00    +0.000 Cl
ATOM     10  C   UNL     1      -0.798  10.462  18.205  0.00  0.00    +0.000 A 
ATOM     11  C   UNL     1       0.103  10.249  19.262  0.00  0.00    +0.000 A 
BRANCH   7  12
ATOM     12  N   UNL     1      -3.232  12.804  19.775  0.00  0.00    +0.000 N 
ATOM     13  H   UNL     1      -4.094  12.426  20.154  0.00  0.00    +0.000 HD
ATOM     14  H   UNL     1      -3.384  13.369  18.940  0.00  0.00    +0.000 HD
ENDBRANCH   7  12
BRANCH   5  16
ATOM     15  C   UNL     1       0.390   9.827  22.595  0.00  0.00    +0.000 C 
ATOM     16  O   UNL     1       0.773  10.671  21.514  0.00  0.00    +0.000 OA
ENDBRANCH   5  16
ENDBRANCH   1  11
BRANCH   3  17
ATOM     17  C   UNL     1       2.529   7.290  19.487  0.00  0.00    +0.000 C 
BRANCH  17  18
ATOM     18  C   UNL     1       2.506   6.522  18.151  0.00  0.00    +0.000 C 
ATOM     19  C   UNL     1       2.490   5.001  18.380  0.00  0.00    +0.000 C 
ATOM     20  C   UNL     1       3.832   4.490  18.903  0.00  0.00    +0.000 C 
ATOM     21  C   UNL     1       5.023   4.995  18.063  0.00  0.00    +0.000 C 
ATOM     22  C   UNL     1       6.336   4.574  18.747  0.00  0.00    +0.000 C 
ATOM     23  C   UNL     1       7.555   5.111  18.006  0.00  0.00    +0.000 C 
ATOM     24  C   UNL     1       7.432   6.617  17.814  0.00  0.00    +0.000 C 
ATOM     25  C   UNL     1       6.114   6.972  17.130  0.00  0.00    +0.000 C 
ATOM     26  N   UNL     1       4.970   6.463  17.897  0.00  0.00    +0.000 NA
ATOM     27  C   UNL     1       3.708   6.872  17.260  0.00  0.00    +0.000 C 
ENDBRANCH  17  18
ENDBRANCH   3  17
TORSDOF 5
ENDMDL
MODEL 7
REMARK VINA RESULT:      -6.7      1.720      2.491
REMARK  Name = 
REMARK  6 active torsions:
REMARK  status: ('A' for Active; 'I' for Inactive)
REMARK    1  A    between atoms: C_1  and  O_2
REMARK    2  A    between atoms: O_2  and  C_3
REMARK    3  A    between atoms: C_5  and  N_6
REMARK    4  A    between atoms: C_10  and  C_11
REMARK    5  A    between atoms: N_13  and  C_14
REMARK    6  A    between atoms: C_14  and  C_15
REMARK                            x       y       z     vdW  Elec       q    Type
REMARK                         _______ _______ _______ _____ _____    ______ ____
ROOT
ATOM      1  C   UNL     1       2.182   8.491  18.238  0.00  0.00    +0.000 C 
ATOM      2  O   UNL     1       1.895   9.073  17.194  0.00  0.00    +0.000 OA
ATOM      3  N   UNL     1       3.139   7.509  18.287  0.00  0.00    +0.000 N 
ATOM      4  H   UNL     1       3.378   7.116  19.192  0.00  0.00    +0.000 HD
ENDROOT
BRANCH   1  11
ATOM      5  C   UNL     1       1.430   8.044  20.673  0.00  0.00    +0.000 A 
ATOM      6  C   UNL     1       0.745   8.515  21.808  0.00  0.00    +0.000 A 
ATOM      7  C   UNL     1       0.077   9.747  21.808  0.00  0.00    +0.000 A 
ATOM      8  C   UNL     1       0.176  10.554  20.667  0.00  0.00    +0.000 A 
ATOM      9 CL   UNL     1      -0.565  12.117  20.628  0.00  0.00    +0.000 Cl
ATOM     10  C   UNL     1       0.846  10.105  19.530  0.00  0.00    +0.000 A 
ATOM     11  C   UNL     1       1.476   8.849  19.516  0.00  0.00    +0.000 A 
BRANCH   7  12
ATOM     12  N   UNL     1      -0.466  10.227  23.014  0.00  0.00    +0.000 N 
ATOM     13  H   UNL     1      -0.790  11.189  22.984  0.00  0.00    +0.000 HD
ATOM     14  H   UNL     1       0.135  10.040  23.817  0.00  0.00    +0.000 HD
ENDBRANCH   7  12
BRANCH   5  16
ATOM     15  C   UNL     1       1.291   5.654  20.819  0.00  0.00    +0.000 C 
ATOM     16  O   UNL     1       2.073   6.830  20.641  0.00  0.00    +0.000 OA
ENDBRANCH   5  16
ENDBRANCH   1  11
BRANCH   3  17
ATOM     17  C   UNL     1       3.944   7.119  17.147  0.00  0.00    +0.000 C 
BRANCH  17  18
ATOM     18  C   UNL     1       5.247   6.398  17.547  0.00  0.00    +0.000 C 
ATOM     19  C   UNL     1       5.772   5.516  16.402  0.00  0.00    +0.000 C 
ATOM     20  C   UNL     1       4.896   4.281  16.187  0.00  0.00    +0.000 C 
ATOM     21  C   UNL     1       4.617   3.522  17.500  0.00  0.00    +0.000 C 
ATOM     22  C   UNL     1       3.604   2.396  17.224  0.00  0.00    +0.000 C 
ATOM     23  C   UNL     1       3.224   1.654  18.500  0.00  0.00    +0.000 C 
ATOM     24  C   UNL     1       2.755   2.641  19.561  0.00  0.00    +0.000 C 
ATOM     25  C   UNL     1       3.800   3.729  19.793  0.00  0.00    +0.000 C 
ATOM     26  N   UNL     1       4.109   4.436  18.544  0.00  0.00    +0.000 NA
ATOM     27  C   UNL     1       5.066   5.524  18.797  0.00  0.00    +0.000 C 
ENDBRANCH  17  18
ENDBRANCH   3  17
TORSDOF 5
ENDMDL
MODEL 8
REMARK VINA RESULT:      -6.7      2.773      4.099
REMARK  Name = 
REMARK  6 active torsions:
REMARK  status: ('A' for Active; 'I' for Inactive)
REMARK    1  A    between atoms: C_1  and  O_2
REMARK    2  A    between atoms: O_2  and  C_3
REMARK    3  A    between atoms: C_5  and  N_6
REMARK    4  A    between atoms: C_10  and  C_11
REMARK    5  A    between atoms: N_13  and  C_14
REMARK    6  A    between atoms: C_14  and  C_15
REMARK                            x       y       z     vdW  Elec       q    Type
REMARK                         _______ _______ _______ _____ _____    ______ ____
ROOT
ATOM      1  C   UNL     1       1.560   9.567  18.082  0.00  0.00    +0.000 C 
ATOM      2  O   UNL     1       2.467  10.209  17.556  0.00  0.00    +0.000 OA
ATOM      3  N   UNL     1       1.682   8.230  18.365  0.00  0.00    +0.000 N 
ATOM      4  H   UNL     1       0.925   7.771  18.861  0.00  0.00    +0.000 HD
ENDROOT
BRANCH   1  11
ATOM      5  C   UNL     1       0.093  11.170  19.486  0.00  0.00    +0.000 A 
ATOM      6  C   UNL     1      -1.176  11.742  19.692  0.00  0.00    +0.000 A 
ATOM      7  C   UNL     1      -2.280  11.390  18.906  0.00  0.00    +0.000 A 
ATOM      8  C   UNL     1      -2.078  10.506  17.838  0.00  0.00    +0.000 A 
ATOM      9 CL   UNL     1      -3.384  10.084  16.785  0.00  0.00    +0.000 Cl
ATOM     10  C   UNL     1      -0.830   9.924  17.618  0.00  0.00    +0.000 A 
ATOM     11  C   UNL     1       0.267  10.244  18.436  0.00  0.00    +0.000 A 
BRANCH   7  12
ATOM     12  N   UNL     1      -3.484  12.099  19.066  0.00  0.00    +0.000 N 
ATOM     13  H   UNL     1      -3.437  13.083  18.821  0.00  0.00    +0.000 HD
ATOM     14  H   UNL     1      -3.914  11.942  19.978  0.00  0.00    +0.000 HD
ENDBRANCH   7  12
BRANCH   5  16
ATOM     15  C   UNL     1       1.724  12.799  20.154  0.00  0.00    +0.000 C 
ATOM     16  O   UNL     1       1.187  11.484  20.257  0.00  0.00    +0.000 OA
ENDBRANCH   5  16
ENDBRANCH   1  11
BRANCH   3  17
ATOM     17  C   UNL     1       2.898   7.473  18.143  0.00  0.00    +0.000 C 
BRANCH  17  18
ATOM     18  C   UNL     1       2.718   5.959  18.373  0.00  0.00    +0.000 C 
ATOM     19  C   UNL     1       3.407   5.504  19.670  0.00  0.00    +0.000 C 
ATOM     20  C   UNL     1       4.931   5.525  19.542  0.00  0.00    +0.000 C 
ATOM     21  C   UNL     1       5.425   4.805  18.271  0.00  0.00    +0.000 C 
ATOM     22  C   UNL     1       6.944   5.012  18.135  0.00  0.00    +0.000 C 
ATOM     23  C   UNL     1       7.485   4.389  16.853  0.00  0.00    +0.000 C 
ATOM     24  C   UNL     1       6.698   4.894  15.651  0.00  0.00    +0.000 C 
ATOM     25  C   UNL     1       5.202   4.659  15.843  0.00  0.00    +0.000 C 
ATOM     26  N   UNL     1       4.722   5.304  17.071  0.00  0.00    +0.000 NA
ATOM     27  C   UNL     1       3.267   5.125  17.206  0.00  0.00    +0.000 C 
ENDBRANCH  17  18
ENDBRANCH   3  17
TORSDOF 5
ENDMDL
MODEL 9
REMARK VINA RESULT:      -6.7      2.060      2.663
REMARK  Name = 
REMARK  6 active torsions:
REMARK  status: ('A' for Active; 'I' for Inactive)
REMARK    1  A    between atoms: C_1  and  O_2
REMARK    2  A    between atoms: O_2  and  C_3
REMARK    3  A    between atoms: C_5  and  N_6
REMARK    4  A    between atoms: C_10  and  C_11
REMARK    5  A    between atoms: N_13  and  C_14
REMARK    6  A    between atoms: C_14  and  C_15
REMARK                            x       y       z     vdW  Elec       q    Type
REMARK                         _______ _______ _______ _____ _____    ______ ____
ROOT
ATOM      1  C   UNL     1       1.658   9.199  18.193  0.00  0.00    +0.000 C 
ATOM      2  O   UNL     1       2.351   9.743  17.336  0.00  0.00    +0.000 OA
ATOM      3  N   UNL     1       1.880   7.908  18.600  0.00  0.00    +0.000 N 
ATOM      4  H   UNL     1       1.317   7.539  19.360  0.00  0.00    +0.000 HD
ENDROOT
BRANCH   1  11
ATOM      5  C   UNL     1       0.443  10.299  20.196  0.00  0.00    +0.000 A 
ATOM      6  C   UNL     1      -0.673  11.023  20.654  0.00  0.00    +0.000 A 
ATOM      7  C   UNL     1      -1.723  11.378  19.798  0.00  0.00    +0.000 A 
ATOM      8  C   UNL     1      -1.603  11.067  18.437  0.00  0.00    +0.000 A 
ATOM      9 CL   UNL     1      -2.831  11.539  17.314  0.00  0.00    +0.000 Cl
ATOM     10  C   UNL     1      -0.508  10.346  17.963  0.00  0.00    +0.000 A 
ATOM     11  C   UNL     1       0.524   9.952  18.831  0.00  0.00    +0.000 A 
BRANCH   7  12
ATOM     12  N   UNL     1      -2.739  12.223  20.281  0.00  0.00    +0.000 N 
ATOM     13  H   UNL     1      -3.606  11.753  20.523  0.00  0.00    +0.000 HD
ATOM     14  H   UNL     1      -2.887  13.038  19.686  0.00  0.00    +0.000 HD
ENDBRANCH   7  12
BRANCH   5  16
ATOM     15  C   UNL     1       1.214   8.932  22.010  0.00  0.00    +0.000 C 
ATOM     16  O   UNL     1       1.476   9.921  21.020  0.00  0.00    +0.000 OA
ENDBRANCH   5  16
ENDBRANCH   1  11
BRANCH   3  17
ATOM     17  C   UNL     1       2.981   7.096  18.120  0.00  0.00    +0.000 C 
BRANCH  17  18
ATOM     18  C   UNL     1       3.725   6.359  19.252  0.00  0.00    +0.000 C 
ATOM     19  C   UNL     1       4.851   5.472  18.697  0.00  0.00    +0.000 C 
ATOM     20  C   UNL     1       4.303   4.249  17.962  0.00  0.00    +0.000 C 
ATOM     21  C   UNL     1       3.245   3.491  18.790  0.00  0.00    +0.000 C 
ATOM     22  C   UNL     1       2.630   2.378  17.922  0.00  0.00    +0.000 C 
ATOM     23  C   UNL     1       1.518   1.639  18.657  0.00  0.00    +0.000 C 
ATOM     24  C   UNL     1       0.488   2.630  19.185  0.00  0.00    +0.000 C 
ATOM     25  C   UNL     1       1.156   3.705  20.039  0.00  0.00    +0.000 C 
ATOM     26  N   UNL     1       2.195   4.410  19.279  0.00  0.00    +0.000 NA
ATOM     27  C   UNL     1       2.782   5.486  20.093  0.00  0.00    +0.000 C 
ENDBRANCH  17  18
ENDBRANCH   3  17
TORSDOF 5
ENDMDL
