MODEL 1
REMARK VINA RESULT:      -7.8      0.000      0.000
REMARK  Name = 
REMARK  8 active torsions:
REMARK  status: ('A' for Active; 'I' for Inactive)
REMARK    1  A    between atoms: C_1  and  C_2
REMARK    2  A    between atoms: C_2  and  O_3
REMARK    3  A    between atoms: C_2  and  C_17
REMARK    4  A    between atoms: O_3  and  C_4
REMARK    5  A    between atoms: C_4  and  C_6
REMARK    6  A    between atoms: C_8  and  O_9
REMARK    7  A    between atoms: C_20  and  C_21
REMARK    8  A    between atoms: C_25  and  C_26
REMARK                            x       y       z     vdW  Elec       q    Type
REMARK                         _______ _______ _______ _____ _____    ______ ____
ROOT
ATOM      1  C   UNL     1       4.159   4.340  19.184  0.00  0.00    +0.000 C 
ATOM      2  O   UNL     1       3.724   3.210  19.089  0.00  0.00    +0.000 OA
ENDROOT
BRANCH   1   3
ATOM      3  C   UNL     1       5.393   4.846  18.524  0.00  0.00    +0.000 A 
ATOM      4  C   UNL     1       6.343   5.489  19.322  0.00  0.00    +0.000 A 
ATOM      5  C   UNL     1       7.483   5.946  18.710  0.00  0.00    +0.000 A 
ATOM      6  N   UNL     1       7.729   5.820  17.400  0.00  0.00    +0.000 NA
ATOM      7  C   UNL     1       6.821   5.204  16.628  0.00  0.00    +0.000 A 
ATOM      8  C   UNL     1       7.110   5.069  15.277  0.00  0.00    +0.000 A 
ATOM      9  C   UNL     1       6.244   4.424  14.393  0.00  0.00    +0.000 A 
ATOM     10  C   UNL     1       5.051   3.906  14.867  0.00  0.00    +0.000 A 
ATOM     11  C   UNL     1       4.734   4.032  16.220  0.00  0.00    +0.000 A 
ATOM     12  C   UNL     1       5.610   4.683  17.130  0.00  0.00    +0.000 A 
BRANCH   5  13
ATOM     13  O   UNL     1       8.467   6.566  19.419  0.00  0.00    +0.000 OA
ATOM     14  H   UNL     1       8.387   6.313  20.349  0.00  0.00    +0.000 HD
ENDBRANCH   5  13
ENDBRANCH   1   3
BRANCH   1  15
ATOM     15  O   UNL     1       3.636   5.333  19.957  0.00  0.00    +0.000 OA
BRANCH  15  17
ATOM     16  C   UNL     1       1.905   4.961  18.345  0.00  0.00    +0.000 C 
ATOM     17  C   UNL     1       2.367   5.835  19.514  0.00  0.00    +0.000 C 
BRANCH  17  18
ATOM     18  C   UNL     1       2.455   7.325  19.078  0.00  0.00    +0.000 C 
ATOM     19  O   UNL     1       3.176   7.632  18.127  0.00  0.00    +0.000 OA
ATOM     20  N   UNL     1       1.623   8.253  19.729  0.00  0.00    +0.000 N 
ATOM     21  C   UNL     1       1.416   9.636  19.212  0.00  0.00    +0.000 C 
ATOM     22  C   UNL     1       1.835   9.929  17.766  0.00  0.00    +0.000 C 
ATOM     23  C   UNL     1      -0.077  10.013  19.344  0.00  0.00    +0.000 C 
ATOM     24  C   UNL     1      -0.629   9.805  20.750  0.00  0.00    +0.000 C 
ATOM     25  C   UNL     1      -0.332   8.398  21.242  0.00  0.00    +0.000 C 
ATOM     26  C   UNL     1       1.150   8.040  21.115  0.00  0.00    +0.000 C 
ATOM     27  C   UNL     1       2.027   8.788  22.130  0.00  0.00    +0.000 C 
ENDBRANCH  17  18
ENDBRANCH  15  17
ENDBRANCH   1  15
TORSDOF 5
ENDMDL
MODEL 2
REMARK VINA RESULT:      -7.8      2.874      7.806
REMARK  Name = 
REMARK  8 active torsions:
REMARK  status: ('A' for Active; 'I' for Inactive)
REMARK    1  A    between atoms: C_1  and  C_2
REMARK    2  A    between atoms: C_2  and  O_3
REMARK    3  A    between atoms: C_2  and  C_17
REMARK    4  A    between atoms: O_3  and  C_4
REMARK    5  A    between atoms: C_4  and  C_6
REMARK    6  A    between atoms: C_8  and  O_9
REMARK    7  A    between atoms: C_20  and  C_21
REMARK    8  A    between atoms: C_25  and  C_26
REMARK                            x       y       z     vdW  Elec       q    Type
REMARK                         _______ _______ _______ _____ _____    ______ ____
ROOT
ATOM      1  C   UNL     1       1.598   9.330  18.603  0.00  0.00    +0.000 C 
ATOM      2  O   UNL     1       2.197   9.515  17.562  0.00  0.00    +0.000 OA
ENDROOT
BRANCH   1   3
ATOM      3  C   UNL     1       0.569  10.237  19.177  0.00  0.00    +0.000 A 
ATOM      4  C   UNL     1       0.890  10.931  20.347  0.00  0.00    +0.000 A 
ATOM      5  C   UNL     1      -0.061  11.773  20.868  0.00  0.00    +0.000 A 
ATOM      6  N   UNL     1      -1.272  11.957  20.329  0.00  0.00    +0.000 NA
ATOM      7  C   UNL     1      -1.587  11.294  19.206  0.00  0.00    +0.000 A 
ATOM      8  C   UNL     1      -2.841  11.518  18.656  0.00  0.00    +0.000 A 
ATOM      9  C   UNL     1      -3.258  10.897  17.478  0.00  0.00    +0.000 A 
ATOM     10  C   UNL     1      -2.403  10.019  16.833  0.00  0.00    +0.000 A 
ATOM     11  C   UNL     1      -1.138   9.772  17.367  0.00  0.00    +0.000 A 
ATOM     12  C   UNL     1      -0.701  10.402  18.563  0.00  0.00    +0.000 A 
BRANCH   5  13
ATOM     13  O   UNL     1       0.179  12.500  21.994  0.00  0.00    +0.000 OA
ATOM     14  H   UNL     1       1.121  12.718  22.030  0.00  0.00    +0.000 HD
ENDBRANCH   5  13
ENDBRANCH   1   3
BRANCH   1  15
ATOM     15  O   UNL     1       1.801   8.294  19.464  0.00  0.00    +0.000 OA
BRANCH  15  17
ATOM     16  C   UNL     1       1.665   6.838  17.568  0.00  0.00    +0.000 C 
ATOM     17  C   UNL     1       2.403   7.132  18.876  0.00  0.00    +0.000 C 
BRANCH  17  18
ATOM     18  C   UNL     1       2.335   5.903  19.827  0.00  0.00    +0.000 C 
ATOM     19  O   UNL     1       1.719   5.998  20.890  0.00  0.00    +0.000 OA
ATOM     20  N   UNL     1       2.899   4.694  19.384  0.00  0.00    +0.000 N 
ATOM     21  C   UNL     1       2.648   3.397  20.076  0.00  0.00    +0.000 C 
ATOM     22  C   UNL     1       1.479   3.331  21.067  0.00  0.00    +0.000 C 
ATOM     23  C   UNL     1       2.420   2.290  19.021  0.00  0.00    +0.000 C 
ATOM     24  C   UNL     1       3.531   2.214  17.980  0.00  0.00    +0.000 C 
ATOM     25  C   UNL     1       3.780   3.577  17.357  0.00  0.00    +0.000 C 
ATOM     26  C   UNL     1       4.013   4.662  18.410  0.00  0.00    +0.000 C 
ATOM     27  C   UNL     1       5.371   4.520  19.113  0.00  0.00    +0.000 C 
ENDBRANCH  17  18
ENDBRANCH  15  17
ENDBRANCH   1  15
TORSDOF 5
ENDMDL
MODEL 3
REMARK VINA RESULT:      -7.7      2.668      4.095
REMARK  Name = 
REMARK  8 active torsions:
REMARK  status: ('A' for Active; 'I' for Inactive)
REMARK    1  A    between atoms: C_1  and  C_2
REMARK    2  A    between atoms: C_2  and  O_3
REMARK    3  A    between atoms: C_2  and  C_17
REMARK    4  A    between atoms: O_3  and  C_4
REMARK    5  A    between atoms: C_4  and  C_6
REMARK    6  A    between atoms: C_8  and  O_9
REMARK    7  A    between atoms: C_20  and  C_21
REMARK    8  A    between atoms: C_25  and  C_26
REMARK                            x       y       z     vdW  Elec       q    Type
REMARK                         _______ _______ _______ _____ _____    ______ ____
ROOT
ATOM      1  C   UNL     1       2.196   7.742  18.818  0.00  0.00    +0.000 C 
ATOM      2  O   UNL     1       2.051   7.773  20.024  0.00  0.00    +0.000 OA
ENDROOT
BRANCH   1   3
ATOM      3  C   UNL     1       3.034   6.764  18.075  0.00  0.00    +0.000 A 
ATOM      4  C   UNL     1       4.162   7.246  17.407  0.00  0.00    +0.000 A 
ATOM      5  C   UNL     1       4.937   6.337  16.730  0.00  0.00    +0.000 A 
ATOM      6  N   UNL     1       4.669   5.028  16.666  0.00  0.00    +0.000 NA
ATOM      7  C   UNL     1       3.587   4.558  17.306  0.00  0.00    +0.000 A 
ATOM      8  C   UNL     1       3.343   3.193  17.241  0.00  0.00    +0.000 A 
ATOM      9  C   UNL     1       2.258   2.601  17.890  0.00  0.00    +0.000 A 
ATOM     10  C   UNL     1       1.386   3.392  18.617  0.00  0.00    +0.000 A 
ATOM     11  C   UNL     1       1.606   4.768  18.695  0.00  0.00    +0.000 A 
ATOM     12  C   UNL     1       2.709   5.381  18.043  0.00  0.00    +0.000 A 
BRANCH   5  13
ATOM     13  O   UNL     1       6.065   6.722  16.069  0.00  0.00    +0.000 OA
ATOM     14  H   UNL     1       5.857   7.490  15.519  0.00  0.00    +0.000 HD
ENDBRANCH   5  13
ENDBRANCH   1   3
BRANCH   1  15
ATOM     15  O   UNL     1       1.668   8.632  17.930  0.00  0.00    +0.000 OA
BRANCH  15  17
ATOM     16  C   UNL     1      -0.486   9.598  17.528  0.00  0.00    +0.000 C 
ATOM     17  C   UNL     1       0.706   9.539  18.487  0.00  0.00    +0.000 C 
BRANCH  17  18
ATOM     18  C   UNL     1       1.306  10.958  18.699  0.00  0.00    +0.000 C 
ATOM     19  O   UNL     1       2.400  11.229  18.201  0.00  0.00    +0.000 OA
ATOM     20  N   UNL     1       0.521  11.912  19.370  0.00  0.00    +0.000 N 
ATOM     21  C   UNL     1       0.868  13.363  19.381  0.00  0.00    +0.000 C 
ATOM     22  C   UNL     1       1.892  13.860  18.354  0.00  0.00    +0.000 C 
ATOM     23  C   UNL     1      -0.419  14.198  19.189  0.00  0.00    +0.000 C 
ATOM     24  C   UNL     1      -1.525  13.833  20.173  0.00  0.00    +0.000 C 
ATOM     25  C   UNL     1      -1.787  12.337  20.158  0.00  0.00    +0.000 C 
ATOM     26  C   UNL     1      -0.508  11.522  20.358  0.00  0.00    +0.000 C 
ATOM     27  C   UNL     1       0.028  11.609  21.794  0.00  0.00    +0.000 C 
ENDBRANCH  17  18
ENDBRANCH  15  17
ENDBRANCH   1  15
TORSDOF 5
ENDMDL
MODEL 4
REMARK VINA RESULT:      -7.5      2.576      7.686
REMARK  Name = 
REMARK  8 active torsions:
REMARK  status: ('A' for Active; 'I' for Inactive)
REMARK    1  A    between atoms: C_1  and  C_2
REMARK    2  A    between atoms: C_2  and  O_3
REMARK    3  A    between atoms: C_2  and  C_17
REMARK    4  A    between atoms: O_3  and  C_4
REMARK    5  A    between atoms: C_4  and  C_6
REMARK    6  A    between atoms: C_8  and  O_9
REMARK    7  A    between atoms: C_20  and  C_21
REMARK    8  A    between atoms: C_25  and  C_26
REMARK                            x       y       z     vdW  Elec       q    Type
REMARK                         _______ _______ _______ _____ _____    ______ ____
ROOT
ATOM      1  C   UNL     1       1.541   9.356  18.440  0.00  0.00    +0.000 C 
ATOM      2  O   UNL     1       1.796   9.286  17.254  0.00  0.00    +0.000 OA
ENDROOT
BRANCH   1   3
ATOM      3  C   UNL     1       0.545  10.272  19.055  0.00  0.00    +0.000 A 
ATOM      4  C   UNL     1       0.929  10.984  20.195  0.00  0.00    +0.000 A 
ATOM      5  C   UNL     1       0.007  11.835  20.754  0.00  0.00    +0.000 A 
ATOM      6  N   UNL     1      -1.231  12.012  20.277  0.00  0.00    +0.000 NA
ATOM      7  C   UNL     1      -1.606  11.333  19.183  0.00  0.00    +0.000 A 
ATOM      8  C   UNL     1      -2.888  11.550  18.698  0.00  0.00    +0.000 A 
ATOM      9  C   UNL     1      -3.368  10.910  17.554  0.00  0.00    +0.000 A 
ATOM     10  C   UNL     1      -2.549  10.022  16.878  0.00  0.00    +0.000 A 
ATOM     11  C   UNL     1      -1.257   9.782  17.347  0.00  0.00    +0.000 A 
ATOM     12  C   UNL     1      -0.757  10.430  18.508  0.00  0.00    +0.000 A 
BRANCH   5  13
ATOM     13  O   UNL     1       0.308  12.580  21.854  0.00  0.00    +0.000 OA
ATOM     14  H   UNL     1       0.391  11.990  22.616  0.00  0.00    +0.000 HD
ENDBRANCH   5  13
ENDBRANCH   1   3
BRANCH   1  15
ATOM     15  O   UNL     1       2.162   8.655  19.430  0.00  0.00    +0.000 OA
BRANCH  15  17
ATOM     16  C   UNL     1       1.598   6.830  20.874  0.00  0.00    +0.000 C 
ATOM     17  C   UNL     1       1.891   7.246  19.430  0.00  0.00    +0.000 C 
BRANCH  17  18
ATOM     18  C   UNL     1       3.084   6.428  18.859  0.00  0.00    +0.000 C 
ATOM     19  O   UNL     1       4.084   7.024  18.457  0.00  0.00    +0.000 OA
ATOM     20  N   UNL     1       3.012   5.025  18.921  0.00  0.00    +0.000 N 
ATOM     21  C   UNL     1       4.196   4.155  18.671  0.00  0.00    +0.000 C 
ATOM     22  C   UNL     1       5.583   4.811  18.697  0.00  0.00    +0.000 C 
ATOM     23  C   UNL     1       4.213   3.003  19.702  0.00  0.00    +0.000 C 
ATOM     24  C   UNL     1       2.899   2.232  19.762  0.00  0.00    +0.000 C 
ATOM     25  C   UNL     1       1.727   3.180  19.957  0.00  0.00    +0.000 C 
ATOM     26  C   UNL     1       1.717   4.309  18.925  0.00  0.00    +0.000 C 
ATOM     27  C   UNL     1       1.339   3.821  17.520  0.00  0.00    +0.000 C 
ENDBRANCH  17  18
ENDBRANCH  15  17
ENDBRANCH   1  15
TORSDOF 5
ENDMDL
MODEL 5
REMARK VINA RESULT:      -7.4      1.313      2.275
REMARK  Name = 
REMARK  8 active torsions:
REMARK  status: ('A' for Active; 'I' for Inactive)
REMARK    1  A    between atoms: C_1  and  C_2
REMARK    2  A    between atoms: C_2  and  O_3
REMARK    3  A    between atoms: C_2  and  C_17
REMARK    4  A    between atoms: O_3  and  C_4
REMARK    5  A    between atoms: C_4  and  C_6
REMARK    6  A    between atoms: C_8  and  O_9
REMARK    7  A    between atoms: C_20  and  C_21
REMARK    8  A    between atoms: C_25  and  C_26
REMARK                            x       y       z     vdW  Elec       q    Type
REMARK                         _______ _______ _______ _____ _____    ______ ____
ROOT
ATOM      1  C   UNL     1       3.638   5.156  18.632  0.00  0.00    +0.000 C 
ATOM      2  O   UNL     1       2.833   4.292  18.346  0.00  0.00    +0.000 OA
ENDROOT
BRANCH   1   3
ATOM      3  C   UNL     1       5.084   5.135  18.288  0.00  0.00    +0.000 A 
ATOM      4  C   UNL     1       6.004   5.339  19.320  0.00  0.00    +0.000 A 
ATOM      5  C   UNL     1       7.338   5.310  18.998  0.00  0.00    +0.000 A 
ATOM      6  N   UNL     1       7.803   5.108  17.760  0.00  0.00    +0.000 NA
ATOM      7  C   UNL     1       6.926   4.911  16.764  0.00  0.00    +0.000 A 
ATOM      8  C   UNL     1       7.435   4.683  15.493  0.00  0.00    +0.000 A 
ATOM      9  C   UNL     1       6.609   4.444  14.394  0.00  0.00    +0.000 A 
ATOM     10  C   UNL     1       5.235   4.440  14.564  0.00  0.00    +0.000 A 
ATOM     11  C   UNL     1       4.697   4.670  15.830  0.00  0.00    +0.000 A 
ATOM     12  C   UNL     1       5.528   4.911  16.957  0.00  0.00    +0.000 A 
BRANCH   5  13
ATOM     13  O   UNL     1       8.299   5.481  19.948  0.00  0.00    +0.000 OA
ATOM     14  H   UNL     1       9.159   5.259  19.565  0.00  0.00    +0.000 HD
ENDBRANCH   5  13
ENDBRANCH   1   3
BRANCH   1  15
ATOM     15  O   UNL     1       3.379   6.271  19.372  0.00  0.00    +0.000 OA
BRANCH  15  17
ATOM     16  C   UNL     1       3.104   8.175  17.945  0.00  0.00    +0.000 C 
ATOM     17  C   UNL     1       2.383   7.143  18.817  0.00  0.00    +0.000 C 
BRANCH  17  18
ATOM     18  C   UNL     1       1.554   7.851  19.925  0.00  0.00    +0.000 C 
ATOM     19  O   UNL     1       1.330   7.257  20.981  0.00  0.00    +0.000 OA
ATOM     20  N   UNL     1       1.178   9.189  19.715  0.00  0.00    +0.000 N 
ATOM     21  C   UNL     1       0.636  10.046  20.809  0.00  0.00    +0.000 C 
ATOM     22  C   UNL     1       0.827   9.566  22.253  0.00  0.00    +0.000 C 
ATOM     23  C   UNL     1       1.256  11.458  20.707  0.00  0.00    +0.000 C 
ATOM     24  C   UNL     1       1.110  12.081  19.323  0.00  0.00    +0.000 C 
ATOM     25  C   UNL     1       1.623  11.135  18.250  0.00  0.00    +0.000 C 
ATOM     26  C   UNL     1       0.995   9.744  18.355  0.00  0.00    +0.000 C 
ATOM     27  C   UNL     1      -0.482   9.730  17.936  0.00  0.00    +0.000 C 
ENDBRANCH  17  18
ENDBRANCH  15  17
ENDBRANCH   1  15
TORSDOF 5
ENDMDL
MODEL 6
REMARK VINA RESULT:      -7.4      2.405      3.749
REMARK  Name = 
REMARK  8 active torsions:
REMARK  status: ('A' for Active; 'I' for Inactive)
REMARK    1  A    between atoms: C_1  and  C_2
REMARK    2  A    between atoms: C_2  and  O_3
REMARK    3  A    between atoms: C_2  and  C_17
REMARK    4  A    between atoms: O_3  and  C_4
REMARK    5  A    between atoms: C_4  and  C_6
REMARK    6  A    between atoms: C_8  and  O_9
REMARK    7  A    between atoms: C_20  and  C_21
REMARK    8  A    between atoms: C_25  and  C_26
REMARK                            x       y       z     vdW  Elec       q    Type
REMARK                         _______ _______ _______ _____ _____    ______ ____
ROOT
ATOM      1  C   UNL     1       2.338   7.492  19.014  0.00  0.00    +0.000 C 
ATOM      2  O   UNL     1       2.063   7.305  20.183  0.00  0.00    +0.000 OA
ENDROOT
BRANCH   1   3
ATOM      3  C   UNL     1       3.127   6.569  18.156  0.00  0.00    +0.000 A 
ATOM      4  C   UNL     1       4.204   7.101  17.443  0.00  0.00    +0.000 A 
ATOM      5  C   UNL     1       4.935   6.242  16.659  0.00  0.00    +0.000 A 
ATOM      6  N   UNL     1       4.668   4.936  16.534  0.00  0.00    +0.000 NA
ATOM      7  C   UNL     1       3.636   4.419  17.216  0.00  0.00    +0.000 A 
ATOM      8  C   UNL     1       3.394   3.058  17.084  0.00  0.00    +0.000 A 
ATOM      9  C   UNL     1       2.359   2.418  17.769  0.00  0.00    +0.000 A 
ATOM     10  C   UNL     1       1.537   3.156  18.602  0.00  0.00    +0.000 A 
ATOM     11  C   UNL     1       1.755   4.526  18.749  0.00  0.00    +0.000 A 
ATOM     12  C   UNL     1       2.807   5.188  18.061  0.00  0.00    +0.000 A 
BRANCH   5  13
ATOM     13  O   UNL     1       6.012   6.676  15.947  0.00  0.00    +0.000 OA
ATOM     14  H   UNL     1       6.098   6.134  15.150  0.00  0.00    +0.000 HD
ENDBRANCH   5  13
ENDBRANCH   1   3
BRANCH   1  15
ATOM     15  O   UNL     1       2.030   8.606  18.292  0.00  0.00    +0.000 OA
BRANCH  15  17
ATOM     16  C   UNL     1      -0.048   9.506  17.512  0.00  0.00    +0.000 C 
ATOM     17  C   UNL     1       0.854   9.301  18.732  0.00  0.00    +0.000 C 
BRANCH  17  18
ATOM     18  C   UNL     1       1.202  10.668  19.387  0.00  0.00    +0.000 C 
ATOM     19  O   UNL     1       1.840  11.500  18.740  0.00  0.00    +0.000 OA
ATOM     20  N   UNL     1       0.683  10.939  20.665  0.00  0.00    +0.000 N 
ATOM     21  C   UNL     1       0.711  12.304  21.263  0.00  0.00    +0.000 C 
ATOM     22  C   UNL     1       0.989  13.488  20.329  0.00  0.00    +0.000 C 
ATOM     23  C   UNL     1      -0.635  12.582  21.970  0.00  0.00    +0.000 C 
ATOM     24  C   UNL     1      -1.028  11.494  22.964  0.00  0.00    +0.000 C 
ATOM     25  C   UNL     1      -0.979  10.124  22.310  0.00  0.00    +0.000 C 
ATOM     26  C   UNL     1       0.362   9.857  21.622  0.00  0.00    +0.000 C 
ATOM     27  C   UNL     1       1.505   9.635  22.624  0.00  0.00    +0.000 C 
ENDBRANCH  17  18
ENDBRANCH  15  17
ENDBRANCH   1  15
TORSDOF 5
ENDMDL
MODEL 7
REMARK VINA RESULT:      -7.4      2.791      8.004
REMARK  Name = 
REMARK  8 active torsions:
REMARK  status: ('A' for Active; 'I' for Inactive)
REMARK    1  A    between atoms: C_1  and  C_2
REMARK    2  A    between atoms: C_2  and  O_3
REMARK    3  A    between atoms: C_2  and  C_17
REMARK    4  A    between atoms: O_3  and  C_4
REMARK    5  A    between atoms: C_4  and  C_6
REMARK    6  A    between atoms: C_8  and  O_9
REMARK    7  A    between atoms: C_20  and  C_21
REMARK    8  A    between atoms: C_25  and  C_26
REMARK                            x       y       z     vdW  Elec       q    Type
REMARK                         _______ _______ _______ _____ _____    ______ ____
ROOT
ATOM      1  C   UNL     1       1.840   9.047  18.815  0.00  0.00    +0.000 C 
ATOM      2  O   UNL     1       2.711   9.285  18.001  0.00  0.00    +0.000 OA
ENDROOT
BRANCH   1   3
ATOM      3  C   UNL     1       0.755   9.982  19.213  0.00  0.00    +0.000 A 
ATOM      4  C   UNL     1       0.177  10.774  18.217  0.00  0.00    +0.000 A 
ATOM      5  C   UNL     1      -0.831  11.629  18.590  0.00  0.00    +0.000 A 
ATOM      6  N   UNL     1      -1.280  11.753  19.844  0.00  0.00    +0.000 NA
ATOM      7  C   UNL     1      -0.730  10.995  20.805  0.00  0.00    +0.000 A 
ATOM      8  C   UNL     1      -1.228  11.128  22.094  0.00  0.00    +0.000 A 
ATOM      9  C   UNL     1      -0.741  10.371  23.160  0.00  0.00    +0.000 A 
ATOM     10  C   UNL     1       0.278   9.460  22.938  0.00  0.00    +0.000 A 
ATOM     11  C   UNL     1       0.800   9.310  21.653  0.00  0.00    +0.000 A 
ATOM     12  C   UNL     1       0.309  10.072  20.559  0.00  0.00    +0.000 A 
BRANCH   5  13
ATOM     13  O   UNL     1      -1.460  12.421  17.677  0.00  0.00    +0.000 OA
ATOM     14  H   UNL     1      -0.811  12.721  17.025  0.00  0.00    +0.000 HD
ENDBRANCH   5  13
ENDBRANCH   1   3
BRANCH   1  15
ATOM     15  O   UNL     1       1.733   7.909  19.555  0.00  0.00    +0.000 OA
BRANCH  15  17
ATOM     16  C   UNL     1       1.836   6.445  17.662  0.00  0.00    +0.000 C 
ATOM     17  C   UNL     1       2.442   6.778  19.027  0.00  0.00    +0.000 C 
BRANCH  17  18
ATOM     18  C   UNL     1       2.357   5.549  19.976  0.00  0.00    +0.000 C 
ATOM     19  O   UNL     1       1.772   5.661  21.055  0.00  0.00    +0.000 OA
ATOM     20  N   UNL     1       2.866   4.323  19.514  0.00  0.00    +0.000 N 
ATOM     21  C   UNL     1       2.588   3.033  20.208  0.00  0.00    +0.000 C 
ATOM     22  C   UNL     1       1.444   3.003  21.229  0.00  0.00    +0.000 C 
ATOM     23  C   UNL     1       2.293   1.938  19.156  0.00  0.00    +0.000 C 
ATOM     24  C   UNL     1       3.373   1.828  18.085  0.00  0.00    +0.000 C 
ATOM     25  C   UNL     1       3.653   3.185  17.460  0.00  0.00    +0.000 C 
ATOM     26  C   UNL     1       3.952   4.256  18.511  0.00  0.00    +0.000 C 
ATOM     27  C   UNL     1       5.322   4.064  19.177  0.00  0.00    +0.000 C 
ENDBRANCH  17  18
ENDBRANCH  15  17
ENDBRANCH   1  15
TORSDOF 5
ENDMDL
MODEL 8
REMARK VINA RESULT:      -7.4      2.905      4.782
REMARK  Name = 
REMARK  8 active torsions:
REMARK  status: ('A' for Active; 'I' for Inactive)
REMARK    1  A    between atoms: C_1  and  C_2
REMARK    2  A    between atoms: C_2  and  O_3
REMARK    3  A    between atoms: C_2  and  C_17
REMARK    4  A    between atoms: O_3  and  C_4
REMARK    5  A    between atoms: C_4  and  C_6
REMARK    6  A    between atoms: C_8  and  O_9
REMARK    7  A    between atoms: C_20  and  C_21
REMARK    8  A    between atoms: C_25  and  C_26
REMARK                            x       y       z     vdW  Elec       q    Type
REMARK                         _______ _______ _______ _____ _____    ______ ____
ROOT
ATOM      1  C   UNL     1       1.770   8.185  19.514  0.00  0.00    +0.000 C 
ATOM      2  O   UNL     1       1.606   8.351  20.707  0.00  0.00    +0.000 OA
ENDROOT
BRANCH   1   3
ATOM      3  C   UNL     1       2.539   7.073  18.897  0.00  0.00    +0.000 A 
ATOM      4  C   UNL     1       3.394   7.381  17.834  0.00  0.00    +0.000 A 
ATOM      5  C   UNL     1       4.109   6.352  17.274  0.00  0.00    +0.000 A 
ATOM      6  N   UNL     1       4.026   5.079  17.677  0.00  0.00    +0.000 NA
ATOM      7  C   UNL     1       3.207   4.776  18.697  0.00  0.00    +0.000 A 
ATOM      8  C   UNL     1       3.155   3.451  19.109  0.00  0.00    +0.000 A 
ATOM      9  C   UNL     1       2.354   3.035  20.174  0.00  0.00    +0.000 A 
ATOM     10  C   UNL     1       1.576   3.965  20.842  0.00  0.00    +0.000 A 
ATOM     11  C   UNL     1       1.606   5.302  20.445  0.00  0.00    +0.000 A 
ATOM     12  C   UNL     1       2.420   5.737  19.365  0.00  0.00    +0.000 A 
BRANCH   5  13
ATOM     13  O   UNL     1       4.978   6.570  16.248  0.00  0.00    +0.000 OA
ATOM     14  H   UNL     1       5.680   5.906  16.288  0.00  0.00    +0.000 HD
ENDBRANCH   5  13
ENDBRANCH   1   3
BRANCH   1  15
ATOM     15  O   UNL     1       1.333   9.017  18.527  0.00  0.00    +0.000 OA
BRANCH  15  17
ATOM     16  C   UNL     1      -0.741   9.966  17.795  0.00  0.00    +0.000 C 
ATOM     17  C   UNL     1       0.293   9.925  18.922  0.00  0.00    +0.000 C 
BRANCH  17  18
ATOM     18  C   UNL     1       0.848  11.350  19.204  0.00  0.00    +0.000 C 
ATOM     19  O   UNL     1       1.950  11.667  18.751  0.00  0.00    +0.000 OA
ATOM     20  N   UNL     1       0.018  12.260  19.882  0.00  0.00    +0.000 N 
ATOM     21  C   UNL     1       0.325  13.717  19.955  0.00  0.00    +0.000 C 
ATOM     22  C   UNL     1       1.368  14.277  18.981  0.00  0.00    +0.000 C 
ATOM     23  C   UNL     1      -0.977  14.526  19.751  0.00  0.00    +0.000 C 
ATOM     24  C   UNL     1      -2.103  14.098  20.685  0.00  0.00    +0.000 C 
ATOM     25  C   UNL     1      -2.325  12.596  20.609  0.00  0.00    +0.000 C 
ATOM     26  C   UNL     1      -1.032  11.808  20.822  0.00  0.00    +0.000 C 
ATOM     27  C   UNL     1      -0.543  11.857  22.277  0.00  0.00    +0.000 C 
ENDBRANCH  17  18
ENDBRANCH  15  17
ENDBRANCH   1  15
TORSDOF 5
ENDMDL
MODEL 9
REMARK VINA RESULT:      -7.4      2.634      7.693
REMARK  Name = 
REMARK  8 active torsions:
REMARK  status: ('A' for Active; 'I' for Inactive)
REMARK    1  A    between atoms: C_1  and  C_2
REMARK    2  A    between atoms: C_2  and  O_3
REMARK    3  A    between atoms: C_2  and  C_17
REMARK    4  A    between atoms: O_3  and  C_4
REMARK    5  A    between atoms: C_4  and  C_6
REMARK    6  A    between atoms: C_8  and  O_9
REMARK    7  A    between atoms: C_20  and  C_21
REMARK    8  A    between atoms: C_25  and  C_26
REMARK                            x       y       z     vdW  Elec       q    Type
REMARK                         _______ _______ _______ _____ _____    ______ ____
ROOT
ATOM      1  C   UNL     1       1.192   9.775  18.117  0.00  0.00    +0.000 C 
ATOM      2  O   UNL     1       0.133   9.416  17.642  0.00  0.00    +0.000 OA
ENDROOT
BRANCH   1   3
ATOM      3  C   UNL     1       1.478  11.130  18.661  0.00  0.00    +0.000 A 
ATOM      4  C   UNL     1       2.410  11.921  17.984  0.00  0.00    +0.000 A 
ATOM      5  C   UNL     1       2.663  13.174  18.485  0.00  0.00    +0.000 A 
ATOM      6  N   UNL     1       2.080  13.672  19.582  0.00  0.00    +0.000 NA
ATOM      7  C   UNL     1       1.184  12.917  20.236  0.00  0.00    +0.000 A 
ATOM      8  C   UNL     1       0.579  13.465  21.359  0.00  0.00    +0.000 A 
ATOM      9  C   UNL     1      -0.382  12.773  22.097  0.00  0.00    +0.000 A 
ATOM     10  C   UNL     1      -0.745  11.494  21.710  0.00  0.00    +0.000 A 
ATOM     11  C   UNL     1      -0.149  10.918  20.588  0.00  0.00    +0.000 A 
ATOM     12  C   UNL     1       0.827  11.615  19.827  0.00  0.00    +0.000 A 
BRANCH   5  13
ATOM     13  O   UNL     1       3.543  14.015  17.874  0.00  0.00    +0.000 OA
ATOM     14  H   UNL     1       3.388  13.989  16.919  0.00  0.00    +0.000 HD
ENDBRANCH   5  13
ENDBRANCH   1   3
BRANCH   1  15
ATOM     15  O   UNL     1       2.329   9.027  18.184  0.00  0.00    +0.000 OA
BRANCH  15  17
ATOM     16  C   UNL     1       2.054   7.657  20.130  0.00  0.00    +0.000 C 
ATOM     17  C   UNL     1       2.130   7.668  18.601  0.00  0.00    +0.000 C 
BRANCH  17  18
ATOM     18  C   UNL     1       3.276   6.740  18.106  0.00  0.00    +0.000 C 
ATOM     19  O   UNL     1       4.221   7.229  17.486  0.00  0.00    +0.000 OA
ATOM     20  N   UNL     1       3.235   5.385  18.480  0.00  0.00    +0.000 N 
ATOM     21  C   UNL     1       4.404   4.475  18.308  0.00  0.00    +0.000 C 
ATOM     22  C   UNL     1       5.775   5.115  18.053  0.00  0.00    +0.000 C 
ATOM     23  C   UNL     1       4.542   3.577  19.559  0.00  0.00    +0.000 C 
ATOM     24  C   UNL     1       3.253   2.844  19.917  0.00  0.00    +0.000 C 
ATOM     25  C   UNL     1       2.090   3.817  20.016  0.00  0.00    +0.000 C 
ATOM     26  C   UNL     1       1.959   4.693  18.769  0.00  0.00    +0.000 C 
ATOM     27  C   UNL     1       1.453   3.910  17.549  0.00  0.00    +0.000 C 
ENDBRANCH  17  18
ENDBRANCH  15  17
ENDBRANCH   1  15
TORSDOF 5
ENDMDL
