MODEL 1
REMARK VINA RESULT:      -6.7      0.000      0.000
REMARK  Name = 
REMARK  3 active torsions:
REMARK  status: ('A' for Active; 'I' for Inactive)
REMARK    1  A    between atoms: C_7  and  O_8
REMARK    2  A    between atoms: C_9  and  C_10
REMARK    3  A    between atoms: C_10  and  C_11
REMARK                            x       y       z     vdW  Elec       q    Type
REMARK                         _______ _______ _______ _____ _____    ______ ____
ROOT
ATOM      1  N   UNL     1       3.067   7.095  18.007  0.00  0.00    +0.000 N 
ATOM      2  C   UNL     1       2.479   6.555  19.091  0.00  0.00    +0.000 C 
ATOM      3  O   UNL     1       2.198   7.252  20.060  0.00  0.00    +0.000 OA
ATOM      4  N   UNL     1       2.272   5.211  19.076  0.00  0.00    +0.000 N 
ATOM      5  C   UNL     1       1.557   4.568  20.169  0.00  0.00    +0.000 C 
ATOM      6  C   UNL     1       1.442   3.100  19.789  0.00  0.00    +0.000 C 
ATOM      7  C   UNL     1       1.786   3.061  18.304  0.00  0.00    +0.000 C 
ATOM      8  C   UNL     1       2.775   4.228  18.112  0.00  0.00    +0.000 C 
ATOM      9  H   UNL     1       3.176   8.100  17.966  0.00  0.00    +0.000 HD
ATOM     10  H   UNL     1       3.213   6.601  17.144  0.00  0.00    +0.000 HD
ENDROOT
BRANCH   7  11
ATOM     11  O   UNL     1       2.233   1.782  17.912  0.00  0.00    +0.000 OA
ATOM     12  H   UNL     1       2.491   1.268  18.696  0.00  0.00    +0.000 HD
ENDBRANCH   7  11
BRANCH   8  13
ATOM     13  C   UNL     1       4.265   3.932  18.406  0.00  0.00    +0.000 C 
BRANCH  13  14
ATOM     14  C   UNL     1       5.265   4.243  17.324  0.00  0.00    +0.000 A 
ATOM     15  C   UNL     1       4.873   4.203  15.981  0.00  0.00    +0.000 A 
ATOM     16  C   UNL     1       5.801   4.463  14.979  0.00  0.00    +0.000 A 
ATOM     17  C   UNL     1       7.102   4.752  15.349  0.00  0.00    +0.000 A 
ATOM     18  N   UNL     1       7.524   4.785  16.628  0.00  0.00    +0.000 NA
ATOM     19  C   UNL     1       6.602   4.530  17.582  0.00  0.00    +0.000 A 
ENDBRANCH  13  14
ENDBRANCH   8  13
TORSDOF 3
ENDMDL
MODEL 2
REMARK VINA RESULT:      -6.7      2.161      3.673
REMARK  Name = 
REMARK  3 active torsions:
REMARK  status: ('A' for Active; 'I' for Inactive)
REMARK    1  A    between atoms: C_7  and  O_8
REMARK    2  A    between atoms: C_9  and  C_10
REMARK    3  A    between atoms: C_10  and  C_11
REMARK                            x       y       z     vdW  Elec       q    Type
REMARK                         _______ _______ _______ _____ _____    ______ ____
ROOT
ATOM      1  N   UNL     1       5.132   2.364  19.682  0.00  0.00    +0.000 N 
ATOM      2  C   UNL     1       3.981   2.140  19.021  0.00  0.00    +0.000 C 
ATOM      3  O   UNL     1       3.619   0.996  18.770  0.00  0.00    +0.000 OA
ATOM      4  N   UNL     1       3.285   3.232  18.606  0.00  0.00    +0.000 N 
ATOM      5  C   UNL     1       1.985   3.074  17.970  0.00  0.00    +0.000 C 
ATOM      6  C   UNL     1       1.469   4.480  17.713  0.00  0.00    +0.000 C 
ATOM      7  C   UNL     1       2.362   5.376  18.565  0.00  0.00    +0.000 C 
ATOM      8  C   UNL     1       3.711   4.635  18.612  0.00  0.00    +0.000 C 
ATOM      9  H   UNL     1       5.637   1.571  20.056  0.00  0.00    +0.000 HD
ATOM     10  H   UNL     1       5.420   3.267  20.017  0.00  0.00    +0.000 HD
ENDROOT
BRANCH   7  11
ATOM     11  O   UNL     1       2.383   6.699  18.074  0.00  0.00    +0.000 OA
ATOM     12  H   UNL     1       1.667   6.823  17.428  0.00  0.00    +0.000 HD
ENDBRANCH   7  11
BRANCH   8  13
ATOM     13  C   UNL     1       4.684   4.883  17.434  0.00  0.00    +0.000 C 
BRANCH  13  14
ATOM     14  C   UNL     1       5.891   5.744  17.696  0.00  0.00    +0.000 A 
ATOM     15  C   UNL     1       6.795   5.387  18.704  0.00  0.00    +0.000 A 
ATOM     16  C   UNL     1       7.897   6.195  18.966  0.00  0.00    +0.000 A 
ATOM     17  C   UNL     1       8.061   7.344  18.214  0.00  0.00    +0.000 A 
ATOM     18  N   UNL     1       7.206   7.731  17.247  0.00  0.00    +0.000 NA
ATOM     19  C   UNL     1       6.145   6.928  17.012  0.00  0.00    +0.000 A 
ENDBRANCH  13  14
ENDBRANCH   8  13
TORSDOF 3
ENDMDL
MODEL 3
REMARK VINA RESULT:      -6.6      1.077      1.084
REMARK  Name = 
REMARK  3 active torsions:
REMARK  status: ('A' for Active; 'I' for Inactive)
REMARK    1  A    between atoms: C_7  and  O_8
REMARK    2  A    between atoms: C_9  and  C_10
REMARK    3  A    between atoms: C_10  and  C_11
REMARK                            x       y       z     vdW  Elec       q    Type
REMARK                         _______ _______ _______ _____ _____    ______ ____
ROOT
ATOM      1  N   UNL     1       2.451   6.564  18.343  0.00  0.00    +0.000 N 
ATOM      2  C   UNL     1       2.305   6.025  19.567  0.00  0.00    +0.000 C 
ATOM      3  O   UNL     1       1.867   6.695  20.496  0.00  0.00    +0.000 OA
ATOM      4  N   UNL     1       2.716   4.738  19.727  0.00  0.00    +0.000 N 
ATOM      5  C   UNL     1       2.503   4.054  20.995  0.00  0.00    +0.000 C 
ATOM      6  C   UNL     1       3.004   2.633  20.795  0.00  0.00    +0.000 C 
ATOM      7  C   UNL     1       3.142   2.486  19.284  0.00  0.00    +0.000 C 
ATOM      8  C   UNL     1       3.478   3.907  18.791  0.00  0.00    +0.000 C 
ATOM      9  H   UNL     1       2.097   7.498  18.180  0.00  0.00    +0.000 HD
ATOM     10  H   UNL     1       2.693   6.036  17.522  0.00  0.00    +0.000 HD
ENDROOT
BRANCH   7  11
ATOM     11  O   UNL     1       4.058   1.466  18.946  0.00  0.00    +0.000 OA
ATOM     12  H   UNL     1       4.837   1.854  18.514  0.00  0.00    +0.000 HD
ENDBRANCH   7  11
BRANCH   8  13
ATOM     13  C   UNL     1       4.968   4.322  18.829  0.00  0.00    +0.000 C 
BRANCH  13  14
ATOM     14  C   UNL     1       5.690   4.450  17.513  0.00  0.00    +0.000 A 
ATOM     15  C   UNL     1       4.969   4.393  16.315  0.00  0.00    +0.000 A 
ATOM     16  C   UNL     1       5.636   4.484  15.098  0.00  0.00    +0.000 A 
ATOM     17  C   UNL     1       7.011   4.624  15.114  0.00  0.00    +0.000 A 
ATOM     18  N   UNL     1       7.744   4.666  16.244  0.00  0.00    +0.000 NA
ATOM     19  C   UNL     1       7.071   4.577  17.412  0.00  0.00    +0.000 A 
ENDBRANCH  13  14
ENDBRANCH   8  13
TORSDOF 3
ENDMDL
MODEL 4
REMARK VINA RESULT:      -6.6      2.205      3.599
REMARK  Name = 
REMARK  3 active torsions:
REMARK  status: ('A' for Active; 'I' for Inactive)
REMARK    1  A    between atoms: C_7  and  O_8
REMARK    2  A    between atoms: C_9  and  C_10
REMARK    3  A    between atoms: C_10  and  C_11
REMARK                            x       y       z     vdW  Elec       q    Type
REMARK                         _______ _______ _______ _____ _____    ______ ____
ROOT
ATOM      1  N   UNL     1       5.099   2.328  19.722  0.00  0.00    +0.000 N 
ATOM      2  C   UNL     1       3.981   2.110  19.006  0.00  0.00    +0.000 C 
ATOM      3  O   UNL     1       3.646   0.970  18.703  0.00  0.00    +0.000 OA
ATOM      4  N   UNL     1       3.287   3.206  18.597  0.00  0.00    +0.000 N 
ATOM      5  C   UNL     1       2.017   3.052  17.902  0.00  0.00    +0.000 C 
ATOM      6  C   UNL     1       1.492   4.459  17.669  0.00  0.00    +0.000 C 
ATOM      7  C   UNL     1       2.335   5.338  18.586  0.00  0.00    +0.000 C 
ATOM      8  C   UNL     1       3.692   4.613  18.667  0.00  0.00    +0.000 C 
ATOM      9  H   UNL     1       5.600   1.530  20.092  0.00  0.00    +0.000 HD
ATOM     10  H   UNL     1       5.360   3.223  20.098  0.00  0.00    +0.000 HD
ENDROOT
BRANCH   7  11
ATOM     11  O   UNL     1       2.358   6.677  18.139  0.00  0.00    +0.000 OA
ATOM     12  H   UNL     1       3.088   7.154  18.568  0.00  0.00    +0.000 HD
ENDBRANCH   7  11
BRANCH   8  13
ATOM     13  C   UNL     1       4.710   4.913  17.540  0.00  0.00    +0.000 C 
BRANCH  13  14
ATOM     14  C   UNL     1       5.927   5.725  17.897  0.00  0.00    +0.000 A 
ATOM     15  C   UNL     1       6.244   6.867  17.154  0.00  0.00    +0.000 A 
ATOM     16  C   UNL     1       7.383   7.603  17.465  0.00  0.00    +0.000 A 
ATOM     17  C   UNL     1       8.178   7.170  18.509  0.00  0.00    +0.000 A 
ATOM     18  N   UNL     1       7.918   6.067  19.238  0.00  0.00    +0.000 NA
ATOM     19  C   UNL     1       6.805   5.371  18.917  0.00  0.00    +0.000 A 
ENDBRANCH  13  14
ENDBRANCH   8  13
TORSDOF 3
ENDMDL
MODEL 5
REMARK VINA RESULT:      -6.6      2.134      3.563
REMARK  Name = 
REMARK  3 active torsions:
REMARK  status: ('A' for Active; 'I' for Inactive)
REMARK    1  A    between atoms: C_7  and  O_8
REMARK    2  A    between atoms: C_9  and  C_10
REMARK    3  A    between atoms: C_10  and  C_11
REMARK                            x       y       z     vdW  Elec       q    Type
REMARK                         _______ _______ _______ _____ _____    ______ ____
ROOT
ATOM      1  N   UNL     1       5.006   2.435  19.362  0.00  0.00    +0.000 N 
ATOM      2  C   UNL     1       3.674   2.245  19.318  0.00  0.00    +0.000 C 
ATOM      3  O   UNL     1       3.208   1.182  18.925  0.00  0.00    +0.000 OA
ATOM      4  N   UNL     1       2.889   3.298  19.673  0.00  0.00    +0.000 N 
ATOM      5  C   UNL     1       1.443   3.141  19.744  0.00  0.00    +0.000 C 
ATOM      6  C   UNL     1       0.901   4.472  20.239  0.00  0.00    +0.000 C 
ATOM      7  C   UNL     1       2.124   5.206  20.779  0.00  0.00    +0.000 C 
ATOM      8  C   UNL     1       3.291   4.686  19.919  0.00  0.00    +0.000 C 
ATOM      9  H   UNL     1       5.613   1.650  19.163  0.00  0.00    +0.000 HD
ATOM     10  H   UNL     1       5.445   3.236  19.782  0.00  0.00    +0.000 HD
ENDROOT
BRANCH   7  11
ATOM     11  O   UNL     1       1.922   6.603  20.795  0.00  0.00    +0.000 OA
ATOM     12  H   UNL     1       2.415   6.998  21.534  0.00  0.00    +0.000 HD
ENDBRANCH   7  11
BRANCH   8  13
ATOM     13  C   UNL     1       3.531   5.400  18.567  0.00  0.00    +0.000 C 
BRANCH  13  14
ATOM     14  C   UNL     1       4.932   5.860  18.260  0.00  0.00    +0.000 A 
ATOM     15  C   UNL     1       5.990   5.472  19.090  0.00  0.00    +0.000 A 
ATOM     16  C   UNL     1       7.280   5.918  18.825  0.00  0.00    +0.000 A 
ATOM     17  C   UNL     1       7.476   6.747  17.736  0.00  0.00    +0.000 A 
ATOM     18  N   UNL     1       6.483   7.158  16.923  0.00  0.00    +0.000 NA
ATOM     19  C   UNL     1       5.240   6.709  17.202  0.00  0.00    +0.000 A 
ENDBRANCH  13  14
ENDBRANCH   8  13
TORSDOF 3
ENDMDL
MODEL 6
REMARK VINA RESULT:      -6.5      2.475      5.223
REMARK  Name = 
REMARK  3 active torsions:
REMARK  status: ('A' for Active; 'I' for Inactive)
REMARK    1  A    between atoms: C_7  and  O_8
REMARK    2  A    between atoms: C_9  and  C_10
REMARK    3  A    between atoms: C_10  and  C_11
REMARK                            x       y       z     vdW  Elec       q    Type
REMARK                         _______ _______ _______ _____ _____    ______ ____
ROOT
ATOM      1  N   UNL     1       7.741   5.418  20.002  0.00  0.00    +0.000 N 
ATOM      2  C   UNL     1       7.566   6.103  18.857  0.00  0.00    +0.000 C 
ATOM      3  O   UNL     1       8.269   7.073  18.596  0.00  0.00    +0.000 OA
ATOM      4  N   UNL     1       6.548   5.702  18.048  0.00  0.00    +0.000 N 
ATOM      5  C   UNL     1       6.355   6.330  16.749  0.00  0.00    +0.000 C 
ATOM      6  C   UNL     1       5.198   5.594  16.094  0.00  0.00    +0.000 C 
ATOM      7  C   UNL     1       5.032   4.327  16.926  0.00  0.00    +0.000 C 
ATOM      8  C   UNL     1       5.485   4.737  18.340  0.00  0.00    +0.000 C 
ATOM      9  H   UNL     1       8.529   5.655  20.592  0.00  0.00    +0.000 HD
ATOM     10  H   UNL     1       7.278   4.551  20.214  0.00  0.00    +0.000 HD
ENDROOT
BRANCH   7  11
ATOM     11  O   UNL     1       3.729   3.798  16.807  0.00  0.00    +0.000 OA
ATOM     12  H   UNL     1       3.692   2.917  17.216  0.00  0.00    +0.000 HD
ENDBRANCH   7  11
BRANCH   8  13
ATOM     13  C   UNL     1       4.420   5.401  19.246  0.00  0.00    +0.000 C 
BRANCH  13  14
ATOM     14  C   UNL     1       3.328   4.523  19.797  0.00  0.00    +0.000 A 
ATOM     15  C   UNL     1       2.033   5.034  19.947  0.00  0.00    +0.000 A 
ATOM     16  C   UNL     1       1.029   4.234  20.480  0.00  0.00    +0.000 A 
ATOM     17  C   UNL     1       1.350   2.942  20.856  0.00  0.00    +0.000 A 
ATOM     18  N   UNL     1       2.586   2.418  20.745  0.00  0.00    +0.000 NA
ATOM     19  C   UNL     1       3.543   3.216  20.222  0.00  0.00    +0.000 A 
ENDBRANCH  13  14
ENDBRANCH   8  13
TORSDOF 3
ENDMDL
MODEL 7
REMARK VINA RESULT:      -6.5      2.224      3.471
REMARK  Name = 
REMARK  3 active torsions:
REMARK  status: ('A' for Active; 'I' for Inactive)
REMARK    1  A    between atoms: C_7  and  O_8
REMARK    2  A    between atoms: C_9  and  C_10
REMARK    3  A    between atoms: C_10  and  C_11
REMARK                            x       y       z     vdW  Elec       q    Type
REMARK                         _______ _______ _______ _____ _____    ______ ____
ROOT
ATOM      1  N   UNL     1       5.003   2.309  19.355  0.00  0.00    +0.000 N 
ATOM      2  C   UNL     1       3.674   2.135  19.229  0.00  0.00    +0.000 C 
ATOM      3  O   UNL     1       3.224   1.105  18.741  0.00  0.00    +0.000 OA
ATOM      4  N   UNL     1       2.878   3.169  19.613  0.00  0.00    +0.000 N 
ATOM      5  C   UNL     1       1.430   3.023  19.597  0.00  0.00    +0.000 C 
ATOM      6  C   UNL     1       0.870   4.322  20.152  0.00  0.00    +0.000 C 
ATOM      7  C   UNL     1       2.067   5.006  20.804  0.00  0.00    +0.000 C 
ATOM      8  C   UNL     1       3.275   4.534  19.972  0.00  0.00    +0.000 C 
ATOM      9  H   UNL     1       5.615   1.534  19.136  0.00  0.00    +0.000 HD
ATOM     10  H   UNL     1       5.425   3.076  19.851  0.00  0.00    +0.000 HD
ENDROOT
BRANCH   7  11
ATOM     11  O   UNL     1       1.873   6.401  20.903  0.00  0.00    +0.000 OA
ATOM     12  H   UNL     1       1.335   6.603  21.687  0.00  0.00    +0.000 HD
ENDBRANCH   7  11
BRANCH   8  13
ATOM     13  C   UNL     1       3.590   5.335  18.686  0.00  0.00    +0.000 C 
BRANCH  13  14
ATOM     14  C   UNL     1       5.009   5.798  18.483  0.00  0.00    +0.000 A 
ATOM     15  C   UNL     1       5.325   6.614  17.391  0.00  0.00    +0.000 A 
ATOM     16  C   UNL     1       6.640   7.021  17.186  0.00  0.00    +0.000 A 
ATOM     17  C   UNL     1       7.605   6.594  18.079  0.00  0.00    +0.000 A 
ATOM     18  N   UNL     1       7.345   5.795  19.133  0.00  0.00    +0.000 NA
ATOM     19  C   UNL     1       6.060   5.416  19.310  0.00  0.00    +0.000 A 
ENDBRANCH  13  14
ENDBRANCH   8  13
TORSDOF 3
ENDMDL
MODEL 8
REMARK VINA RESULT:      -6.5      1.777      3.250
REMARK  Name = 
REMARK  3 active torsions:
REMARK  status: ('A' for Active; 'I' for Inactive)
REMARK    1  A    between atoms: C_7  and  O_8
REMARK    2  A    between atoms: C_9  and  C_10
REMARK    3  A    between atoms: C_10  and  C_11
REMARK                            x       y       z     vdW  Elec       q    Type
REMARK                         _______ _______ _______ _____ _____    ______ ____
ROOT
ATOM      1  N   UNL     1       4.980   2.189  19.516  0.00  0.00    +0.000 N 
ATOM      2  C   UNL     1       3.660   2.076  19.276  0.00  0.00    +0.000 C 
ATOM      3  O   UNL     1       3.214   1.092  18.697  0.00  0.00    +0.000 OA
ATOM      4  N   UNL     1       2.873   3.119  19.653  0.00  0.00    +0.000 N 
ATOM      5  C   UNL     1       1.426   3.032  19.515  0.00  0.00    +0.000 C 
ATOM      6  C   UNL     1       0.870   4.321  20.097  0.00  0.00    +0.000 C 
ATOM      7  C   UNL     1       2.035   4.921  20.878  0.00  0.00    +0.000 C 
ATOM      8  C   UNL     1       3.288   4.445  20.119  0.00  0.00    +0.000 C 
ATOM      9  H   UNL     1       5.579   1.402  19.303  0.00  0.00    +0.000 HD
ATOM     10  H   UNL     1       5.387   2.910  20.086  0.00  0.00    +0.000 HD
ENDROOT
BRANCH   7  11
ATOM     11  O   UNL     1       1.884   6.315  21.040  0.00  0.00    +0.000 OA
ATOM     12  H   UNL     1       2.529   6.643  21.690  0.00  0.00    +0.000 HD
ENDBRANCH   7  11
BRANCH   8  13
ATOM     13  C   UNL     1       3.735   5.300  18.909  0.00  0.00    +0.000 C 
BRANCH  13  14
ATOM     14  C   UNL     1       5.136   5.101  18.394  0.00  0.00    +0.000 A 
ATOM     15  C   UNL     1       5.339   4.667  17.079  0.00  0.00    +0.000 A 
ATOM     16  C   UNL     1       6.632   4.457  16.609  0.00  0.00    +0.000 A 
ATOM     17  C   UNL     1       7.688   4.682  17.473  0.00  0.00    +0.000 A 
ATOM     18  N   UNL     1       7.535   5.083  18.750  0.00  0.00    +0.000 NA
ATOM     19  C   UNL     1       6.269   5.282  19.181  0.00  0.00    +0.000 A 
ENDBRANCH  13  14
ENDBRANCH   8  13
TORSDOF 3
ENDMDL
MODEL 9
REMARK VINA RESULT:      -6.4      2.206      2.746
REMARK  Name = 
REMARK  3 active torsions:
REMARK  status: ('A' for Active; 'I' for Inactive)
REMARK    1  A    between atoms: C_7  and  O_8
REMARK    2  A    between atoms: C_9  and  C_10
REMARK    3  A    between atoms: C_10  and  C_11
REMARK                            x       y       z     vdW  Elec       q    Type
REMARK                         _______ _______ _______ _____ _____    ______ ____
ROOT
ATOM      1  N   UNL     1       5.561   3.752  19.520  0.00  0.00    +0.000 N 
ATOM      2  C   UNL     1       4.637   2.799  19.742  0.00  0.00    +0.000 C 
ATOM      3  O   UNL     1       4.907   1.816  20.424  0.00  0.00    +0.000 OA
ATOM      4  N   UNL     1       3.431   2.955  19.133  0.00  0.00    +0.000 N 
ATOM      5  C   UNL     1       2.349   2.018  19.401  0.00  0.00    +0.000 C 
ATOM      6  C   UNL     1       1.147   2.532  18.627  0.00  0.00    +0.000 C 
ATOM      7  C   UNL     1       1.520   3.961  18.247  0.00  0.00    +0.000 C 
ATOM      8  C   UNL     1       3.054   3.930  18.106  0.00  0.00    +0.000 C 
ATOM      9  H   UNL     1       6.444   3.693  20.009  0.00  0.00    +0.000 HD
ATOM     10  H   UNL     1       5.365   4.630  19.070  0.00  0.00    +0.000 HD
ENDROOT
BRANCH   7  11
ATOM     11  O   UNL     1       0.790   4.404  17.124  0.00  0.00    +0.000 OA
ATOM     12  H   UNL     1       0.150   3.722  16.857  0.00  0.00    +0.000 HD
ENDBRANCH   7  11
BRANCH   8  13
ATOM     13  C   UNL     1       3.617   3.480  16.736  0.00  0.00    +0.000 C 
BRANCH  13  14
ATOM     14  C   UNL     1       4.782   4.251  16.174  0.00  0.00    +0.000 A 
ATOM     15  C   UNL     1       5.731   3.598  15.380  0.00  0.00    +0.000 A 
ATOM     16  C   UNL     1       6.822   4.302  14.881  0.00  0.00    +0.000 A 
ATOM     17  C   UNL     1       6.936   5.643  15.197  0.00  0.00    +0.000 A 
ATOM     18  N   UNL     1       6.054   6.305  15.972  0.00  0.00    +0.000 NA
ATOM     19  C   UNL     1       5.003   5.598  16.441  0.00  0.00    +0.000 A 
ENDBRANCH  13  14
ENDBRANCH   8  13
TORSDOF 3
ENDMDL
