MODEL 1
REMARK VINA RESULT:      -7.6      0.000      0.000
REMARK  Name = 
REMARK  7 active torsions:
REMARK  status: ('A' for Active; 'I' for Inactive)
REMARK    1  A    between atoms: C_1  and  C_2
REMARK    2  A    between atoms: C_2  and  C_3
REMARK    3  A    between atoms: C_2  and  O_4
REMARK    4  A    between atoms: O_4  and  C_5
REMARK    5  A    between atoms: C_6  and  C_7
REMARK    6  A    between atoms: C_7  and  O_9
REMARK    7  A    between atoms: N_18  and  C_19
REMARK                            x       y       z     vdW  Elec       q    Type
REMARK                         _______ _______ _______ _____ _____    ______ ____
ROOT
ATOM      1  C   UNL     1       1.751   8.333  18.936  0.00  0.00    +0.000 A 
ATOM      2  C   UNL     1       2.215   9.384  18.162  0.00  0.00    +0.000 A 
ATOM      3  O   UNL     1       3.227   8.992  17.335  0.00  0.00    +0.000 OA
ATOM      4  C   UNL     1       3.354   7.669  17.554  0.00  0.00    +0.000 A 
ATOM      5  C   UNL     1       4.149   6.689  16.970  0.00  0.00    +0.000 A 
ATOM      6  C   UNL     1       5.114   6.697  15.949  0.00  0.00    +0.000 A 
ATOM      7  C   UNL     1       5.711   5.496  15.582  0.00  0.00    +0.000 A 
ATOM      8  C   UNL     1       5.333   4.313  16.202  0.00  0.00    +0.000 A 
ATOM      9  C   UNL     1       4.348   4.299  17.200  0.00  0.00    +0.000 A 
ATOM     10  C   UNL     1       3.768   5.520  17.621  0.00  0.00    +0.000 A 
ATOM     11  N   UNL     1       2.763   5.810  18.587  0.00  0.00    +0.000 N 
ATOM     12  C   UNL     1       2.496   7.190  18.494  0.00  0.00    +0.000 A 
ENDROOT
BRANCH  11  13
ATOM     13  C   UNL     1       2.179   4.825  19.440  0.00  0.00    +0.000 A 
ATOM     14  C   UNL     1       2.553   4.777  20.795  0.00  0.00    +0.000 A 
ATOM     15  C   UNL     1       2.101   3.757  21.633  0.00  0.00    +0.000 A 
ATOM     16  C   UNL     1       1.217   2.806  21.141  0.00  0.00    +0.000 A 
ATOM     17  C   UNL     1       0.796   2.872  19.812  0.00  0.00    +0.000 A 
ATOM     18  C   UNL     1       1.292   3.865  18.953  0.00  0.00    +0.000 A 
ENDBRANCH  11  13
BRANCH   2  19
ATOM     19  C   UNL     1       1.851  10.782  18.062  0.00  0.00    +0.000 C 
ATOM     20  O   UNL     1       2.605  11.736  17.957  0.00  0.00    +0.000 OA
BRANCH  19  21
ATOM     21  O   UNL     1       0.493  10.925  18.089  0.00  0.00    +0.000 OA
ATOM     22  H   UNL     1       0.175  11.243  17.215  0.00  0.00    +0.000 HD
ENDBRANCH  19  21
ENDBRANCH   2  19
BRANCH   1  23
ATOM     23  O   UNL     1       0.679   8.478  19.747  0.00  0.00    +0.000 OA
BRANCH  23  25
ATOM     24  C   UNL     1       1.170  10.106  21.521  0.00  0.00    +0.000 C 
ATOM     25  C   UNL     1       0.908   8.651  21.144  0.00  0.00    +0.000 C 
ATOM     26  C   UNL     1      -0.374   8.171  21.830  0.00  0.00    +0.000 C 
ENDBRANCH  23  25
ENDBRANCH   1  23
TORSDOF 5
ENDMDL
MODEL 2
REMARK VINA RESULT:      -7.5      2.825      5.898
REMARK  Name = 
REMARK  7 active torsions:
REMARK  status: ('A' for Active; 'I' for Inactive)
REMARK    1  A    between atoms: C_1  and  C_2
REMARK    2  A    between atoms: C_2  and  C_3
REMARK    3  A    between atoms: C_2  and  O_4
REMARK    4  A    between atoms: O_4  and  C_5
REMARK    5  A    between atoms: C_6  and  C_7
REMARK    6  A    between atoms: C_7  and  O_9
REMARK    7  A    between atoms: N_18  and  C_19
REMARK                            x       y       z     vdW  Elec       q    Type
REMARK                         _______ _______ _______ _____ _____    ______ ____
ROOT
ATOM      1  C   UNL     1       5.486   5.979  17.302  0.00  0.00    +0.000 A 
ATOM      2  C   UNL     1       6.125   4.867  16.778  0.00  0.00    +0.000 A 
ATOM      3  O   UNL     1       5.417   3.724  17.010  0.00  0.00    +0.000 OA
ATOM      4  C   UNL     1       4.296   4.137  17.633  0.00  0.00    +0.000 A 
ATOM      5  C   UNL     1       3.154   3.468  18.058  0.00  0.00    +0.000 A 
ATOM      6  C   UNL     1       2.733   2.128  18.010  0.00  0.00    +0.000 A 
ATOM      7  C   UNL     1       1.479   1.801  18.514  0.00  0.00    +0.000 A 
ATOM      8  C   UNL     1       0.656   2.793  19.029  0.00  0.00    +0.000 A 
ATOM      9  C   UNL     1       1.062   4.135  19.050  0.00  0.00    +0.000 A 
ATOM     10  C   UNL     1       2.356   4.477  18.588  0.00  0.00    +0.000 A 
ATOM     11  N   UNL     1       3.026   5.728  18.484  0.00  0.00    +0.000 N 
ATOM     12  C   UNL     1       4.252   5.480  17.836  0.00  0.00    +0.000 A 
ENDROOT
BRANCH  11  13
ATOM     13  C   UNL     1       2.482   6.959  18.962  0.00  0.00    +0.000 A 
ATOM     14  C   UNL     1       2.103   7.069  20.311  0.00  0.00    +0.000 A 
ATOM     15  C   UNL     1       1.455   8.208  20.789  0.00  0.00    +0.000 A 
ATOM     16  C   UNL     1       1.235   9.282  19.936  0.00  0.00    +0.000 A 
ATOM     17  C   UNL     1       1.654   9.207  18.606  0.00  0.00    +0.000 A 
ATOM     18  C   UNL     1       2.256   8.041  18.110  0.00  0.00    +0.000 A 
ENDBRANCH  11  13
BRANCH   2  19
ATOM     19  C   UNL     1       7.366   4.681  16.054  0.00  0.00    +0.000 C 
ATOM     20  O   UNL     1       7.621   5.047  14.919  0.00  0.00    +0.000 OA
BRANCH  19  21
ATOM     21  O   UNL     1       8.275   4.020  16.830  0.00  0.00    +0.000 OA
ATOM     22  H   UNL     1       8.317   3.076  16.560  0.00  0.00    +0.000 HD
ENDBRANCH  19  21
ENDBRANCH   2  19
BRANCH   1  23
ATOM     23  O   UNL     1       5.962   7.227  17.090  0.00  0.00    +0.000 OA
BRANCH  23  25
ATOM     24  C   UNL     1       7.610   8.975  17.605  0.00  0.00    +0.000 C 
ATOM     25  C   UNL     1       7.329   7.490  17.403  0.00  0.00    +0.000 C 
ATOM     26  C   UNL     1       7.600   6.738  18.709  0.00  0.00    +0.000 C 
ENDBRANCH  23  25
ENDBRANCH   1  23
TORSDOF 5
ENDMDL
MODEL 3
REMARK VINA RESULT:      -7.2      2.970      6.184
REMARK  Name = 
REMARK  7 active torsions:
REMARK  status: ('A' for Active; 'I' for Inactive)
REMARK    1  A    between atoms: C_1  and  C_2
REMARK    2  A    between atoms: C_2  and  C_3
REMARK    3  A    between atoms: C_2  and  O_4
REMARK    4  A    between atoms: O_4  and  C_5
REMARK    5  A    between atoms: C_6  and  C_7
REMARK    6  A    between atoms: C_7  and  O_9
REMARK    7  A    between atoms: N_18  and  C_19
REMARK                            x       y       z     vdW  Elec       q    Type
REMARK                         _______ _______ _______ _____ _____    ______ ____
ROOT
ATOM      1  C   UNL     1       5.735   5.968  17.918  0.00  0.00    +0.000 A 
ATOM      2  C   UNL     1       6.439   4.775  17.874  0.00  0.00    +0.000 A 
ATOM      3  O   UNL     1       5.769   3.771  18.511  0.00  0.00    +0.000 OA
ATOM      4  C   UNL     1       4.608   4.331  18.904  0.00  0.00    +0.000 A 
ATOM      5  C   UNL     1       3.478   3.815  19.528  0.00  0.00    +0.000 A 
ATOM      6  C   UNL     1       3.114   2.539  19.987  0.00  0.00    +0.000 A 
ATOM      7  C   UNL     1       1.855   2.362  20.551  0.00  0.00    +0.000 A 
ATOM      8  C   UNL     1       0.972   3.432  20.629  0.00  0.00    +0.000 A 
ATOM      9  C   UNL     1       1.322   4.699  20.143  0.00  0.00    +0.000 A 
ATOM     10  C   UNL     1       2.619   4.907  19.614  0.00  0.00    +0.000 A 
ATOM     11  N   UNL     1       3.242   6.058  19.053  0.00  0.00    +0.000 N 
ATOM     12  C   UNL     1       4.502   5.646  18.576  0.00  0.00    +0.000 A 
ENDROOT
BRANCH  11  13
ATOM     13  C   UNL     1       2.629   7.347  19.012  0.00  0.00    +0.000 A 
ATOM     14  C   UNL     1       1.928   7.815  20.137  0.00  0.00    +0.000 A 
ATOM     15  C   UNL     1       1.213   9.012  20.095  0.00  0.00    +0.000 A 
ATOM     16  C   UNL     1       1.243   9.790  18.946  0.00  0.00    +0.000 A 
ATOM     17  C   UNL     1       1.979   9.364  17.839  0.00  0.00    +0.000 A 
ATOM     18  C   UNL     1       2.654   8.134  17.859  0.00  0.00    +0.000 A 
ENDBRANCH  11  13
BRANCH   2  19
ATOM     19  C   UNL     1       7.714   4.393  17.304  0.00  0.00    +0.000 C 
ATOM     20  O   UNL     1       8.681   3.940  17.895  0.00  0.00    +0.000 OA
BRANCH  19  21
ATOM     21  O   UNL     1       7.714   4.597  15.954  0.00  0.00    +0.000 OA
ATOM     22  H   UNL     1       7.634   5.558  15.764  0.00  0.00    +0.000 HD
ENDBRANCH  19  21
ENDBRANCH   2  19
BRANCH   1  23
ATOM     23  O   UNL     1       6.168   7.063  17.256  0.00  0.00    +0.000 OA
BRANCH  23  25
ATOM     24  C   UNL     1       7.594   9.046  17.528  0.00  0.00    +0.000 C 
ATOM     25  C   UNL     1       7.495   7.524  17.507  0.00  0.00    +0.000 C 
ATOM     26  C   UNL     1       7.864   6.971  18.886  0.00  0.00    +0.000 C 
ENDBRANCH  23  25
ENDBRANCH   1  23
TORSDOF 5
ENDMDL
MODEL 4
REMARK VINA RESULT:      -7.1      2.831      6.531
REMARK  Name = 
REMARK  7 active torsions:
REMARK  status: ('A' for Active; 'I' for Inactive)
REMARK    1  A    between atoms: C_1  and  C_2
REMARK    2  A    between atoms: C_2  and  C_3
REMARK    3  A    between atoms: C_2  and  O_4
REMARK    4  A    between atoms: O_4  and  C_5
REMARK    5  A    between atoms: C_6  and  C_7
REMARK    6  A    between atoms: C_7  and  O_9
REMARK    7  A    between atoms: N_18  and  C_19
REMARK                            x       y       z     vdW  Elec       q    Type
REMARK                         _______ _______ _______ _____ _____    ______ ____
ROOT
ATOM      1  C   UNL     1       3.442   3.705  19.844  0.00  0.00    +0.000 A 
ATOM      2  C   UNL     1       2.533   3.775  20.887  0.00  0.00    +0.000 A 
ATOM      3  O   UNL     1       1.974   5.016  20.985  0.00  0.00    +0.000 OA
ATOM      4  C   UNL     1       2.496   5.708  19.954  0.00  0.00    +0.000 A 
ATOM      5  C   UNL     1       2.268   6.992  19.469  0.00  0.00    +0.000 A 
ATOM      6  C   UNL     1       1.426   8.046  19.859  0.00  0.00    +0.000 A 
ATOM      7  C   UNL     1       1.426   9.217  19.108  0.00  0.00    +0.000 A 
ATOM      8  C   UNL     1       2.230   9.319  17.980  0.00  0.00    +0.000 A 
ATOM      9  C   UNL     1       3.047   8.256  17.571  0.00  0.00    +0.000 A 
ATOM     10  C   UNL     1       3.097   7.077  18.354  0.00  0.00    +0.000 A 
ATOM     11  N   UNL     1       3.813   5.858  18.190  0.00  0.00    +0.000 N 
ATOM     12  C   UNL     1       3.379   4.990  19.211  0.00  0.00    +0.000 A 
ENDROOT
BRANCH  11  13
ATOM     13  C   UNL     1       4.766   5.635  17.149  0.00  0.00    +0.000 A 
ATOM     14  C   UNL     1       4.506   4.659  16.172  0.00  0.00    +0.000 A 
ATOM     15  C   UNL     1       5.462   4.325  15.213  0.00  0.00    +0.000 A 
ATOM     16  C   UNL     1       6.669   5.010  15.179  0.00  0.00    +0.000 A 
ATOM     17  C   UNL     1       6.920   6.019  16.111  0.00  0.00    +0.000 A 
ATOM     18  C   UNL     1       5.983   6.319  17.111  0.00  0.00    +0.000 A 
ENDBRANCH  11  13
BRANCH   2  19
ATOM     19  C   UNL     1       2.073   2.819  21.873  0.00  0.00    +0.000 C 
ATOM     20  O   UNL     1       0.953   2.730  22.350  0.00  0.00    +0.000 OA
BRANCH  19  21
ATOM     21  O   UNL     1       3.086   1.972  22.225  0.00  0.00    +0.000 OA
ATOM     22  H   UNL     1       2.763   1.044  22.205  0.00  0.00    +0.000 HD
ENDBRANCH  19  21
ENDBRANCH   2  19
BRANCH   1  23
ATOM     23  O   UNL     1       4.031   2.537  19.505  0.00  0.00    +0.000 OA
BRANCH  23  25
ATOM     24  C   UNL     1       2.147   2.307  17.944  0.00  0.00    +0.000 C 
ATOM     25  C   UNL     1       3.312   1.636  18.666  0.00  0.00    +0.000 C 
ATOM     26  C   UNL     1       4.328   1.137  17.636  0.00  0.00    +0.000 C 
ENDBRANCH  23  25
ENDBRANCH   1  23
TORSDOF 5
ENDMDL
MODEL 5
REMARK VINA RESULT:      -7.0      3.398      5.968
REMARK  Name = 
REMARK  7 active torsions:
REMARK  status: ('A' for Active; 'I' for Inactive)
REMARK    1  A    between atoms: C_1  and  C_2
REMARK    2  A    between atoms: C_2  and  C_3
REMARK    3  A    between atoms: C_2  and  O_4
REMARK    4  A    between atoms: O_4  and  C_5
REMARK    5  A    between atoms: C_6  and  C_7
REMARK    6  A    between atoms: C_7  and  O_9
REMARK    7  A    between atoms: N_18  and  C_19
REMARK                            x       y       z     vdW  Elec       q    Type
REMARK                         _______ _______ _______ _____ _____    ______ ____
ROOT
ATOM      1  C   UNL     1       4.001   4.358  18.163  0.00  0.00    +0.000 A 
ATOM      2  C   UNL     1       3.163   3.417  17.585  0.00  0.00    +0.000 A 
ATOM      3  O   UNL     1       3.482   3.196  16.276  0.00  0.00    +0.000 OA
ATOM      4  C   UNL     1       4.568   3.962  16.055  0.00  0.00    +0.000 A 
ATOM      5  C   UNL     1       5.403   4.118  14.953  0.00  0.00    +0.000 A 
ATOM      6  C   UNL     1       5.436   3.553  13.668  0.00  0.00    +0.000 A 
ATOM      7  C   UNL     1       6.460   3.919  12.801  0.00  0.00    +0.000 A 
ATOM      8  C   UNL     1       7.440   4.810  13.220  0.00  0.00    +0.000 A 
ATOM      9  C   UNL     1       7.426   5.350  14.513  0.00  0.00    +0.000 A 
ATOM     10  C   UNL     1       6.361   5.027  15.389  0.00  0.00    +0.000 A 
ATOM     11  N   UNL     1       6.089   5.411  16.733  0.00  0.00    +0.000 N 
ATOM     12  C   UNL     1       4.953   4.684  17.141  0.00  0.00    +0.000 A 
ENDROOT
BRANCH  11  13
ATOM     13  C   UNL     1       6.877   6.353  17.462  0.00  0.00    +0.000 A 
ATOM     14  C   UNL     1       6.927   7.690  17.030  0.00  0.00    +0.000 A 
ATOM     15  C   UNL     1       7.779   8.613  17.638  0.00  0.00    +0.000 A 
ATOM     16  C   UNL     1       8.545   8.225  18.730  0.00  0.00    +0.000 A 
ATOM     17  C   UNL     1       8.465   6.914  19.202  0.00  0.00    +0.000 A 
ATOM     18  C   UNL     1       7.651   5.970  18.558  0.00  0.00    +0.000 A 
ENDBRANCH  11  13
BRANCH   2  19
ATOM     19  C   UNL     1       2.042   2.646  18.079  0.00  0.00    +0.000 C 
ATOM     20  O   UNL     1       0.873   2.992  18.131  0.00  0.00    +0.000 OA
BRANCH  19  21
ATOM     21  O   UNL     1       2.458   1.413  18.496  0.00  0.00    +0.000 OA
ATOM     22  H   UNL     1       1.948   0.716  18.028  0.00  0.00    +0.000 HD
ENDBRANCH  19  21
ENDBRANCH   2  19
BRANCH   1  23
ATOM     23  O   UNL     1       3.927   4.646  19.481  0.00  0.00    +0.000 OA
BRANCH  23  25
ATOM     24  C   UNL     1       2.691   6.619  18.695  0.00  0.00    +0.000 C 
ATOM     25  C   UNL     1       3.180   5.793  19.881  0.00  0.00    +0.000 C 
ATOM     26  C   UNL     1       1.976   5.247  20.652  0.00  0.00    +0.000 C 
ENDBRANCH  23  25
ENDBRANCH   1  23
TORSDOF 5
ENDMDL
MODEL 6
REMARK VINA RESULT:      -6.7      2.246      5.180
REMARK  Name = 
REMARK  7 active torsions:
REMARK  status: ('A' for Active; 'I' for Inactive)
REMARK    1  A    between atoms: C_1  and  C_2
REMARK    2  A    between atoms: C_2  and  C_3
REMARK    3  A    between atoms: C_2  and  O_4
REMARK    4  A    between atoms: O_4  and  C_5
REMARK    5  A    between atoms: C_6  and  C_7
REMARK    6  A    between atoms: C_7  and  O_9
REMARK    7  A    between atoms: N_18  and  C_19
REMARK                            x       y       z     vdW  Elec       q    Type
REMARK                         _______ _______ _______ _____ _____    ______ ____
ROOT
ATOM      1  C   UNL     1       4.583   4.838  17.341  0.00  0.00    +0.000 A 
ATOM      2  C   UNL     1       5.195   5.693  16.438  0.00  0.00    +0.000 A 
ATOM      3  O   UNL     1       4.643   6.941  16.475  0.00  0.00    +0.000 OA
ATOM      4  C   UNL     1       3.720   6.878  17.454  0.00  0.00    +0.000 A 
ATOM      5  C   UNL     1       2.883   7.832  18.023  0.00  0.00    +0.000 A 
ATOM      6  C   UNL     1       2.675   9.203  17.801  0.00  0.00    +0.000 A 
ATOM      7  C   UNL     1       1.756   9.879  18.596  0.00  0.00    +0.000 A 
ATOM      8  C   UNL     1       1.082   9.205  19.605  0.00  0.00    +0.000 A 
ATOM      9  C   UNL     1       1.311   7.843  19.848  0.00  0.00    +0.000 A 
ATOM     10  C   UNL     1       2.205   7.130  19.014  0.00  0.00    +0.000 A 
ATOM     11  N   UNL     1       2.632   5.771  19.023  0.00  0.00    +0.000 N 
ATOM     12  C   UNL     1       3.628   5.652  18.034  0.00  0.00    +0.000 A 
ENDROOT
BRANCH  11  13
ATOM     13  C   UNL     1       2.106   4.783  19.910  0.00  0.00    +0.000 A 
ATOM     14  C   UNL     1       2.761   4.529  21.127  0.00  0.00    +0.000 A 
ATOM     15  C   UNL     1       2.353   3.490  21.964  0.00  0.00    +0.000 A 
ATOM     16  C   UNL     1       1.241   2.731  21.623  0.00  0.00    +0.000 A 
ATOM     17  C   UNL     1       0.549   3.006  20.443  0.00  0.00    +0.000 A 
ATOM     18  C   UNL     1       0.990   4.014  19.573  0.00  0.00    +0.000 A 
ENDBRANCH  11  13
BRANCH   2  19
ATOM     19  C   UNL     1       6.272   5.529  15.484  0.00  0.00    +0.000 C 
ATOM     20  O   UNL     1       6.228   4.943  14.414  0.00  0.00    +0.000 OA
BRANCH  19  21
ATOM     21  O   UNL     1       7.405   6.144  15.934  0.00  0.00    +0.000 OA
ATOM     22  H   UNL     1       7.860   5.565  16.584  0.00  0.00    +0.000 HD
ENDBRANCH  19  21
ENDBRANCH   2  19
BRANCH   1  23
ATOM     23  O   UNL     1       5.046   3.584  17.543  0.00  0.00    +0.000 OA
BRANCH  23  25
ATOM     24  C   UNL     1       3.775   1.846  18.727  0.00  0.00    +0.000 C 
ATOM     25  C   UNL     1       4.136   2.496  17.395  0.00  0.00    +0.000 C 
ATOM     26  C   UNL     1       2.878   3.099  16.765  0.00  0.00    +0.000 C 
ENDBRANCH  23  25
ENDBRANCH   1  23
TORSDOF 5
ENDMDL
MODEL 7
REMARK VINA RESULT:      -6.6      2.956      6.205
REMARK  Name = 
REMARK  7 active torsions:
REMARK  status: ('A' for Active; 'I' for Inactive)
REMARK    1  A    between atoms: C_1  and  C_2
REMARK    2  A    between atoms: C_2  and  C_3
REMARK    3  A    between atoms: C_2  and  O_4
REMARK    4  A    between atoms: O_4  and  C_5
REMARK    5  A    between atoms: C_6  and  C_7
REMARK    6  A    between atoms: C_7  and  O_9
REMARK    7  A    between atoms: N_18  and  C_19
REMARK                            x       y       z     vdW  Elec       q    Type
REMARK                         _______ _______ _______ _____ _____    ______ ____
ROOT
ATOM      1  C   UNL     1       5.675   5.956  17.991  0.00  0.00    +0.000 A 
ATOM      2  C   UNL     1       6.405   4.779  17.945  0.00  0.00    +0.000 A 
ATOM      3  O   UNL     1       5.738   3.749  18.542  0.00  0.00    +0.000 OA
ATOM      4  C   UNL     1       4.554   4.276  18.910  0.00  0.00    +0.000 A 
ATOM      5  C   UNL     1       3.416   3.725  19.489  0.00  0.00    +0.000 A 
ATOM      6  C   UNL     1       3.066   2.432  19.912  0.00  0.00    +0.000 A 
ATOM      7  C   UNL     1       1.795   2.219  20.434  0.00  0.00    +0.000 A 
ATOM      8  C   UNL     1       0.888   3.269  20.506  0.00  0.00    +0.000 A 
ATOM      9  C   UNL     1       1.226   4.553  20.056  0.00  0.00    +0.000 A 
ATOM     10  C   UNL     1       2.533   4.797  19.571  0.00  0.00    +0.000 A 
ATOM     11  N   UNL     1       3.148   5.971  19.052  0.00  0.00    +0.000 N 
ATOM     12  C   UNL     1       4.430   5.596  18.605  0.00  0.00    +0.000 A 
ENDROOT
BRANCH  11  13
ATOM     13  C   UNL     1       2.510   7.249  19.017  0.00  0.00    +0.000 A 
ATOM     14  C   UNL     1       2.569   8.018  17.842  0.00  0.00    +0.000 A 
ATOM     15  C   UNL     1       2.067   9.319  17.804  0.00  0.00    +0.000 A 
ATOM     16  C   UNL     1       1.440   9.845  18.926  0.00  0.00    +0.000 A 
ATOM     17  C   UNL     1       1.329   9.074  20.084  0.00  0.00    +0.000 A 
ATOM     18  C   UNL     1       1.881   7.786  20.142  0.00  0.00    +0.000 A 
ENDBRANCH  11  13
BRANCH   2  19
ATOM     19  C   UNL     1       7.704   4.434  17.406  0.00  0.00    +0.000 C 
ATOM     20  O   UNL     1       8.661   3.985  18.017  0.00  0.00    +0.000 OA
BRANCH  19  21
ATOM     21  O   UNL     1       7.742   4.672  16.062  0.00  0.00    +0.000 OA
ATOM     22  H   UNL     1       7.446   3.871  15.575  0.00  0.00    +0.000 HD
ENDBRANCH  19  21
ENDBRANCH   2  19
BRANCH   1  23
ATOM     23  O   UNL     1       6.105   7.073  17.364  0.00  0.00    +0.000 OA
BRANCH  23  25
ATOM     24  C   UNL     1       8.234   7.374  18.555  0.00  0.00    +0.000 C 
ATOM     25  C   UNL     1       6.915   7.990  18.097  0.00  0.00    +0.000 C 
ATOM     26  C   UNL     1       7.201   9.144  17.133  0.00  0.00    +0.000 C 
ENDBRANCH  23  25
ENDBRANCH   1  23
TORSDOF 5
ENDMDL
MODEL 8
REMARK VINA RESULT:      -6.4      3.237      5.694
REMARK  Name = 
REMARK  7 active torsions:
REMARK  status: ('A' for Active; 'I' for Inactive)
REMARK    1  A    between atoms: C_1  and  C_2
REMARK    2  A    between atoms: C_2  and  C_3
REMARK    3  A    between atoms: C_2  and  O_4
REMARK    4  A    between atoms: O_4  and  C_5
REMARK    5  A    between atoms: C_6  and  C_7
REMARK    6  A    between atoms: C_7  and  O_9
REMARK    7  A    between atoms: N_18  and  C_19
REMARK                            x       y       z     vdW  Elec       q    Type
REMARK                         _______ _______ _______ _____ _____    ______ ____
ROOT
ATOM      1  C   UNL     1       3.652   3.863  19.975  0.00  0.00    +0.000 A 
ATOM      2  C   UNL     1       4.466   2.775  19.701  0.00  0.00    +0.000 A 
ATOM      3  O   UNL     1       5.086   2.903  18.492  0.00  0.00    +0.000 OA
ATOM      4  C   UNL     1       4.701   4.111  18.036  0.00  0.00    +0.000 A 
ATOM      5  C   UNL     1       5.047   4.846  16.907  0.00  0.00    +0.000 A 
ATOM      6  C   UNL     1       5.910   4.619  15.823  0.00  0.00    +0.000 A 
ATOM      7  C   UNL     1       6.047   5.610  14.857  0.00  0.00    +0.000 A 
ATOM      8  C   UNL     1       5.357   6.808  14.987  0.00  0.00    +0.000 A 
ATOM      9  C   UNL     1       4.519   7.048  16.085  0.00  0.00    +0.000 A 
ATOM     10  C   UNL     1       4.329   6.029  17.049  0.00  0.00    +0.000 A 
ATOM     11  N   UNL     1       3.560   5.987  18.247  0.00  0.00    +0.000 N 
ATOM     12  C   UNL     1       3.848   4.759  18.873  0.00  0.00    +0.000 A 
ENDROOT
BRANCH  11  13
ATOM     13  C   UNL     1       2.693   7.042  18.667  0.00  0.00    +0.000 A 
ATOM     14  C   UNL     1       2.298   8.021  17.739  0.00  0.00    +0.000 A 
ATOM     15  C   UNL     1       1.554   9.133  18.135  0.00  0.00    +0.000 A 
ATOM     16  C   UNL     1       1.141   9.247  19.456  0.00  0.00    +0.000 A 
ATOM     17  C   UNL     1       1.482   8.256  20.377  0.00  0.00    +0.000 A 
ATOM     18  C   UNL     1       2.276   7.165  19.993  0.00  0.00    +0.000 A 
ENDBRANCH  11  13
BRANCH   2  19
ATOM     19  C   UNL     1       4.778   1.558  20.422  0.00  0.00    +0.000 C 
ATOM     20  O   UNL     1       4.977   1.440  21.620  0.00  0.00    +0.000 OA
BRANCH  19  21
ATOM     21  O   UNL     1       4.818   0.494  19.566  0.00  0.00    +0.000 OA
ATOM     22  H   UNL     1       4.719  -0.342  20.073  0.00  0.00    +0.000 HD
ENDBRANCH  19  21
ENDBRANCH   2  19
BRANCH   1  23
ATOM     23  O   UNL     1       3.028   3.989  21.167  0.00  0.00    +0.000 OA
BRANCH  23  25
ATOM     24  C   UNL     1       0.990   3.617  19.845  0.00  0.00    +0.000 C 
ATOM     25  C   UNL     1       1.627   3.731  21.227  0.00  0.00    +0.000 C 
ATOM     26  C   UNL     1       1.488   2.397  21.964  0.00  0.00    +0.000 C 
ENDBRANCH  23  25
ENDBRANCH   1  23
TORSDOF 5
ENDMDL
MODEL 9
REMARK VINA RESULT:      -6.3      6.303     10.169
REMARK  Name = 
REMARK  7 active torsions:
REMARK  status: ('A' for Active; 'I' for Inactive)
REMARK    1  A    between atoms: C_1  and  C_2
REMARK    2  A    between atoms: C_2  and  C_3
REMARK    3  A    between atoms: C_2  and  O_4
REMARK    4  A    between atoms: O_4  and  C_5
REMARK    5  A    between atoms: C_6  and  C_7
REMARK    6  A    between atoms: C_7  and  O_9
REMARK    7  A    between atoms: N_18  and  C_19
REMARK                            x       y       z     vdW  Elec       q    Type
REMARK                         _______ _______ _______ _____ _____    ______ ____
ROOT
ATOM      1  C   UNL     1      -2.172  12.064  19.032  0.00  0.00    +0.000 A 
ATOM      2  C   UNL     1      -1.028  11.756  19.750  0.00  0.00    +0.000 A 
ATOM      3  O   UNL     1      -1.222  11.906  21.093  0.00  0.00    +0.000 OA
ATOM      4  C   UNL     1      -2.518  12.253  21.215  0.00  0.00    +0.000 A 
ATOM      5  C   UNL     1      -3.336  12.470  22.318  0.00  0.00    +0.000 A 
ATOM      6  C   UNL     1      -3.133  12.417  23.707  0.00  0.00    +0.000 A 
ATOM      7  C   UNL     1      -4.210  12.667  24.551  0.00  0.00    +0.000 A 
ATOM      8  C   UNL     1      -5.464  12.936  24.018  0.00  0.00    +0.000 A 
ATOM      9  C   UNL     1      -5.674  12.958  22.632  0.00  0.00    +0.000 A 
ATOM     10  C   UNL     1      -4.577  12.757  21.760  0.00  0.00    +0.000 A 
ATOM     11  N   UNL     1      -4.489  12.719  20.339  0.00  0.00    +0.000 N 
ATOM     12  C   UNL     1      -3.165  12.359  20.023  0.00  0.00    +0.000 A 
ENDROOT
BRANCH  11  13
ATOM     13  C   UNL     1      -5.590  12.995  19.471  0.00  0.00    +0.000 A 
ATOM     14  C   UNL     1      -6.169  11.945  18.737  0.00  0.00    +0.000 A 
ATOM     15  C   UNL     1      -7.162  12.190  17.788  0.00  0.00    +0.000 A 
ATOM     16  C   UNL     1      -7.634  13.484  17.607  0.00  0.00    +0.000 A 
ATOM     17  C   UNL     1      -7.105  14.528  18.368  0.00  0.00    +0.000 A 
ATOM     18  C   UNL     1      -6.068  14.292  19.283  0.00  0.00    +0.000 A 
ENDBRANCH  11  13
BRANCH   2  19
ATOM     19  C   UNL     1       0.300  11.321  19.370  0.00  0.00    +0.000 C 
ATOM     20  O   UNL     1       1.310  11.347  20.055  0.00  0.00    +0.000 OA
BRANCH  19  21
ATOM     21  O   UNL     1       0.297  10.845  18.090  0.00  0.00    +0.000 OA
ATOM     22  H   UNL     1       0.245   9.864  18.102  0.00  0.00    +0.000 HD
ENDBRANCH  19  21
ENDBRANCH   2  19
BRANCH   1  23
ATOM     23  O   UNL     1      -2.230  11.881  17.694  0.00  0.00    +0.000 OA
BRANCH  23  25
ATOM     24  C   UNL     1      -3.362  11.135  15.644  0.00  0.00    +0.000 C 
ATOM     25  C   UNL     1      -3.289  11.083  17.167  0.00  0.00    +0.000 C 
ATOM     26  C   UNL     1      -2.982   9.651  17.613  0.00  0.00    +0.000 C 
ENDBRANCH  23  25
ENDBRANCH   1  23
TORSDOF 5
ENDMDL
