MODEL 1
REMARK VINA RESULT:      -7.8      0.000      0.000
REMARK  Name = 
REMARK  5 active torsions:
REMARK  status: ('A' for Active; 'I' for Inactive)
REMARK    1  A    between atoms: C_1  and  S_2
REMARK    2  A    between atoms: S_2  and  O_5
REMARK    3  A    between atoms: O_5  and  C_6
REMARK    4  A    between atoms: C_10  and  S_11
REMARK    5  A    between atoms: S_11  and  C_14
REMARK                            x       y       z     vdW  Elec       q    Type
REMARK                         _______ _______ _______ _____ _____    ______ ____
ROOT
ATOM      1  C   UNL     1       3.821   4.744  18.447  0.00  0.00    +0.000 A 
ATOM      2  C   UNL     1       3.081   5.919  18.402  0.00  0.00    +0.000 A 
ATOM      3  C   UNL     1       3.589   7.002  17.685  0.00  0.00    +0.000 A 
ATOM      4  C   UNL     1       4.814   6.881  17.036  0.00  0.00    +0.000 A 
ATOM      5  C   UNL     1       5.469   5.665  17.137  0.00  0.00    +0.000 A 
ATOM      6  N   UNL     1       4.995   4.589  17.813  0.00  0.00    +0.000 NA
ENDROOT
BRANCH   5   7
ATOM      7  S   UNL     1       7.102   5.431  16.442  0.00  0.00    +0.000 S 
ATOM      8  O   UNL     1       7.698   6.755  16.358  0.00  0.00    +0.000 OA
ATOM      9  O   UNL     1       7.778   4.390  17.196  0.00  0.00    +0.000 OA
BRANCH   7  10
ATOM     10  C   UNL     1       6.925   4.849  14.769  0.00  0.00    +0.000 A 
ATOM     11  C   UNL     1       5.917   3.929  14.460  0.00  0.00    +0.000 A 
ATOM     12  C   UNL     1       5.759   3.494  13.145  0.00  0.00    +0.000 A 
ATOM     13  C   UNL     1       6.603   3.977  12.144  0.00  0.00    +0.000 A 
ATOM     14  C   UNL     1       7.604   4.901  12.455  0.00  0.00    +0.000 A 
ATOM     15  C   UNL     1       7.765   5.344  13.768  0.00  0.00    +0.000 A 
ENDBRANCH   7  10
ENDBRANCH   5   7
BRANCH   1  16
ATOM     16  O   UNL     1       3.298   3.678  19.141  0.00  0.00    +0.000 OA
BRANCH  16  18
ATOM     17  C   UNL     1       1.167   2.272  19.251  0.00  0.00    +0.000 C 
ATOM     18  S   UNL     1       2.642   2.454  18.284  0.00  0.00    +0.000 S 
ATOM     19  O   UNL     1       3.428   1.254  18.477  0.00  0.00    +0.000 OA
ATOM     20  O   UNL     1       2.212   2.912  16.976  0.00  0.00    +0.000 OA
ENDBRANCH  16  18
ENDBRANCH   1  16
TORSDOF 4
ENDMDL
MODEL 2
REMARK VINA RESULT:      -7.7      0.837      1.486
REMARK  Name = 
REMARK  5 active torsions:
REMARK  status: ('A' for Active; 'I' for Inactive)
REMARK    1  A    between atoms: C_1  and  S_2
REMARK    2  A    between atoms: S_2  and  O_5
REMARK    3  A    between atoms: O_5  and  C_6
REMARK    4  A    between atoms: C_10  and  S_11
REMARK    5  A    between atoms: S_11  and  C_14
REMARK                            x       y       z     vdW  Elec       q    Type
REMARK                         _______ _______ _______ _____ _____    ______ ____
ROOT
ATOM      1  C   UNL     1       3.718   4.892  18.397  0.00  0.00    +0.000 A 
ATOM      2  C   UNL     1       2.990   6.068  18.265  0.00  0.00    +0.000 A 
ATOM      3  C   UNL     1       3.516   7.096  17.482  0.00  0.00    +0.000 A 
ATOM      4  C   UNL     1       4.747   6.919  16.856  0.00  0.00    +0.000 A 
ATOM      5  C   UNL     1       5.388   5.706  17.045  0.00  0.00    +0.000 A 
ATOM      6  N   UNL     1       4.896   4.684  17.787  0.00  0.00    +0.000 NA
ENDROOT
BRANCH   5   7
ATOM      7  S   UNL     1       7.025   5.411  16.385  0.00  0.00    +0.000 S 
ATOM      8  O   UNL     1       7.678   6.709  16.327  0.00  0.00    +0.000 OA
ATOM      9  O   UNL     1       7.640   4.336  17.144  0.00  0.00    +0.000 OA
BRANCH   7  10
ATOM     10  C   UNL     1       6.863   4.851  14.703  0.00  0.00    +0.000 A 
ATOM     11  C   UNL     1       7.754   5.318  13.730  0.00  0.00    +0.000 A 
ATOM     12  C   UNL     1       7.646   4.858  12.418  0.00  0.00    +0.000 A 
ATOM     13  C   UNL     1       6.655   3.934  12.081  0.00  0.00    +0.000 A 
ATOM     14  C   UNL     1       5.773   3.464  13.057  0.00  0.00    +0.000 A 
ATOM     15  C   UNL     1       5.878   3.917  14.373  0.00  0.00    +0.000 A 
ENDBRANCH   7  10
ENDBRANCH   5   7
BRANCH   1  16
ATOM     16  O   UNL     1       3.177   3.880  19.155  0.00  0.00    +0.000 OA
BRANCH  16  18
ATOM     17  C   UNL     1       3.513   1.429  18.518  0.00  0.00    +0.000 C 
ATOM     18  S   UNL     1       2.313   2.727  18.389  0.00  0.00    +0.000 S 
ATOM     19  O   UNL     1       2.198   3.062  16.985  0.00  0.00    +0.000 OA
ATOM     20  O   UNL     1       1.180   2.310  19.194  0.00  0.00    +0.000 OA
ENDBRANCH  16  18
ENDBRANCH   1  16
TORSDOF 4
ENDMDL
MODEL 3
REMARK VINA RESULT:      -7.6      1.020      1.522
REMARK  Name = 
REMARK  5 active torsions:
REMARK  status: ('A' for Active; 'I' for Inactive)
REMARK    1  A    between atoms: C_1  and  S_2
REMARK    2  A    between atoms: S_2  and  O_5
REMARK    3  A    between atoms: O_5  and  C_6
REMARK    4  A    between atoms: C_10  and  S_11
REMARK    5  A    between atoms: S_11  and  C_14
REMARK                            x       y       z     vdW  Elec       q    Type
REMARK                         _______ _______ _______ _____ _____    ______ ____
ROOT
ATOM      1  C   UNL     1       4.153   5.260  19.034  0.00  0.00    +0.000 A 
ATOM      2  C   UNL     1       3.243   6.240  18.659  0.00  0.00    +0.000 A 
ATOM      3  C   UNL     1       3.521   7.016  17.532  0.00  0.00    +0.000 A 
ATOM      4  C   UNL     1       4.694   6.791  16.818  0.00  0.00    +0.000 A 
ATOM      5  C   UNL     1       5.532   5.785  17.271  0.00  0.00    +0.000 A 
ATOM      6  N   UNL     1       5.282   5.005  18.352  0.00  0.00    +0.000 NA
ENDROOT
BRANCH   5   7
ATOM      7  S   UNL     1       7.119   5.483  16.502  0.00  0.00    +0.000 S 
ATOM      8  O   UNL     1       7.757   6.783  16.369  0.00  0.00    +0.000 OA
ATOM      9  O   UNL     1       7.794   4.428  17.238  0.00  0.00    +0.000 OA
BRANCH   7  10
ATOM     10  C   UNL     1       6.840   4.885  14.848  0.00  0.00    +0.000 A 
ATOM     11  C   UNL     1       7.709   5.267  13.820  0.00  0.00    +0.000 A 
ATOM     12  C   UNL     1       7.508   4.776  12.530  0.00  0.00    +0.000 A 
ATOM     13  C   UNL     1       6.448   3.907  12.270  0.00  0.00    +0.000 A 
ATOM     14  C   UNL     1       5.588   3.521  13.302  0.00  0.00    +0.000 A 
ATOM     15  C   UNL     1       5.785   4.005  14.596  0.00  0.00    +0.000 A 
ENDBRANCH   7  10
ENDBRANCH   5   7
BRANCH   1  16
ATOM     16  O   UNL     1       3.855   4.491  20.134  0.00  0.00    +0.000 OA
BRANCH  16  18
ATOM     17  C   UNL     1       2.505   2.636  21.259  0.00  0.00    +0.000 C 
ATOM     18  S   UNL     1       3.626   2.890  19.909  0.00  0.00    +0.000 S 
ATOM     19  O   UNL     1       4.845   2.178  20.228  0.00  0.00    +0.000 OA
ATOM     20  O   UNL     1       2.862   2.643  18.700  0.00  0.00    +0.000 OA
ENDBRANCH  16  18
ENDBRANCH   1  16
TORSDOF 4
ENDMDL
MODEL 4
REMARK VINA RESULT:      -7.3      0.989      1.658
REMARK  Name = 
REMARK  5 active torsions:
REMARK  status: ('A' for Active; 'I' for Inactive)
REMARK    1  A    between atoms: C_1  and  S_2
REMARK    2  A    between atoms: S_2  and  O_5
REMARK    3  A    between atoms: O_5  and  C_6
REMARK    4  A    between atoms: C_10  and  S_11
REMARK    5  A    between atoms: S_11  and  C_14
REMARK                            x       y       z     vdW  Elec       q    Type
REMARK                         _______ _______ _______ _____ _____    ______ ____
ROOT
ATOM      1  C   UNL     1       3.256   4.696  17.648  0.00  0.00    +0.000 A 
ATOM      2  C   UNL     1       2.708   5.935  17.956  0.00  0.00    +0.000 A 
ATOM      3  C   UNL     1       3.476   7.079  17.736  0.00  0.00    +0.000 A 
ATOM      4  C   UNL     1       4.762   6.952  17.219  0.00  0.00    +0.000 A 
ATOM      5  C   UNL     1       5.212   5.672  16.940  0.00  0.00    +0.000 A 
ATOM      6  N   UNL     1       4.484   4.544  17.127  0.00  0.00    +0.000 NA
ENDROOT
BRANCH   5   7
ATOM      7  S   UNL     1       6.887   5.380  16.381  0.00  0.00    +0.000 S 
ATOM      8  O   UNL     1       7.551   6.673  16.400  0.00  0.00    +0.000 OA
ATOM      9  O   UNL     1       7.443   4.280  17.150  0.00  0.00    +0.000 OA
BRANCH   7  10
ATOM     10  C   UNL     1       6.832   4.864  14.678  0.00  0.00    +0.000 A 
ATOM     11  C   UNL     1       7.715   5.434  13.754  0.00  0.00    +0.000 A 
ATOM     12  C   UNL     1       7.693   5.011  12.426  0.00  0.00    +0.000 A 
ATOM     13  C   UNL     1       6.795   4.022  12.024  0.00  0.00    +0.000 A 
ATOM     14  C   UNL     1       5.920   3.449  12.950  0.00  0.00    +0.000 A 
ATOM     15  C   UNL     1       5.939   3.865  14.282  0.00  0.00    +0.000 A 
ENDBRANCH   7  10
ENDBRANCH   5   7
BRANCH   1  16
ATOM     16  O   UNL     1       2.479   3.580  17.851  0.00  0.00    +0.000 OA
BRANCH  16  18
ATOM     17  C   UNL     1       3.607   1.380  18.494  0.00  0.00    +0.000 C 
ATOM     18  S   UNL     1       2.710   2.725  19.222  0.00  0.00    +0.000 S 
ATOM     19  O   UNL     1       1.444   2.193  19.679  0.00  0.00    +0.000 OA
ATOM     20  O   UNL     1       3.644   3.402  20.101  0.00  0.00    +0.000 OA
ENDBRANCH  16  18
ENDBRANCH   1  16
TORSDOF 4
ENDMDL
MODEL 5
REMARK VINA RESULT:      -7.2      0.926      1.780
REMARK  Name = 
REMARK  5 active torsions:
REMARK  status: ('A' for Active; 'I' for Inactive)
REMARK    1  A    between atoms: C_1  and  S_2
REMARK    2  A    between atoms: S_2  and  O_5
REMARK    3  A    between atoms: O_5  and  C_6
REMARK    4  A    between atoms: C_10  and  S_11
REMARK    5  A    between atoms: S_11  and  C_14
REMARK                            x       y       z     vdW  Elec       q    Type
REMARK                         _______ _______ _______ _____ _____    ______ ____
ROOT
ATOM      1  C   UNL     1       3.345   5.033  18.037  0.00  0.00    +0.000 A 
ATOM      2  C   UNL     1       2.801   6.310  18.080  0.00  0.00    +0.000 A 
ATOM      3  C   UNL     1       3.544   7.372  17.562  0.00  0.00    +0.000 A 
ATOM      4  C   UNL     1       4.802   7.127  17.019  0.00  0.00    +0.000 A 
ATOM      5  C   UNL     1       5.250   5.816  17.018  0.00  0.00    +0.000 A 
ATOM      6  N   UNL     1       4.546   4.762  17.499  0.00  0.00    +0.000 NA
ENDROOT
BRANCH   5   7
ATOM      7  S   UNL     1       6.896   5.400  16.451  0.00  0.00    +0.000 S 
ATOM      8  O   UNL     1       7.648   6.644  16.446  0.00  0.00    +0.000 OA
ATOM      9  O   UNL     1       7.381   4.276  17.233  0.00  0.00    +0.000 OA
BRANCH   7  10
ATOM     10  C   UNL     1       6.791   4.864  14.757  0.00  0.00    +0.000 A 
ATOM     11  C   UNL     1       7.708   5.353  13.820  0.00  0.00    +0.000 A 
ATOM     12  C   UNL     1       7.645   4.913  12.498  0.00  0.00    +0.000 A 
ATOM     13  C   UNL     1       6.674   3.986  12.117  0.00  0.00    +0.000 A 
ATOM     14  C   UNL     1       5.766   3.494  13.057  0.00  0.00    +0.000 A 
ATOM     15  C   UNL     1       5.825   3.927  14.382  0.00  0.00    +0.000 A 
ENDBRANCH   7  10
ENDBRANCH   5   7
BRANCH   1  16
ATOM     16  O   UNL     1       2.592   3.994  18.533  0.00  0.00    +0.000 OA
BRANCH  16  18
ATOM     17  C   UNL     1       1.502   2.389  20.195  0.00  0.00    +0.000 C 
ATOM     18  S   UNL     1       2.864   3.517  20.070  0.00  0.00    +0.000 S 
ATOM     19  O   UNL     1       2.590   4.616  20.972  0.00  0.00    +0.000 OA
ATOM     20  O   UNL     1       4.065   2.709  20.154  0.00  0.00    +0.000 OA
ENDBRANCH  16  18
ENDBRANCH   1  16
TORSDOF 4
ENDMDL
MODEL 6
REMARK VINA RESULT:      -7.1      0.976      1.400
REMARK  Name = 
REMARK  5 active torsions:
REMARK  status: ('A' for Active; 'I' for Inactive)
REMARK    1  A    between atoms: C_1  and  S_2
REMARK    2  A    between atoms: S_2  and  O_5
REMARK    3  A    between atoms: O_5  and  C_6
REMARK    4  A    between atoms: C_10  and  S_11
REMARK    5  A    between atoms: S_11  and  C_14
REMARK                            x       y       z     vdW  Elec       q    Type
REMARK                         _______ _______ _______ _____ _____    ______ ____
ROOT
ATOM      1  C   UNL     1       3.173   5.046  17.713  0.00  0.00    +0.000 A 
ATOM      2  C   UNL     1       2.701   6.335  17.925  0.00  0.00    +0.000 A 
ATOM      3  C   UNL     1       3.541   7.412  17.635  0.00  0.00    +0.000 A 
ATOM      4  C   UNL     1       4.821   7.169  17.144  0.00  0.00    +0.000 A 
ATOM      5  C   UNL     1       5.192   5.847  16.961  0.00  0.00    +0.000 A 
ATOM      6  N   UNL     1       4.394   4.782  17.219  0.00  0.00    +0.000 NA
ENDROOT
BRANCH   5   7
ATOM      7  S   UNL     1       6.850   5.413  16.445  0.00  0.00    +0.000 S 
ATOM      8  O   UNL     1       7.606   6.655  16.428  0.00  0.00    +0.000 OA
ATOM      9  O   UNL     1       7.312   4.307  17.265  0.00  0.00    +0.000 OA
BRANCH   7  10
ATOM     10  C   UNL     1       6.785   4.837  14.762  0.00  0.00    +0.000 A 
ATOM     11  C   UNL     1       5.806   3.910  14.386  0.00  0.00    +0.000 A 
ATOM     12  C   UNL     1       5.736   3.480  13.061  0.00  0.00    +0.000 A 
ATOM     13  C   UNL     1       6.637   3.975  12.118  0.00  0.00    +0.000 A 
ATOM     14  C   UNL     1       7.607   4.907  12.495  0.00  0.00    +0.000 A 
ATOM     15  C   UNL     1       7.681   5.345  13.818  0.00  0.00    +0.000 A 
ENDBRANCH   7  10
ENDBRANCH   5   7
BRANCH   1  16
ATOM     16  O   UNL     1       2.327   3.997  17.984  0.00  0.00    +0.000 OA
BRANCH  16  18
ATOM     17  C   UNL     1       1.768   1.855  19.259  0.00  0.00    +0.000 C 
ATOM     18  S   UNL     1       2.113   3.570  19.545  0.00  0.00    +0.000 S 
ATOM     19  O   UNL     1       0.895   4.171  20.047  0.00  0.00    +0.000 OA
ATOM     20  O   UNL     1       3.369   3.613  20.268  0.00  0.00    +0.000 OA
ENDBRANCH  16  18
ENDBRANCH   1  16
TORSDOF 4
ENDMDL
MODEL 7
REMARK VINA RESULT:      -7.1      1.121      1.765
REMARK  Name = 
REMARK  5 active torsions:
REMARK  status: ('A' for Active; 'I' for Inactive)
REMARK    1  A    between atoms: C_1  and  S_2
REMARK    2  A    between atoms: S_2  and  O_5
REMARK    3  A    between atoms: O_5  and  C_6
REMARK    4  A    between atoms: C_10  and  S_11
REMARK    5  A    between atoms: S_11  and  C_14
REMARK                            x       y       z     vdW  Elec       q    Type
REMARK                         _______ _______ _______ _____ _____    ______ ____
ROOT
ATOM      1  C   UNL     1       4.045   4.842  18.798  0.00  0.00    +0.000 A 
ATOM      2  C   UNL     1       3.195   5.923  18.596  0.00  0.00    +0.000 A 
ATOM      3  C   UNL     1       3.550   6.885  17.650  0.00  0.00    +0.000 A 
ATOM      4  C   UNL     1       4.736   6.739  16.936  0.00  0.00    +0.000 A 
ATOM      5  C   UNL     1       5.509   5.622  17.207  0.00  0.00    +0.000 A 
ATOM      6  N   UNL     1       5.184   4.663  18.109  0.00  0.00    +0.000 NA
ENDROOT
BRANCH   5   7
ATOM      7  S   UNL     1       7.106   5.390  16.435  0.00  0.00    +0.000 S 
ATOM      8  O   UNL     1       7.702   6.713  16.335  0.00  0.00    +0.000 OA
ATOM      9  O   UNL     1       7.814   4.341  17.149  0.00  0.00    +0.000 OA
BRANCH   7  10
ATOM     10  C   UNL     1       6.851   4.822  14.768  0.00  0.00    +0.000 A 
ATOM     11  C   UNL     1       7.676   5.297  13.742  0.00  0.00    +0.000 A 
ATOM     12  C   UNL     1       7.496   4.831  12.440  0.00  0.00    +0.000 A 
ATOM     13  C   UNL     1       6.498   3.894  12.166  0.00  0.00    +0.000 A 
ATOM     14  C   UNL     1       5.682   3.417  13.194  0.00  0.00    +0.000 A 
ATOM     15  C   UNL     1       5.859   3.875  14.500  0.00  0.00    +0.000 A 
ENDBRANCH   7  10
ENDBRANCH   5   7
BRANCH   1  16
ATOM     16  O   UNL     1       3.671   3.892  19.719  0.00  0.00    +0.000 OA
BRANCH  16  18
ATOM     17  C   UNL     1       2.263   2.603  21.418  0.00  0.00    +0.000 C 
ATOM     18  S   UNL     1       2.088   3.771  20.096  0.00  0.00    +0.000 S 
ATOM     19  O   UNL     1       1.386   3.098  19.023  0.00  0.00    +0.000 OA
ATOM     20  O   UNL     1       1.607   4.998  20.704  0.00  0.00    +0.000 OA
ENDBRANCH  16  18
ENDBRANCH   1  16
TORSDOF 4
ENDMDL
MODEL 8
REMARK VINA RESULT:      -7.0      2.113      6.240
REMARK  Name = 
REMARK  5 active torsions:
REMARK  status: ('A' for Active; 'I' for Inactive)
REMARK    1  A    between atoms: C_1  and  S_2
REMARK    2  A    between atoms: S_2  and  O_5
REMARK    3  A    between atoms: O_5  and  C_6
REMARK    4  A    between atoms: C_10  and  S_11
REMARK    5  A    between atoms: S_11  and  C_14
REMARK                            x       y       z     vdW  Elec       q    Type
REMARK                         _______ _______ _______ _____ _____    ______ ____
ROOT
ATOM      1  C   UNL     1       6.359   4.404  17.042  0.00  0.00    +0.000 A 
ATOM      2  C   UNL     1       7.393   4.964  17.782  0.00  0.00    +0.000 A 
ATOM      3  C   UNL     1       7.112   5.455  19.058  0.00  0.00    +0.000 A 
ATOM      4  C   UNL     1       5.814   5.372  19.554  0.00  0.00    +0.000 A 
ATOM      5  C   UNL     1       4.858   4.788  18.739  0.00  0.00    +0.000 A 
ATOM      6  N   UNL     1       5.102   4.289  17.503  0.00  0.00    +0.000 NA
ENDROOT
BRANCH   5   7
ATOM      7  S   UNL     1       3.137   4.731  19.225  0.00  0.00    +0.000 S 
ATOM      8  O   UNL     1       2.442   4.014  18.168  0.00  0.00    +0.000 OA
ATOM      9  O   UNL     1       3.060   4.240  20.590  0.00  0.00    +0.000 OA
BRANCH   7  10
ATOM     10  C   UNL     1       2.492   6.391  19.219  0.00  0.00    +0.000 A 
ATOM     11  C   UNL     1       1.946   6.924  20.392  0.00  0.00    +0.000 A 
ATOM     12  C   UNL     1       1.467   8.234  20.396  0.00  0.00    +0.000 A 
ATOM     13  C   UNL     1       1.536   9.006  19.236  0.00  0.00    +0.000 A 
ATOM     14  C   UNL     1       2.090   8.473  18.070  0.00  0.00    +0.000 A 
ATOM     15  C   UNL     1       2.575   7.164  18.059  0.00  0.00    +0.000 A 
ENDBRANCH   7  10
ENDBRANCH   5   7
BRANCH   1  16
ATOM     16  O   UNL     1       6.655   3.906  15.795  0.00  0.00    +0.000 OA
BRANCH  16  18
ATOM     17  C   UNL     1       6.260   3.777  13.274  0.00  0.00    +0.000 C 
ATOM     18  S   UNL     1       6.674   4.948  14.539  0.00  0.00    +0.000 S 
ATOM     19  O   UNL     1       8.033   5.381  14.290  0.00  0.00    +0.000 OA
ATOM     20  O   UNL     1       5.556   5.869  14.617  0.00  0.00    +0.000 OA
ENDBRANCH  16  18
ENDBRANCH   1  16
TORSDOF 4
ENDMDL
MODEL 9
REMARK VINA RESULT:      -6.8      1.616      1.928
REMARK  Name = 
REMARK  5 active torsions:
REMARK  status: ('A' for Active; 'I' for Inactive)
REMARK    1  A    between atoms: C_1  and  S_2
REMARK    2  A    between atoms: S_2  and  O_5
REMARK    3  A    between atoms: O_5  and  C_6
REMARK    4  A    between atoms: C_10  and  S_11
REMARK    5  A    between atoms: S_11  and  C_14
REMARK                            x       y       z     vdW  Elec       q    Type
REMARK                         _______ _______ _______ _____ _____    ______ ____
ROOT
ATOM      1  C   UNL     1       3.082   5.492  19.886  0.00  0.00    +0.000 A 
ATOM      2  C   UNL     1       2.263   6.454  19.308  0.00  0.00    +0.000 A 
ATOM      3  C   UNL     1       2.725   7.136  18.182  0.00  0.00    +0.000 A 
ATOM      4  C   UNL     1       3.985   6.839  17.670  0.00  0.00    +0.000 A 
ATOM      5  C   UNL     1       4.720   5.859  18.316  0.00  0.00    +0.000 A 
ATOM      6  N   UNL     1       4.292   5.168  19.402  0.00  0.00    +0.000 NA
ENDROOT
BRANCH   5   7
ATOM      7  S   UNL     1       6.395   5.475  17.817  0.00  0.00    +0.000 S 
ATOM      8  O   UNL     1       7.114   6.739  17.810  0.00  0.00    +0.000 OA
ATOM      9  O   UNL     1       6.881   4.382  18.641  0.00  0.00    +0.000 OA
BRANCH   7  10
ATOM     10  C   UNL     1       6.365   4.900  16.133  0.00  0.00    +0.000 A 
ATOM     11  C   UNL     1       5.287   4.128  15.685  0.00  0.00    +0.000 A 
ATOM     12  C   UNL     1       5.248   3.701  14.358  0.00  0.00    +0.000 A 
ATOM     13  C   UNL     1       6.279   4.046  13.483  0.00  0.00    +0.000 A 
ATOM     14  C   UNL     1       7.349   4.824  13.932  0.00  0.00    +0.000 A 
ATOM     15  C   UNL     1       7.393   5.258  15.258  0.00  0.00    +0.000 A 
ENDBRANCH   7  10
ENDBRANCH   5   7
BRANCH   1  16
ATOM     16  O   UNL     1       2.604   4.814  20.983  0.00  0.00    +0.000 OA
BRANCH  16  18
ATOM     17  C   UNL     1       0.894   3.274  19.873  0.00  0.00    +0.000 C 
ATOM     18  S   UNL     1       2.374   3.204  20.847  0.00  0.00    +0.000 S 
ATOM     19  O   UNL     1       2.008   2.657  22.137  0.00  0.00    +0.000 OA
ATOM     20  O   UNL     1       3.387   2.607  19.998  0.00  0.00    +0.000 OA
ENDBRANCH  16  18
ENDBRANCH   1  16
TORSDOF 4
ENDMDL
