MODEL 1
REMARK VINA RESULT:      -8.3      0.000      0.000
REMARK  Name = 
REMARK  5 active torsions:
REMARK  status: ('A' for Active; 'I' for Inactive)
REMARK    1  A    between atoms: C_2  and  C_3
REMARK    2  A    between atoms: C_3  and  N_4
REMARK    3  A    between atoms: C_6  and  S_7
REMARK    4  A    between atoms: S_7  and  C_10
REMARK    5  A    between atoms: N_25  and  C_26
REMARK                            x       y       z     vdW  Elec       q    Type
REMARK                         _______ _______ _______ _____ _____    ______ ____
ROOT
ATOM      1  N   UNL     1       0.476  10.481  18.675  0.00  0.00    +0.000 N 
ATOM      2  C   UNL     1       0.968  11.475  19.521  0.00  0.00    +0.000 A 
ATOM      3  C   UNL     1       0.249  12.453  20.097  0.00  0.00    +0.000 A 
ATOM      4  C   UNL     1      -1.183  12.520  19.803  0.00  0.00    +0.000 A 
ATOM      5  O   UNL     1      -1.917  13.372  20.290  0.00  0.00    +0.000 OA
ATOM      6  C   UNL     1      -1.742  11.493  18.884  0.00  0.00    +0.000 A 
ATOM      7  C   UNL     1      -3.108  11.563  18.574  0.00  0.00    +0.000 A 
ATOM      8  C   UNL     1      -3.668  10.642  17.701  0.00  0.00    +0.000 A 
ATOM      9  C   UNL     1      -2.868   9.636  17.162  0.00  0.00    +0.000 A 
ATOM     10  C   UNL     1      -1.510   9.561  17.488  0.00  0.00    +0.000 A 
ATOM     11  C   UNL     1      -0.902  10.498  18.336  0.00  0.00    +0.000 A 
ENDROOT
BRANCH   3  12
ATOM     12  S   UNL     1       1.045  13.672  21.016  0.00  0.00    +0.000 S 
ATOM     13  O   UNL     1       0.166  14.127  22.082  0.00  0.00    +0.000 OA
ATOM     14  O   UNL     1       2.379  13.202  21.350  0.00  0.00    +0.000 OA
BRANCH  12  15
ATOM     15  C   UNL     1       1.225  15.076  19.930  0.00  0.00    +0.000 A 
ATOM     16  C   UNL     1       0.329  16.146  20.041  0.00  0.00    +0.000 A 
ATOM     17  C   UNL     1       0.428  17.219  19.151  0.00  0.00    +0.000 A 
ATOM     18  C   UNL     1       1.424  17.224  18.175  0.00  0.00    +0.000 A 
ATOM     19 CL   UNL     1       1.517  18.532  17.061  0.00  0.00    +0.000 Cl
ATOM     20  C   UNL     1       2.340  16.175  18.088  0.00  0.00    +0.000 A 
ATOM     21  C   UNL     1       2.246  15.096  18.971  0.00  0.00    +0.000 A 
ENDBRANCH  12  15
ENDBRANCH   3  12
BRANCH   1  22
ATOM     22  C   UNL     1       1.422   9.643  17.880  0.00  0.00    +0.000 C 
BRANCH  22  24
ATOM     23  O   UNL     1       1.569   8.150  19.752  0.00  0.00    +0.000 OA
ATOM     24  C   UNL     1       1.829   8.337  18.563  0.00  0.00    +0.000 C 
ATOM     25  N   UNL     1       2.537   7.454  17.775  0.00  0.00    +0.000 N 
ATOM     26  H   UNL     1       3.024   7.865  16.986  0.00  0.00    +0.000 HD
BRANCH  25  27
ATOM     27  C   UNL     1       2.936   6.177  18.201  0.00  0.00    +0.000 A 
ATOM     28  C   UNL     1       4.121   5.973  18.942  0.00  0.00    +0.000 A 
ATOM     29  C   UNL     1       4.443   4.702  19.435  0.00  0.00    +0.000 A 
ATOM     30  C   UNL     1       3.572   3.674  19.158  0.00  0.00    +0.000 A 
ATOM     31  C   UNL     1       2.435   3.871  18.404  0.00  0.00    +0.000 A 
ATOM     32  C   UNL     1       2.079   5.111  17.925  0.00  0.00    +0.000 A 
ATOM     33  O   UNL     1       1.717   2.729  18.238  0.00  0.00    +0.000 OA
ATOM     34  C   UNL     1       2.377   1.886  19.205  0.00  0.00    +0.000 C 
ATOM     35  O   UNL     1       3.672   2.387  19.593  0.00  0.00    +0.000 OA
ENDBRANCH  25  27
ENDBRANCH  22  24
ENDBRANCH   1  22
TORSDOF 5
ENDMDL
MODEL 2
REMARK VINA RESULT:      -8.3      5.269      9.401
REMARK  Name = 
REMARK  5 active torsions:
REMARK  status: ('A' for Active; 'I' for Inactive)
REMARK    1  A    between atoms: C_2  and  C_3
REMARK    2  A    between atoms: C_3  and  N_4
REMARK    3  A    between atoms: C_6  and  S_7
REMARK    4  A    between atoms: S_7  and  C_10
REMARK    5  A    between atoms: N_25  and  C_26
REMARK                            x       y       z     vdW  Elec       q    Type
REMARK                         _______ _______ _______ _____ _____    ______ ____
ROOT
ATOM      1  N   UNL     1       6.490   5.318  18.163  0.00  0.00    +0.000 N 
ATOM      2  C   UNL     1       5.336   5.318  18.946  0.00  0.00    +0.000 A 
ATOM      3  C   UNL     1       4.107   4.952  18.546  0.00  0.00    +0.000 A 
ATOM      4  C   UNL     1       3.930   4.537  17.155  0.00  0.00    +0.000 A 
ATOM      5  O   UNL     1       2.847   4.180  16.706  0.00  0.00    +0.000 OA
ATOM      6  C   UNL     1       5.132   4.548  16.280  0.00  0.00    +0.000 A 
ATOM      7  C   UNL     1       4.970   4.177  14.936  0.00  0.00    +0.000 A 
ATOM      8  C   UNL     1       6.058   4.197  14.076  0.00  0.00    +0.000 A 
ATOM      9  C   UNL     1       7.311   4.560  14.567  0.00  0.00    +0.000 A 
ATOM     10  C   UNL     1       7.471   4.913  15.911  0.00  0.00    +0.000 A 
ATOM     11  C   UNL     1       6.386   4.941  16.799  0.00  0.00    +0.000 A 
ENDROOT
BRANCH   3  12
ATOM     12  S   UNL     1       2.769   5.135  19.617  0.00  0.00    +0.000 S 
ATOM     13  O   UNL     1       1.654   4.332  19.139  0.00  0.00    +0.000 OA
ATOM     14  O   UNL     1       3.240   4.954  20.979  0.00  0.00    +0.000 OA
BRANCH  12  15
ATOM     15  C   UNL     1       2.230   6.827  19.454  0.00  0.00    +0.000 A 
ATOM     16  C   UNL     1       1.670   7.476  20.562  0.00  0.00    +0.000 A 
ATOM     17  C   UNL     1       1.189   8.780  20.422  0.00  0.00    +0.000 A 
ATOM     18  C   UNL     1       1.284   9.429  19.190  0.00  0.00    +0.000 A 
ATOM     19 CL   UNL     1       0.657  11.023  19.018  0.00  0.00    +0.000 Cl
ATOM     20  C   UNL     1       1.875   8.796  18.097  0.00  0.00    +0.000 A 
ATOM     21  C   UNL     1       2.354   7.489  18.227  0.00  0.00    +0.000 A 
ENDBRANCH  12  15
ENDBRANCH   3  12
BRANCH   1  22
ATOM     22  C   UNL     1       7.718   6.019  18.644  0.00  0.00    +0.000 C 
BRANCH  22  24
ATOM     23  O   UNL     1       7.252   7.847  17.162  0.00  0.00    +0.000 OA
ATOM     24  C   UNL     1       7.834   7.471  18.179  0.00  0.00    +0.000 C 
ATOM     25  N   UNL     1       8.664   8.269  18.939  0.00  0.00    +0.000 N 
ATOM     26  H   UNL     1       9.371   7.780  19.475  0.00  0.00    +0.000 HD
BRANCH  25  27
ATOM     27  C   UNL     1       8.843   9.644  18.714  0.00  0.00    +0.000 A 
ATOM     28  C   UNL     1       8.128  10.335  17.711  0.00  0.00    +0.000 A 
ATOM     29  C   UNL     1       8.257  11.723  17.574  0.00  0.00    +0.000 A 
ATOM     30  C   UNL     1       9.109  12.370  18.438  0.00  0.00    +0.000 A 
ATOM     31  C   UNL     1       9.831  11.686  19.392  0.00  0.00    +0.000 A 
ATOM     32  C   UNL     1       9.710  10.327  19.567  0.00  0.00    +0.000 A 
ATOM     33  O   UNL     1      10.619  12.507  20.136  0.00  0.00    +0.000 OA
ATOM     34  C   UNL     1      10.085  13.785  19.732  0.00  0.00    +0.000 C 
ATOM     35  O   UNL     1       9.327  13.713  18.507  0.00  0.00    +0.000 OA
ENDBRANCH  25  27
ENDBRANCH  22  24
ENDBRANCH   1  22
TORSDOF 5
ENDMDL
MODEL 3
REMARK VINA RESULT:      -8.3      3.811      9.332
REMARK  Name = 
REMARK  5 active torsions:
REMARK  status: ('A' for Active; 'I' for Inactive)
REMARK    1  A    between atoms: C_2  and  C_3
REMARK    2  A    between atoms: C_3  and  N_4
REMARK    3  A    between atoms: C_6  and  S_7
REMARK    4  A    between atoms: S_7  and  C_10
REMARK    5  A    between atoms: N_25  and  C_26
REMARK                            x       y       z     vdW  Elec       q    Type
REMARK                         _______ _______ _______ _____ _____    ______ ____
ROOT
ATOM      1  N   UNL     1       2.928   5.873  18.750  0.00  0.00    +0.000 N 
ATOM      2  C   UNL     1       4.034   6.019  17.914  0.00  0.00    +0.000 A 
ATOM      3  C   UNL     1       4.611   5.049  17.186  0.00  0.00    +0.000 A 
ATOM      4  C   UNL     1       4.063   3.696  17.283  0.00  0.00    +0.000 A 
ATOM      5  O   UNL     1       4.520   2.752  16.649  0.00  0.00    +0.000 OA
ATOM      6  C   UNL     1       2.897   3.493  18.183  0.00  0.00    +0.000 A 
ATOM      7  C   UNL     1       2.379   2.195  18.305  0.00  0.00    +0.000 A 
ATOM      8  C   UNL     1       1.308   1.954  19.154  0.00  0.00    +0.000 A 
ATOM      9  C   UNL     1       0.741   3.014  19.857  0.00  0.00    +0.000 A 
ATOM     10  C   UNL     1       1.250   4.309  19.720  0.00  0.00    +0.000 A 
ATOM     11  C   UNL     1       2.356   4.584  18.901  0.00  0.00    +0.000 A 
ENDROOT
BRANCH   3  12
ATOM     12  S   UNL     1       6.052   5.383  16.303  0.00  0.00    +0.000 S 
ATOM     13  O   UNL     1       6.913   4.210  16.319  0.00  0.00    +0.000 OA
ATOM     14  O   UNL     1       5.686   5.976  15.029  0.00  0.00    +0.000 OA
BRANCH  12  15
ATOM     15  C   UNL     1       6.933   6.620  17.239  0.00  0.00    +0.000 A 
ATOM     16  C   UNL     1       6.842   7.963  16.853  0.00  0.00    +0.000 A 
ATOM     17  C   UNL     1       7.580   8.927  17.545  0.00  0.00    +0.000 A 
ATOM     18  C   UNL     1       8.384   8.549  18.621  0.00  0.00    +0.000 A 
ATOM     19 CL   UNL     1       9.316   9.738  19.445  0.00  0.00    +0.000 Cl
ATOM     20  C   UNL     1       8.445   7.217  19.028  0.00  0.00    +0.000 A 
ATOM     21  C   UNL     1       7.714   6.245  18.339  0.00  0.00    +0.000 A 
ENDBRANCH  12  15
ENDBRANCH   3  12
BRANCH   1  22
ATOM     22  C   UNL     1       2.573   6.956  19.715  0.00  0.00    +0.000 C 
BRANCH  22  24
ATOM     23  O   UNL     1       2.264   8.472  17.882  0.00  0.00    +0.000 OA
ATOM     24  C   UNL     1       2.018   8.222  19.062  0.00  0.00    +0.000 C 
ATOM     25  N   UNL     1       1.300   9.051  19.898  0.00  0.00    +0.000 N 
ATOM     26  H   UNL     1       1.502   8.957  20.887  0.00  0.00    +0.000 HD
BRANCH  25  27
ATOM     27  C   UNL     1       0.654  10.222  19.467  0.00  0.00    +0.000 A 
ATOM     28  C   UNL     1      -0.735  10.259  19.220  0.00  0.00    +0.000 A 
ATOM     29  C   UNL     1      -1.367  11.464  18.884  0.00  0.00    +0.000 A 
ATOM     30  C   UNL     1      -0.581  12.589  18.795  0.00  0.00    +0.000 A 
ATOM     31  C   UNL     1       0.781  12.540  19.002  0.00  0.00    +0.000 A 
ATOM     32  C   UNL     1       1.427  11.378  19.356  0.00  0.00    +0.000 A 
ATOM     33  O   UNL     1       1.373  13.755  18.858  0.00  0.00    +0.000 OA
ATOM     34  C   UNL     1       0.199  14.594  18.829  0.00  0.00    +0.000 C 
ATOM     35  O   UNL     1      -1.008  13.857  18.541  0.00  0.00    +0.000 OA
ENDBRANCH  25  27
ENDBRANCH  22  24
ENDBRANCH   1  22
TORSDOF 5
ENDMDL
MODEL 4
REMARK VINA RESULT:      -8.3      3.361      4.329
REMARK  Name = 
REMARK  5 active torsions:
REMARK  status: ('A' for Active; 'I' for Inactive)
REMARK    1  A    between atoms: C_2  and  C_3
REMARK    2  A    between atoms: C_3  and  N_4
REMARK    3  A    between atoms: C_6  and  S_7
REMARK    4  A    between atoms: S_7  and  C_10
REMARK    5  A    between atoms: N_25  and  C_26
REMARK                            x       y       z     vdW  Elec       q    Type
REMARK                         _______ _______ _______ _____ _____    ______ ____
ROOT
ATOM      1  N   UNL     1      -0.235  10.761  19.607  0.00  0.00    +0.000 N 
ATOM      2  C   UNL     1      -0.376  11.635  20.684  0.00  0.00    +0.000 A 
ATOM      3  C   UNL     1      -1.435  12.424  20.933  0.00  0.00    +0.000 A 
ATOM      4  C   UNL     1      -2.548  12.403  19.983  0.00  0.00    +0.000 A 
ATOM      5  O   UNL     1      -3.556  13.082  20.134  0.00  0.00    +0.000 OA
ATOM      6  C   UNL     1      -2.425  11.502  18.806  0.00  0.00    +0.000 A 
ATOM      7  C   UNL     1      -3.474  11.493  17.875  0.00  0.00    +0.000 A 
ATOM      8  C   UNL     1      -3.392  10.688  16.747  0.00  0.00    +0.000 A 
ATOM      9  C   UNL     1      -2.276   9.874  16.569  0.00  0.00    +0.000 A 
ATOM     10  C   UNL     1      -1.240   9.874  17.509  0.00  0.00    +0.000 A 
ATOM     11  C   UNL     1      -1.272  10.703  18.640  0.00  0.00    +0.000 A 
ENDROOT
BRANCH   3  12
ATOM     12  S   UNL     1      -1.384  13.535  22.248  0.00  0.00    +0.000 S 
ATOM     13  O   UNL     1      -0.541  12.998  23.304  0.00  0.00    +0.000 OA
ATOM     14  O   UNL     1      -1.103  14.860  21.722  0.00  0.00    +0.000 OA
BRANCH  12  15
ATOM     15  C   UNL     1      -3.030  13.567  22.936  0.00  0.00    +0.000 A 
ATOM     16  C   UNL     1      -3.502  12.448  23.633  0.00  0.00    +0.000 A 
ATOM     17  C   UNL     1      -4.812  12.445  24.119  0.00  0.00    +0.000 A 
ATOM     18  C   UNL     1      -5.630  13.558  23.922  0.00  0.00    +0.000 A 
ATOM     19 CL   UNL     1      -7.254  13.531  24.493  0.00  0.00    +0.000 Cl
ATOM     20  C   UNL     1      -5.148  14.686  23.259  0.00  0.00    +0.000 A 
ATOM     21  C   UNL     1      -3.840  14.696  22.766  0.00  0.00    +0.000 A 
ENDBRANCH  12  15
ENDBRANCH   3  12
BRANCH   1  22
ATOM     22  C   UNL     1       1.099  10.169  19.295  0.00  0.00    +0.000 C 
BRANCH  22  24
ATOM     23  O   UNL     1       1.026   8.663  21.161  0.00  0.00    +0.000 OA
ATOM     24  C   UNL     1       1.373   8.836  19.993  0.00  0.00    +0.000 C 
ATOM     25  N   UNL     1       2.066   7.909  19.243  0.00  0.00    +0.000 N 
ATOM     26  H   UNL     1       2.628   8.288  18.489  0.00  0.00    +0.000 HD
BRANCH  25  27
ATOM     27  C   UNL     1       2.349   6.606  19.683  0.00  0.00    +0.000 A 
ATOM     28  C   UNL     1       1.471   5.897  20.531  0.00  0.00    +0.000 A 
ATOM     29  C   UNL     1       1.733   4.565  20.876  0.00  0.00    +0.000 A 
ATOM     30  C   UNL     1       2.876   3.992  20.368  0.00  0.00    +0.000 A 
ATOM     31  C   UNL     1       3.749   4.699  19.570  0.00  0.00    +0.000 A 
ATOM     32  C   UNL     1       3.508   6.000  19.195  0.00  0.00    +0.000 A 
ATOM     33  O   UNL     1       4.819   3.955  19.183  0.00  0.00    +0.000 OA
ATOM     34  C   UNL     1       4.361   2.647  19.584  0.00  0.00    +0.000 C 
ATOM     35  O   UNL     1       3.278   2.701  20.535  0.00  0.00    +0.000 OA
ENDBRANCH  25  27
ENDBRANCH  22  24
ENDBRANCH   1  22
TORSDOF 5
ENDMDL
MODEL 5
REMARK VINA RESULT:      -8.2      1.563      1.909
REMARK  Name = 
REMARK  5 active torsions:
REMARK  status: ('A' for Active; 'I' for Inactive)
REMARK    1  A    between atoms: C_2  and  C_3
REMARK    2  A    between atoms: C_3  and  N_4
REMARK    3  A    between atoms: C_6  and  S_7
REMARK    4  A    between atoms: S_7  and  C_10
REMARK    5  A    between atoms: N_25  and  C_26
REMARK                            x       y       z     vdW  Elec       q    Type
REMARK                         _______ _______ _______ _____ _____    ______ ____
ROOT
ATOM      1  N   UNL     1       0.760  10.904  18.738  0.00  0.00    +0.000 N 
ATOM      2  C   UNL     1       1.211  12.003  19.466  0.00  0.00    +0.000 A 
ATOM      3  C   UNL     1       0.454  13.009  19.935  0.00  0.00    +0.000 A 
ATOM      4  C   UNL     1      -0.980  12.985  19.644  0.00  0.00    +0.000 A 
ATOM      5  O   UNL     1      -1.748  13.855  20.038  0.00  0.00    +0.000 OA
ATOM      6  C   UNL     1      -1.497  11.841  18.847  0.00  0.00    +0.000 A 
ATOM      7  C   UNL     1      -2.865  11.821  18.538  0.00  0.00    +0.000 A 
ATOM      8  C   UNL     1      -3.389  10.787  17.775  0.00  0.00    +0.000 A 
ATOM      9  C   UNL     1      -2.548   9.762  17.346  0.00  0.00    +0.000 A 
ATOM     10  C   UNL     1      -1.188   9.778  17.670  0.00  0.00    +0.000 A 
ATOM     11  C   UNL     1      -0.618  10.827  18.407  0.00  0.00    +0.000 A 
ENDROOT
BRANCH   3  12
ATOM     12  S   UNL     1       1.200  14.353  20.711  0.00  0.00    +0.000 S 
ATOM     13  O   UNL     1       0.443  15.561  20.422  0.00  0.00    +0.000 OA
ATOM     14  O   UNL     1       1.469  13.999  22.093  0.00  0.00    +0.000 OA
BRANCH  12  15
ATOM     15  C   UNL     1       2.773  14.585  19.900  0.00  0.00    +0.000 A 
ATOM     16  C   UNL     1       3.944  14.584  20.667  0.00  0.00    +0.000 A 
ATOM     17  C   UNL     1       5.171  14.827  20.044  0.00  0.00    +0.000 A 
ATOM     18  C   UNL     1       5.222  15.051  18.668  0.00  0.00    +0.000 A 
ATOM     19 CL   UNL     1       6.733  15.384  17.916  0.00  0.00    +0.000 Cl
ATOM     20  C   UNL     1       4.059  15.015  17.899  0.00  0.00    +0.000 A 
ATOM     21  C   UNL     1       2.826  14.777  18.514  0.00  0.00    +0.000 A 
ENDBRANCH  12  15
ENDBRANCH   3  12
BRANCH   1  22
ATOM     22  C   UNL     1       1.738  10.022  18.035  0.00  0.00    +0.000 C 
BRANCH  22  24
ATOM     23  O   UNL     1       1.544   8.444  19.831  0.00  0.00    +0.000 OA
ATOM     24  C   UNL     1       1.913   8.644  18.674  0.00  0.00    +0.000 C 
ATOM     25  N   UNL     1       2.549   7.705  17.889  0.00  0.00    +0.000 N 
ATOM     26  H   UNL     1       3.143   8.077  17.156  0.00  0.00    +0.000 HD
BRANCH  25  27
ATOM     27  C   UNL     1       2.738   6.367  18.272  0.00  0.00    +0.000 A 
ATOM     28  C   UNL     1       3.838   5.965  19.060  0.00  0.00    +0.000 A 
ATOM     29  C   UNL     1       3.948   4.642  19.507  0.00  0.00    +0.000 A 
ATOM     30  C   UNL     1       2.957   3.763  19.138  0.00  0.00    +0.000 A 
ATOM     31  C   UNL     1       1.904   4.152  18.339  0.00  0.00    +0.000 A 
ATOM     32  C   UNL     1       1.755   5.448  17.903  0.00  0.00    +0.000 A 
ATOM     33  O   UNL     1       1.042   3.133  18.083  0.00  0.00    +0.000 OA
ATOM     34  C   UNL     1       1.520   2.165  19.040  0.00  0.00    +0.000 C 
ATOM     35  O   UNL     1       2.850   2.458  19.515  0.00  0.00    +0.000 OA
ENDBRANCH  25  27
ENDBRANCH  22  24
ENDBRANCH   1  22
TORSDOF 5
ENDMDL
MODEL 6
REMARK VINA RESULT:      -8.1      4.548      9.950
REMARK  Name = 
REMARK  5 active torsions:
REMARK  status: ('A' for Active; 'I' for Inactive)
REMARK    1  A    between atoms: C_2  and  C_3
REMARK    2  A    between atoms: C_3  and  N_4
REMARK    3  A    between atoms: C_6  and  S_7
REMARK    4  A    between atoms: S_7  and  C_10
REMARK    5  A    between atoms: N_25  and  C_26
REMARK                            x       y       z     vdW  Elec       q    Type
REMARK                         _______ _______ _______ _____ _____    ______ ____
ROOT
ATOM      1  N   UNL     1       2.562   5.906  18.198  0.00  0.00    +0.000 N 
ATOM      2  C   UNL     1       3.815   6.125  17.626  0.00  0.00    +0.000 A 
ATOM      3  C   UNL     1       4.933   5.422  17.873  0.00  0.00    +0.000 A 
ATOM      4  C   UNL     1       4.862   4.336  18.851  0.00  0.00    +0.000 A 
ATOM      5  O   UNL     1       5.829   3.638  19.132  0.00  0.00    +0.000 OA
ATOM      6  C   UNL     1       3.549   4.087  19.502  0.00  0.00    +0.000 A 
ATOM      7  C   UNL     1       3.475   3.066  20.462  0.00  0.00    +0.000 A 
ATOM      8  C   UNL     1       2.277   2.814  21.115  0.00  0.00    +0.000 A 
ATOM      9  C   UNL     1       1.150   3.565  20.787  0.00  0.00    +0.000 A 
ATOM     10  C   UNL     1       1.224   4.571  19.819  0.00  0.00    +0.000 A 
ATOM     11  C   UNL     1       2.428   4.878  19.166  0.00  0.00    +0.000 A 
ENDROOT
BRANCH   3  12
ATOM     12  S   UNL     1       6.426   5.913  17.167  0.00  0.00    +0.000 S 
ATOM     13  O   UNL     1       6.395   7.345  16.917  0.00  0.00    +0.000 OA
ATOM     14  O   UNL     1       7.513   5.353  17.951  0.00  0.00    +0.000 OA
BRANCH  12  15
ATOM     15  C   UNL     1       6.484   5.159  15.551  0.00  0.00    +0.000 A 
ATOM     16  C   UNL     1       5.493   4.237  15.191  0.00  0.00    +0.000 A 
ATOM     17  C   UNL     1       5.570   3.597  13.951  0.00  0.00    +0.000 A 
ATOM     18  C   UNL     1       6.618   3.893  13.079  0.00  0.00    +0.000 A 
ATOM     19 CL   UNL     1       6.724   3.074  11.568  0.00  0.00    +0.000 Cl
ATOM     20  C   UNL     1       7.584   4.838  13.423  0.00  0.00    +0.000 A 
ATOM     21  C   UNL     1       7.518   5.479  14.663  0.00  0.00    +0.000 A 
ENDBRANCH  12  15
ENDBRANCH   3  12
BRANCH   1  22
ATOM     22  C   UNL     1       1.488   6.934  18.058  0.00  0.00    +0.000 C 
BRANCH  22  24
ATOM     23  O   UNL     1       2.198   8.117  20.020  0.00  0.00    +0.000 OA
ATOM     24  C   UNL     1       1.715   8.196  18.890  0.00  0.00    +0.000 C 
ATOM     25  N   UNL     1       1.290   9.372  18.307  0.00  0.00    +0.000 N 
ATOM     26  H   UNL     1       0.574   9.274  17.597  0.00  0.00    +0.000 HD
BRANCH  25  27
ATOM     27  C   UNL     1       1.476  10.639  18.884  0.00  0.00    +0.000 A 
ATOM     28  C   UNL     1       2.226  11.648  18.243  0.00  0.00    +0.000 A 
ATOM     29  C   UNL     1       2.314  12.932  18.798  0.00  0.00    +0.000 A 
ATOM     30  C   UNL     1       1.656  13.156  19.985  0.00  0.00    +0.000 A 
ATOM     31  C   UNL     1       0.954  12.157  20.625  0.00  0.00    +0.000 A 
ATOM     32  C   UNL     1       0.830  10.894  20.095  0.00  0.00    +0.000 A 
ATOM     33  O   UNL     1       0.387  12.582  21.785  0.00  0.00    +0.000 OA
ATOM     34  C   UNL     1       0.571  14.005  21.637  0.00  0.00    +0.000 C 
ATOM     35  O   UNL     1       1.569  14.341  20.651  0.00  0.00    +0.000 OA
ENDBRANCH  25  27
ENDBRANCH  22  24
ENDBRANCH   1  22
TORSDOF 5
ENDMDL
MODEL 7
REMARK VINA RESULT:      -8.1      3.955      9.231
REMARK  Name = 
REMARK  5 active torsions:
REMARK  status: ('A' for Active; 'I' for Inactive)
REMARK    1  A    between atoms: C_2  and  C_3
REMARK    2  A    between atoms: C_3  and  N_4
REMARK    3  A    between atoms: C_6  and  S_7
REMARK    4  A    between atoms: S_7  and  C_10
REMARK    5  A    between atoms: N_25  and  C_26
REMARK                            x       y       z     vdW  Elec       q    Type
REMARK                         _______ _______ _______ _____ _____    ______ ____
ROOT
ATOM      1  N   UNL     1       2.995   5.981  18.915  0.00  0.00    +0.000 N 
ATOM      2  C   UNL     1       4.097   6.099  18.070  0.00  0.00    +0.000 A 
ATOM      3  C   UNL     1       4.615   5.126  17.301  0.00  0.00    +0.000 A 
ATOM      4  C   UNL     1       3.997   3.801  17.358  0.00  0.00    +0.000 A 
ATOM      5  O   UNL     1       4.397   2.858  16.685  0.00  0.00    +0.000 OA
ATOM      6  C   UNL     1       2.834   3.627  18.267  0.00  0.00    +0.000 A 
ATOM      7  C   UNL     1       2.250   2.354  18.351  0.00  0.00    +0.000 A 
ATOM      8  C   UNL     1       1.178   2.138  19.205  0.00  0.00    +0.000 A 
ATOM      9  C   UNL     1       0.676   3.201  19.953  0.00  0.00    +0.000 A 
ATOM     10  C   UNL     1       1.250   4.472  19.854  0.00  0.00    +0.000 A 
ATOM     11  C   UNL     1       2.358   4.718  19.029  0.00  0.00    +0.000 A 
ENDROOT
BRANCH   3  12
ATOM     12  S   UNL     1       6.060   5.417  16.410  0.00  0.00    +0.000 S 
ATOM     13  O   UNL     1       6.910   4.237  16.467  0.00  0.00    +0.000 OA
ATOM     14  O   UNL     1       5.702   5.970  15.116  0.00  0.00    +0.000 OA
BRANCH  12  15
ATOM     15  C   UNL     1       6.951   6.676  17.306  0.00  0.00    +0.000 A 
ATOM     16  C   UNL     1       6.861   8.009  16.885  0.00  0.00    +0.000 A 
ATOM     17  C   UNL     1       7.606   8.989  17.545  0.00  0.00    +0.000 A 
ATOM     18  C   UNL     1       8.418   8.638  18.624  0.00  0.00    +0.000 A 
ATOM     19 CL   UNL     1       9.359   9.846  19.409  0.00  0.00    +0.000 Cl
ATOM     20  C   UNL     1       8.479   7.316  19.067  0.00  0.00    +0.000 A 
ATOM     21  C   UNL     1       7.740   6.328  18.409  0.00  0.00    +0.000 A 
ENDBRANCH  12  15
ENDBRANCH   3  12
BRANCH   1  22
ATOM     22  C   UNL     1       2.709   7.045  19.922  0.00  0.00    +0.000 C 
BRANCH  22  24
ATOM     23  O   UNL     1       1.866   8.501  18.213  0.00  0.00    +0.000 OA
ATOM     24  C   UNL     1       1.830   8.183  19.401  0.00  0.00    +0.000 C 
ATOM     25  N   UNL     1       1.074   8.829  20.356  0.00  0.00    +0.000 N 
ATOM     26  H   UNL     1       1.416   8.758  21.308  0.00  0.00    +0.000 HD
BRANCH  25  27
ATOM     27  C   UNL     1       0.154   9.849  20.062  0.00  0.00    +0.000 A 
ATOM     28  C   UNL     1      -0.432   9.980  18.785  0.00  0.00    +0.000 A 
ATOM     29  C   UNL     1      -1.417  10.948  18.549  0.00  0.00    +0.000 A 
ATOM     30  C   UNL     1      -1.772  11.761  19.600  0.00  0.00    +0.000 A 
ATOM     31  C   UNL     1      -1.171  11.653  20.835  0.00  0.00    +0.000 A 
ATOM     32  C   UNL     1      -0.218  10.698  21.105  0.00  0.00    +0.000 A 
ATOM     33  O   UNL     1      -1.657  12.553  21.730  0.00  0.00    +0.000 OA
ATOM     34  C   UNL     1      -2.811  13.021  21.001  0.00  0.00    +0.000 C 
ATOM     35  O   UNL     1      -2.743  12.717  19.592  0.00  0.00    +0.000 OA
ENDBRANCH  25  27
ENDBRANCH  22  24
ENDBRANCH   1  22
TORSDOF 5
ENDMDL
MODEL 8
REMARK VINA RESULT:      -8.0      4.595      9.977
REMARK  Name = 
REMARK  5 active torsions:
REMARK  status: ('A' for Active; 'I' for Inactive)
REMARK    1  A    between atoms: C_2  and  C_3
REMARK    2  A    between atoms: C_3  and  N_4
REMARK    3  A    between atoms: C_6  and  S_7
REMARK    4  A    between atoms: S_7  and  C_10
REMARK    5  A    between atoms: N_25  and  C_26
REMARK                            x       y       z     vdW  Elec       q    Type
REMARK                         _______ _______ _______ _____ _____    ______ ____
ROOT
ATOM      1  N   UNL     1       2.607   5.944  18.102  0.00  0.00    +0.000 N 
ATOM      2  C   UNL     1       3.864   6.150  17.536  0.00  0.00    +0.000 A 
ATOM      3  C   UNL     1       4.986   5.469  17.824  0.00  0.00    +0.000 A 
ATOM      4  C   UNL     1       4.913   4.424  18.846  0.00  0.00    +0.000 A 
ATOM      5  O   UNL     1       5.883   3.747  19.166  0.00  0.00    +0.000 OA
ATOM      6  C   UNL     1       3.595   4.190  19.492  0.00  0.00    +0.000 A 
ATOM      7  C   UNL     1       3.519   3.209  20.493  0.00  0.00    +0.000 A 
ATOM      8  C   UNL     1       2.316   2.973  21.142  0.00  0.00    +0.000 A 
ATOM      9  C   UNL     1       1.186   3.699  20.771  0.00  0.00    +0.000 A 
ATOM     10  C   UNL     1       1.263   4.665  19.762  0.00  0.00    +0.000 A 
ATOM     11  C   UNL     1       2.470   4.956  19.111  0.00  0.00    +0.000 A 
ENDROOT
BRANCH   3  12
ATOM     12  S   UNL     1       6.482   5.943  17.115  0.00  0.00    +0.000 S 
ATOM     13  O   UNL     1       6.462   7.375  16.855  0.00  0.00    +0.000 OA
ATOM     14  O   UNL     1       7.565   5.382  17.904  0.00  0.00    +0.000 OA
BRANCH  12  15
ATOM     15  C   UNL     1       6.535   5.177  15.505  0.00  0.00    +0.000 A 
ATOM     16  C   UNL     1       5.591   4.194  15.184  0.00  0.00    +0.000 A 
ATOM     17  C   UNL     1       5.667   3.547  13.948  0.00  0.00    +0.000 A 
ATOM     18  C   UNL     1       6.668   3.895  13.041  0.00  0.00    +0.000 A 
ATOM     19 CL   UNL     1       6.776   3.068  11.535  0.00  0.00    +0.000 Cl
ATOM     20  C   UNL     1       7.587   4.900  13.347  0.00  0.00    +0.000 A 
ATOM     21  C   UNL     1       7.520   5.549  14.583  0.00  0.00    +0.000 A 
ENDBRANCH  12  15
ENDBRANCH   3  12
BRANCH   1  22
ATOM     22  C   UNL     1       1.526   6.955  17.908  0.00  0.00    +0.000 C 
BRANCH  22  24
ATOM     23  O   UNL     1       2.180   8.177  19.865  0.00  0.00    +0.000 OA
ATOM     24  C   UNL     1       1.703   8.230  18.732  0.00  0.00    +0.000 C 
ATOM     25  N   UNL     1       1.242   9.386  18.137  0.00  0.00    +0.000 N 
ATOM     26  H   UNL     1       0.535   9.259  17.422  0.00  0.00    +0.000 HD
BRANCH  25  27
ATOM     27  C   UNL     1       1.381  10.663  18.705  0.00  0.00    +0.000 A 
ATOM     28  C   UNL     1       0.718  11.025  19.898  0.00  0.00    +0.000 A 
ATOM     29  C   UNL     1       0.950  12.272  20.492  0.00  0.00    +0.000 A 
ATOM     30  C   UNL     1       1.831  13.121  19.862  0.00  0.00    +0.000 A 
ATOM     31  C   UNL     1       2.447  12.777  18.679  0.00  0.00    +0.000 A 
ATOM     32  C   UNL     1       2.258  11.552  18.083  0.00  0.00    +0.000 A 
ATOM     33  O   UNL     1       3.270  13.756  18.217  0.00  0.00    +0.000 OA
ATOM     34  C   UNL     1       3.313  14.605  19.383  0.00  0.00    +0.000 C 
ATOM     35  O   UNL     1       2.234  14.344  20.305  0.00  0.00    +0.000 OA
ENDBRANCH  25  27
ENDBRANCH  22  24
ENDBRANCH   1  22
TORSDOF 5
ENDMDL
MODEL 9
REMARK VINA RESULT:      -8.0      2.356      2.881
REMARK  Name = 
REMARK  5 active torsions:
REMARK  status: ('A' for Active; 'I' for Inactive)
REMARK    1  A    between atoms: C_2  and  C_3
REMARK    2  A    between atoms: C_3  and  N_4
REMARK    3  A    between atoms: C_6  and  S_7
REMARK    4  A    between atoms: S_7  and  C_10
REMARK    5  A    between atoms: N_25  and  C_26
REMARK                            x       y       z     vdW  Elec       q    Type
REMARK                         _______ _______ _______ _____ _____    ______ ____
ROOT
ATOM      1  N   UNL     1       0.709  10.763  18.684  0.00  0.00    +0.000 N 
ATOM      2  C   UNL     1       1.100  11.821  19.504  0.00  0.00    +0.000 A 
ATOM      3  C   UNL     1       0.310  12.811  19.953  0.00  0.00    +0.000 A 
ATOM      4  C   UNL     1      -1.091  12.818  19.534  0.00  0.00    +0.000 A 
ATOM      5  O   UNL     1      -1.885  13.676  19.901  0.00  0.00    +0.000 OA
ATOM      6  C   UNL     1      -1.543  11.720  18.638  0.00  0.00    +0.000 A 
ATOM      7  C   UNL     1      -2.878  11.731  18.208  0.00  0.00    +0.000 A 
ATOM      8  C   UNL     1      -3.338  10.741  17.350  0.00  0.00    +0.000 A 
ATOM      9  C   UNL     1      -2.469   9.729  16.948  0.00  0.00    +0.000 A 
ATOM     10  C   UNL     1      -1.143   9.713  17.393  0.00  0.00    +0.000 A 
ATOM     11  C   UNL     1      -0.635  10.718  18.229  0.00  0.00    +0.000 A 
ENDROOT
BRANCH   3  12
ATOM     12  S   UNL     1       0.994  14.108  20.858  0.00  0.00    +0.000 S 
ATOM     13  O   UNL     1       2.146  13.624  21.603  0.00  0.00    +0.000 OA
ATOM     14  O   UNL     1       1.149  15.253  19.978  0.00  0.00    +0.000 OA
BRANCH  12  15
ATOM     15  C   UNL     1      -0.215  14.541  22.097  0.00  0.00    +0.000 A 
ATOM     16  C   UNL     1      -0.627  15.874  22.212  0.00  0.00    +0.000 A 
ATOM     17  C   UNL     1      -1.526  16.228  23.222  0.00  0.00    +0.000 A 
ATOM     18  C   UNL     1      -2.017  15.254  24.091  0.00  0.00    +0.000 A 
ATOM     19 CL   UNL     1      -3.096  15.705  25.353  0.00  0.00    +0.000 Cl
ATOM     20  C   UNL     1      -1.633  13.920  23.952  0.00  0.00    +0.000 A 
ATOM     21  C   UNL     1      -0.731  13.557  22.948  0.00  0.00    +0.000 A 
ENDBRANCH  12  15
ENDBRANCH   3  12
BRANCH   1  22
ATOM     22  C   UNL     1       1.740   9.906  18.029  0.00  0.00    +0.000 C 
BRANCH  22  24
ATOM     23  O   UNL     1       1.519   8.330  19.824  0.00  0.00    +0.000 OA
ATOM     24  C   UNL     1       1.920   8.533  18.678  0.00  0.00    +0.000 C 
ATOM     25  N   UNL     1       2.596   7.604  17.916  0.00  0.00    +0.000 N 
ATOM     26  H   UNL     1       3.205   7.984  17.200  0.00  0.00    +0.000 HD
BRANCH  25  27
ATOM     27  C   UNL     1       2.797   6.271  18.310  0.00  0.00    +0.000 A 
ATOM     28  C   UNL     1       3.888   5.888  19.119  0.00  0.00    +0.000 A 
ATOM     29  C   UNL     1       4.009   4.569  19.575  0.00  0.00    +0.000 A 
ATOM     30  C   UNL     1       3.037   3.674  19.193  0.00  0.00    +0.000 A 
ATOM     31  C   UNL     1       1.993   4.044  18.374  0.00  0.00    +0.000 A 
ATOM     32  C   UNL     1       1.834   5.336  17.928  0.00  0.00    +0.000 A 
ATOM     33  O   UNL     1       1.149   3.012  18.108  0.00  0.00    +0.000 OA
ATOM     34  C   UNL     1       1.624   2.056  19.079  0.00  0.00    +0.000 C 
ATOM     35  O   UNL     1       2.941   2.370  19.575  0.00  0.00    +0.000 OA
ENDBRANCH  25  27
ENDBRANCH  22  24
ENDBRANCH   1  22
TORSDOF 5
ENDMDL
