MODEL 1
REMARK VINA RESULT:      -7.5      0.000      0.000
REMARK  Name = 
REMARK  5 active torsions:
REMARK  status: ('A' for Active; 'I' for Inactive)
REMARK    1  A    between atoms: C_1  and  C_2
REMARK    2  A    between atoms: C_2  and  C_3
REMARK    3  A    between atoms: C_6  and  C_7
REMARK    4  A    between atoms: C_8  and  C_9
REMARK    5  A    between atoms: C_8  and  C_11
REMARK                            x       y       z     vdW  Elec       q    Type
REMARK                         _______ _______ _______ _____ _____    ______ ____
ROOT
ATOM      1  C   UNL     1       2.638   7.399  18.561  0.00  0.00    +0.000 C 
ATOM      2  C   UNL     1       2.083   7.128  19.760  0.00  0.00    +0.000 C 
ENDROOT
BRANCH   2   3
ATOM      3  C   UNL     1       1.470   8.150  20.546  0.00  0.00    +0.000 A 
ATOM      4  N   UNL     1       1.131   8.185  21.825  0.00  0.00    +0.000 NA
ATOM      5  C   UNL     1       0.359   9.312  21.984  0.00  0.00    +0.000 A 
ATOM      6  C   UNL     1      -0.328   9.786  23.110  0.00  0.00    +0.000 A 
ATOM      7  C   UNL     1      -1.108  10.942  22.989  0.00  0.00    +0.000 A 
ATOM      8  C   UNL     1      -1.191  11.628  21.773  0.00  0.00    +0.000 A 
ATOM      9  C   UNL     1      -0.493  11.186  20.644  0.00  0.00    +0.000 A 
ATOM     10  C   UNL     1       0.265  10.023  20.795  0.00  0.00    +0.000 A 
ATOM     11  N   UNL     1       1.031   9.303  19.916  0.00  0.00    +0.000 N 
ATOM     12  H   UNL     1       1.156   9.544  18.944  0.00  0.00    +0.000 HD
ENDBRANCH   2   3
BRANCH   1  16
ATOM     13  C   UNL     1       5.105   4.620  16.391  0.00  0.00    +0.000 A 
ATOM     14  C   UNL     1       3.883   4.209  16.936  0.00  0.00    +0.000 A 
ATOM     15  C   UNL     1       3.074   5.112  17.641  0.00  0.00    +0.000 A 
ATOM     16  C   UNL     1       3.473   6.442  17.809  0.00  0.00    +0.000 A 
ATOM     17  C   UNL     1       4.698   6.852  17.271  0.00  0.00    +0.000 A 
ATOM     18  C   UNL     1       5.510   5.947  16.573  0.00  0.00    +0.000 A 
BRANCH  13  20
ATOM     19  C   UNL     1       5.971   4.105  14.103  0.00  0.00    +0.000 C 
ATOM     20  C   UNL     1       5.946   3.677  15.564  0.00  0.00    +0.000 C 
ENDBRANCH  13  20
ENDBRANCH   1  16
BRANCH   2  21
ATOM     21  C   UNL     1       2.323   5.777  20.414  0.00  0.00    +0.000 C 
ATOM     22  N   UNL     1       2.523   4.656  20.956  0.00  0.00    +0.000 NA
ENDBRANCH   2  21
TORSDOF 4
ENDMDL
MODEL 2
REMARK VINA RESULT:      -7.4      0.072      1.054
REMARK  Name = 
REMARK  5 active torsions:
REMARK  status: ('A' for Active; 'I' for Inactive)
REMARK    1  A    between atoms: C_1  and  C_2
REMARK    2  A    between atoms: C_2  and  C_3
REMARK    3  A    between atoms: C_6  and  C_7
REMARK    4  A    between atoms: C_8  and  C_9
REMARK    5  A    between atoms: C_8  and  C_11
REMARK                            x       y       z     vdW  Elec       q    Type
REMARK                         _______ _______ _______ _____ _____    ______ ____
ROOT
ATOM      1  C   UNL     1       2.684   7.442  18.538  0.00  0.00    +0.000 C 
ATOM      2  C   UNL     1       2.110   7.148  19.723  0.00  0.00    +0.000 C 
ENDROOT
BRANCH   2   3
ATOM      3  C   UNL     1       1.488   8.156  20.520  0.00  0.00    +0.000 A 
ATOM      4  N   UNL     1       1.140   8.169  21.797  0.00  0.00    +0.000 NA
ATOM      5  C   UNL     1       0.363   9.291  21.968  0.00  0.00    +0.000 A 
ATOM      6  C   UNL     1      -0.334   9.745  23.097  0.00  0.00    +0.000 A 
ATOM      7  C   UNL     1      -1.116  10.901  22.988  0.00  0.00    +0.000 A 
ATOM      8  C   UNL     1      -1.192  11.605  21.784  0.00  0.00    +0.000 A 
ATOM      9  C   UNL     1      -0.484  11.184  20.653  0.00  0.00    +0.000 A 
ATOM     10  C   UNL     1       0.276  10.021  20.790  0.00  0.00    +0.000 A 
ATOM     11  N   UNL     1       1.050   9.317  19.906  0.00  0.00    +0.000 N 
ATOM     12  H   UNL     1       1.182   9.574  18.938  0.00  0.00    +0.000 HD
ENDBRANCH   2   3
BRANCH   1  16
ATOM     13  C   UNL     1       5.112   4.680  16.302  0.00  0.00    +0.000 A 
ATOM     14  C   UNL     1       5.516   6.010  16.466  0.00  0.00    +0.000 A 
ATOM     15  C   UNL     1       4.731   6.913  17.197  0.00  0.00    +0.000 A 
ATOM     16  C   UNL     1       3.527   6.499  17.778  0.00  0.00    +0.000 A 
ATOM     17  C   UNL     1       3.118   5.171  17.608  0.00  0.00    +0.000 A 
ATOM     18  C   UNL     1       3.900   4.271  16.872  0.00  0.00    +0.000 A 
BRANCH  13  20
ATOM     19  C   UNL     1       6.049   3.981  14.093  0.00  0.00    +0.000 C 
ATOM     20  C   UNL     1       5.988   3.681  15.585  0.00  0.00    +0.000 C 
ENDBRANCH  13  20
ENDBRANCH   1  16
BRANCH   2  21
ATOM     21  C   UNL     1       2.336   5.783  20.352  0.00  0.00    +0.000 C 
ATOM     22  N   UNL     1       2.523   4.650  20.873  0.00  0.00    +0.000 NA
ENDBRANCH   2  21
TORSDOF 4
ENDMDL
MODEL 3
REMARK VINA RESULT:      -7.2      2.621      8.704
REMARK  Name = 
REMARK  5 active torsions:
REMARK  status: ('A' for Active; 'I' for Inactive)
REMARK    1  A    between atoms: C_1  and  C_2
REMARK    2  A    between atoms: C_2  and  C_3
REMARK    3  A    between atoms: C_6  and  C_7
REMARK    4  A    between atoms: C_8  and  C_9
REMARK    5  A    between atoms: C_8  and  C_11
REMARK                            x       y       z     vdW  Elec       q    Type
REMARK                         _______ _______ _______ _____ _____    ______ ____
ROOT
ATOM      1  C   UNL     1       4.016   6.621  16.984  0.00  0.00    +0.000 C 
ATOM      2  C   UNL     1       5.194   5.973  17.089  0.00  0.00    +0.000 C 
ENDROOT
BRANCH   2   3
ATOM      3  C   UNL     1       5.841   5.413  15.946  0.00  0.00    +0.000 A 
ATOM      4  N   UNL     1       6.946   5.764  15.307  0.00  0.00    +0.000 NA
ATOM      5  C   UNL     1       6.960   5.034  14.142  0.00  0.00    +0.000 A 
ATOM      6  C   UNL     1       7.853   5.072  13.061  0.00  0.00    +0.000 A 
ATOM      7  C   UNL     1       7.603   4.261  11.949  0.00  0.00    +0.000 A 
ATOM      8  C   UNL     1       6.494   3.411  11.915  0.00  0.00    +0.000 A 
ATOM      9  C   UNL     1       5.605   3.338  12.993  0.00  0.00    +0.000 A 
ATOM     10  C   UNL     1       5.875   4.170  14.081  0.00  0.00    +0.000 A 
ATOM     11  N   UNL     1       5.218   4.381  15.265  0.00  0.00    +0.000 N 
ATOM     12  H   UNL     1       4.361   3.915  15.528  0.00  0.00    +0.000 HD
ENDBRANCH   2   3
BRANCH   1  16
ATOM     13  C   UNL     1       1.597   7.810  20.339  0.00  0.00    +0.000 A 
ATOM     14  C   UNL     1       2.126   6.517  20.267  0.00  0.00    +0.000 A 
ATOM     15  C   UNL     1       2.918   6.125  19.178  0.00  0.00    +0.000 A 
ATOM     16  C   UNL     1       3.196   7.024  18.143  0.00  0.00    +0.000 A 
ATOM     17  C   UNL     1       2.661   8.316  18.209  0.00  0.00    +0.000 A 
ATOM     18  C   UNL     1       1.864   8.704  19.294  0.00  0.00    +0.000 A 
BRANCH  13  20
ATOM     19  C   UNL     1      -0.168   9.373  21.172  0.00  0.00    +0.000 C 
ATOM     20  C   UNL     1       0.809   8.265  21.544  0.00  0.00    +0.000 C 
ENDBRANCH  13  20
ENDBRANCH   1  16
BRANCH   2  21
ATOM     21  C   UNL     1       5.733   5.604  18.462  0.00  0.00    +0.000 C 
ATOM     22  N   UNL     1       6.180   5.298  19.600  0.00  0.00    +0.000 NA
ENDBRANCH   2  21
TORSDOF 4
ENDMDL
MODEL 4
REMARK VINA RESULT:      -7.1      2.624      8.747
REMARK  Name = 
REMARK  5 active torsions:
REMARK  status: ('A' for Active; 'I' for Inactive)
REMARK    1  A    between atoms: C_1  and  C_2
REMARK    2  A    between atoms: C_2  and  C_3
REMARK    3  A    between atoms: C_6  and  C_7
REMARK    4  A    between atoms: C_8  and  C_9
REMARK    5  A    between atoms: C_8  and  C_11
REMARK                            x       y       z     vdW  Elec       q    Type
REMARK                         _______ _______ _______ _____ _____    ______ ____
ROOT
ATOM      1  C   UNL     1       3.989   6.545  16.979  0.00  0.00    +0.000 C 
ATOM      2  C   UNL     1       5.184   5.928  17.081  0.00  0.00    +0.000 C 
ENDROOT
BRANCH   2   3
ATOM      3  C   UNL     1       5.840   5.381  15.937  0.00  0.00    +0.000 A 
ATOM      4  N   UNL     1       6.951   5.740  15.312  0.00  0.00    +0.000 NA
ATOM      5  C   UNL     1       6.976   5.024  14.138  0.00  0.00    +0.000 A 
ATOM      6  C   UNL     1       7.878   5.075  13.066  0.00  0.00    +0.000 A 
ATOM      7  C   UNL     1       7.637   4.277  11.941  0.00  0.00    +0.000 A 
ATOM      8  C   UNL     1       6.528   3.428  11.888  0.00  0.00    +0.000 A 
ATOM      9  C   UNL     1       5.630   3.343  12.957  0.00  0.00    +0.000 A 
ATOM     10  C   UNL     1       5.890   4.161  14.058  0.00  0.00    +0.000 A 
ATOM     11  N   UNL     1       5.223   4.358  15.238  0.00  0.00    +0.000 N 
ATOM     12  H   UNL     1       4.363   3.890  15.488  0.00  0.00    +0.000 HD
ENDBRANCH   2   3
BRANCH   1  16
ATOM     13  C   UNL     1       1.610   7.654  20.390  0.00  0.00    +0.000 A 
ATOM     14  C   UNL     1       1.880   8.584  19.379  0.00  0.00    +0.000 A 
ATOM     15  C   UNL     1       2.651   8.226  18.264  0.00  0.00    +0.000 A 
ATOM     16  C   UNL     1       3.163   6.930  18.140  0.00  0.00    +0.000 A 
ATOM     17  C   UNL     1       2.901   6.002  19.154  0.00  0.00    +0.000 A 
ATOM     18  C   UNL     1       2.136   6.362  20.271  0.00  0.00    +0.000 A 
BRANCH  13  20
ATOM     19  C   UNL     1      -0.005   9.324  21.311  0.00  0.00    +0.000 C 
ATOM     20  C   UNL     1       0.717   8.006  21.555  0.00  0.00    +0.000 C 
ENDBRANCH  13  20
ENDBRANCH   1  16
BRANCH   2  21
ATOM     21  C   UNL     1       5.738   5.577  18.452  0.00  0.00    +0.000 C 
ATOM     22  N   UNL     1       6.197   5.288  19.590  0.00  0.00    +0.000 NA
ENDBRANCH   2  21
TORSDOF 4
ENDMDL
MODEL 5
REMARK VINA RESULT:      -7.1      2.497      7.585
REMARK  Name = 
REMARK  5 active torsions:
REMARK  status: ('A' for Active; 'I' for Inactive)
REMARK    1  A    between atoms: C_1  and  C_2
REMARK    2  A    between atoms: C_2  and  C_3
REMARK    3  A    between atoms: C_6  and  C_7
REMARK    4  A    between atoms: C_8  and  C_9
REMARK    5  A    between atoms: C_8  and  C_11
REMARK                            x       y       z     vdW  Elec       q    Type
REMARK                         _______ _______ _______ _____ _____    ______ ____
ROOT
ATOM      1  C   UNL     1       1.871   8.729  18.158  0.00  0.00    +0.000 C 
ATOM      2  C   UNL     1       2.029   7.864  19.182  0.00  0.00    +0.000 C 
ENDROOT
BRANCH   2   3
ATOM      3  C   UNL     1       2.351   6.492  18.954  0.00  0.00    +0.000 A 
ATOM      4  N   UNL     1       2.852   5.876  17.894  0.00  0.00    +0.000 NA
ATOM      5  C   UNL     1       2.724   4.529  18.141  0.00  0.00    +0.000 A 
ATOM      6  C   UNL     1       3.015   3.428  17.323  0.00  0.00    +0.000 A 
ATOM      7  C   UNL     1       2.727   2.142  17.794  0.00  0.00    +0.000 A 
ATOM      8  C   UNL     1       2.176   1.949  19.064  0.00  0.00    +0.000 A 
ATOM      9  C   UNL     1       1.902   3.032  19.906  0.00  0.00    +0.000 A 
ATOM     10  C   UNL     1       2.188   4.302  19.402  0.00  0.00    +0.000 A 
ATOM     11  N   UNL     1       2.022   5.559  19.922  0.00  0.00    +0.000 N 
ATOM     12  H   UNL     1       1.627   5.748  20.832  0.00  0.00    +0.000 HD
ENDBRANCH   2   3
BRANCH   1  16
ATOM     13  C   UNL     1       0.261  12.690  18.644  0.00  0.00    +0.000 A 
ATOM     14  C   UNL     1       1.642  12.494  18.530  0.00  0.00    +0.000 A 
ATOM     15  C   UNL     1       2.171  11.205  18.368  0.00  0.00    +0.000 A 
ATOM     16  C   UNL     1       1.326  10.092  18.314  0.00  0.00    +0.000 A 
ATOM     17  C   UNL     1      -0.054  10.286  18.435  0.00  0.00    +0.000 A 
ATOM     18  C   UNL     1      -0.582  11.573  18.604  0.00  0.00    +0.000 A 
BRANCH  13  20
ATOM     19  C   UNL     1       0.771  15.121  18.922  0.00  0.00    +0.000 C 
ATOM     20  C   UNL     1      -0.324  14.079  18.740  0.00  0.00    +0.000 C 
ENDBRANCH  13  20
ENDBRANCH   1  16
BRANCH   2  21
ATOM     21  C   UNL     1       1.618   8.274  20.586  0.00  0.00    +0.000 C 
ATOM     22  N   UNL     1       1.278   8.613  21.752  0.00  0.00    +0.000 NA
ENDBRANCH   2  21
TORSDOF 4
ENDMDL
MODEL 6
REMARK VINA RESULT:      -7.0      7.420     10.178
REMARK  Name = 
REMARK  5 active torsions:
REMARK  status: ('A' for Active; 'I' for Inactive)
REMARK    1  A    between atoms: C_1  and  C_2
REMARK    2  A    between atoms: C_2  and  C_3
REMARK    3  A    between atoms: C_6  and  C_7
REMARK    4  A    between atoms: C_8  and  C_9
REMARK    5  A    between atoms: C_8  and  C_11
REMARK                            x       y       z     vdW  Elec       q    Type
REMARK                         _______ _______ _______ _____ _____    ______ ____
ROOT
ATOM      1  C   UNL     1       9.795  10.575  19.274  0.00  0.00    +0.000 C 
ATOM      2  C   UNL     1       8.745  10.370  18.453  0.00  0.00    +0.000 C 
ENDROOT
BRANCH   2   3
ATOM      3  C   UNL     1       8.310   9.052  18.115  0.00  0.00    +0.000 A 
ATOM      4  N   UNL     1       7.495   8.617  17.167  0.00  0.00    +0.000 NA
ATOM      5  C   UNL     1       7.243   7.297  17.458  0.00  0.00    +0.000 A 
ATOM      6  C   UNL     1       6.385   6.380  16.834  0.00  0.00    +0.000 A 
ATOM      7  C   UNL     1       6.260   5.095  17.375  0.00  0.00    +0.000 A 
ATOM      8  C   UNL     1       6.988   4.719  18.507  0.00  0.00    +0.000 A 
ATOM      9  C   UNL     1       7.870   5.609  19.129  0.00  0.00    +0.000 A 
ATOM     10  C   UNL     1       7.961   6.887  18.574  0.00  0.00    +0.000 A 
ATOM     11  N   UNL     1       8.680   7.997  18.932  0.00  0.00    +0.000 N 
ATOM     12  H   UNL     1       9.297   8.040  19.730  0.00  0.00    +0.000 HD
ENDBRANCH   2   3
BRANCH   1  16
ATOM     13  C   UNL     1      11.632  14.425  19.846  0.00  0.00    +0.000 A 
ATOM     14  C   UNL     1      10.547  14.031  20.636  0.00  0.00    +0.000 A 
ATOM     15  C   UNL     1       9.947  12.777  20.456  0.00  0.00    +0.000 A 
ATOM     16  C   UNL     1      10.426  11.893  19.484  0.00  0.00    +0.000 A 
ATOM     17  C   UNL     1      11.507  12.289  18.687  0.00  0.00    +0.000 A 
ATOM     18  C   UNL     1      12.101  13.546  18.863  0.00  0.00    +0.000 A 
BRANCH  13  20
ATOM     19  C   UNL     1      12.033  16.730  18.966  0.00  0.00    +0.000 C 
ATOM     20  C   UNL     1      12.333  15.741  20.084  0.00  0.00    +0.000 C 
ENDBRANCH  13  20
ENDBRANCH   1  16
BRANCH   2  21
ATOM     21  C   UNL     1       8.161  11.534  17.669  0.00  0.00    +0.000 C 
ATOM     22  N   UNL     1       7.676  12.499  17.019  0.00  0.00    +0.000 NA
ENDBRANCH   2  21
TORSDOF 4
ENDMDL
MODEL 7
REMARK VINA RESULT:      -7.0      2.814      7.403
REMARK  Name = 
REMARK  5 active torsions:
REMARK  status: ('A' for Active; 'I' for Inactive)
REMARK    1  A    between atoms: C_1  and  C_2
REMARK    2  A    between atoms: C_2  and  C_3
REMARK    3  A    between atoms: C_6  and  C_7
REMARK    4  A    between atoms: C_8  and  C_9
REMARK    5  A    between atoms: C_8  and  C_11
REMARK                            x       y       z     vdW  Elec       q    Type
REMARK                         _______ _______ _______ _____ _____    ______ ____
ROOT
ATOM      1  C   UNL     1       1.578   9.036  18.635  0.00  0.00    +0.000 C 
ATOM      2  C   UNL     1       1.798   8.311  19.751  0.00  0.00    +0.000 C 
ENDROOT
BRANCH   2   3
ATOM      3  C   UNL     1       2.052   6.907  19.689  0.00  0.00    +0.000 A 
ATOM      4  N   UNL     1       2.366   6.120  18.672  0.00  0.00    +0.000 NA
ATOM      5  C   UNL     1       2.250   4.832  19.138  0.00  0.00    +0.000 A 
ATOM      6  C   UNL     1       2.385   3.610  18.464  0.00  0.00    +0.000 A 
ATOM      7  C   UNL     1       2.148   2.421  19.164  0.00  0.00    +0.000 A 
ATOM      8  C   UNL     1       1.801   2.443  20.518  0.00  0.00    +0.000 A 
ATOM      9  C   UNL     1       1.687   3.650  21.216  0.00  0.00    +0.000 A 
ATOM     10  C   UNL     1       1.915   4.818  20.486  0.00  0.00    +0.000 A 
ATOM     11  N   UNL     1       1.861   6.143  20.828  0.00  0.00    +0.000 N 
ATOM     12  H   UNL     1       1.619   6.482  21.748  0.00  0.00    +0.000 HD
ENDBRANCH   2   3
BRANCH   1  16
ATOM     13  C   UNL     1       0.194  13.111  18.634  0.00  0.00    +0.000 A 
ATOM     14  C   UNL     1      -0.716  12.052  18.719  0.00  0.00    +0.000 A 
ATOM     15  C   UNL     1      -0.270  10.723  18.723  0.00  0.00    +0.000 A 
ATOM     16  C   UNL     1       1.096  10.432  18.646  0.00  0.00    +0.000 A 
ATOM     17  C   UNL     1       2.007  11.490  18.552  0.00  0.00    +0.000 A 
ATOM     18  C   UNL     1       1.560  12.818  18.541  0.00  0.00    +0.000 A 
BRANCH  13  20
ATOM     19  C   UNL     1       0.904  15.489  18.935  0.00  0.00    +0.000 C 
ATOM     20  C   UNL     1      -0.270  14.546  18.707  0.00  0.00    +0.000 C 
ENDBRANCH  13  20
ENDBRANCH   1  16
BRANCH   2  21
ATOM     21  C   UNL     1       1.531   8.925  21.115  0.00  0.00    +0.000 C 
ATOM     22  N   UNL     1       1.309   9.434  22.247  0.00  0.00    +0.000 NA
ENDBRANCH   2  21
TORSDOF 4
ENDMDL
MODEL 8
REMARK VINA RESULT:      -7.0      2.590      7.617
REMARK  Name = 
REMARK  5 active torsions:
REMARK  status: ('A' for Active; 'I' for Inactive)
REMARK    1  A    between atoms: C_1  and  C_2
REMARK    2  A    between atoms: C_2  and  C_3
REMARK    3  A    between atoms: C_6  and  C_7
REMARK    4  A    between atoms: C_8  and  C_9
REMARK    5  A    between atoms: C_8  and  C_11
REMARK                            x       y       z     vdW  Elec       q    Type
REMARK                         _______ _______ _______ _____ _____    ______ ____
ROOT
ATOM      1  C   UNL     1       2.032   8.631  18.056  0.00  0.00    +0.000 C 
ATOM      2  C   UNL     1       2.185   7.716  19.036  0.00  0.00    +0.000 C 
ENDROOT
BRANCH   2   3
ATOM      3  C   UNL     1       2.597   6.380  18.749  0.00  0.00    +0.000 A 
ATOM      4  N   UNL     1       2.208   5.527  17.814  0.00  0.00    +0.000 NA
ATOM      5  C   UNL     1       2.753   4.312  18.156  0.00  0.00    +0.000 A 
ATOM      6  C   UNL     1       2.596   3.051  17.564  0.00  0.00    +0.000 A 
ATOM      7  C   UNL     1       3.217   1.945  18.156  0.00  0.00    +0.000 A 
ATOM      8  C   UNL     1       3.998   2.090  19.306  0.00  0.00    +0.000 A 
ATOM      9  C   UNL     1       4.188   3.343  19.898  0.00  0.00    +0.000 A 
ATOM     10  C   UNL     1       3.544   4.424  19.292  0.00  0.00    +0.000 A 
ATOM     11  N   UNL     1       3.483   5.755  19.610  0.00  0.00    +0.000 N 
ATOM     12  H   UNL     1       3.941   6.169  20.409  0.00  0.00    +0.000 HD
ENDBRANCH   2   3
BRANCH   1  16
ATOM     13  C   UNL     1       0.217  12.494  18.613  0.00  0.00    +0.000 A 
ATOM     14  C   UNL     1      -0.575  11.345  18.514  0.00  0.00    +0.000 A 
ATOM     15  C   UNL     1       0.012  10.083  18.336  0.00  0.00    +0.000 A 
ATOM     16  C   UNL     1       1.402   9.951  18.258  0.00  0.00    +0.000 A 
ATOM     17  C   UNL     1       2.195  11.101  18.349  0.00  0.00    +0.000 A 
ATOM     18  C   UNL     1       1.608  12.361  18.520  0.00  0.00    +0.000 A 
BRANCH  13  20
ATOM     19  C   UNL     1      -1.163  13.844  20.200  0.00  0.00    +0.000 C 
ATOM     20  C   UNL     1      -0.399  13.845  18.883  0.00  0.00    +0.000 C 
ENDBRANCH  13  20
ENDBRANCH   1  16
BRANCH   2  21
ATOM     21  C   UNL     1       1.679   8.019  20.436  0.00  0.00    +0.000 C 
ATOM     22  N   UNL     1       1.258   8.269  21.598  0.00  0.00    +0.000 NA
ENDBRANCH   2  21
TORSDOF 4
ENDMDL
MODEL 9
REMARK VINA RESULT:      -6.9      2.153      8.106
REMARK  Name = 
REMARK  5 active torsions:
REMARK  status: ('A' for Active; 'I' for Inactive)
REMARK    1  A    between atoms: C_1  and  C_2
REMARK    2  A    between atoms: C_2  and  C_3
REMARK    3  A    between atoms: C_6  and  C_7
REMARK    4  A    between atoms: C_8  and  C_9
REMARK    5  A    between atoms: C_8  and  C_11
REMARK                            x       y       z     vdW  Elec       q    Type
REMARK                         _______ _______ _______ _____ _____    ______ ____
ROOT
ATOM      1  C   UNL     1       1.432   9.332  17.907  0.00  0.00    +0.000 C 
ATOM      2  C   UNL     1       2.051   8.405  18.666  0.00  0.00    +0.000 C 
ENDROOT
BRANCH   2   3
ATOM      3  C   UNL     1       3.006   7.502  18.109  0.00  0.00    +0.000 A 
ATOM      4  N   UNL     1       3.963   7.686  17.213  0.00  0.00    +0.000 NA
ATOM      5  C   UNL     1       4.409   6.431  16.869  0.00  0.00    +0.000 A 
ATOM      6  C   UNL     1       5.351   6.037  15.908  0.00  0.00    +0.000 A 
ATOM      7  C   UNL     1       5.580   4.671  15.706  0.00  0.00    +0.000 A 
ATOM      8  C   UNL     1       4.899   3.710  16.459  0.00  0.00    +0.000 A 
ATOM      9  C   UNL     1       3.974   4.082  17.441  0.00  0.00    +0.000 A 
ATOM     10  C   UNL     1       3.759   5.451  17.608  0.00  0.00    +0.000 A 
ATOM     11  N   UNL     1       2.923   6.158  18.433  0.00  0.00    +0.000 N 
ATOM     12  H   UNL     1       2.286   5.735  19.092  0.00  0.00    +0.000 HD
ENDBRANCH   2   3
BRANCH   1  16
ATOM     13  C   UNL     1      -1.931  11.650  19.264  0.00  0.00    +0.000 A 
ATOM     14  C   UNL     1      -0.651  11.886  19.778  0.00  0.00    +0.000 A 
ATOM     15  C   UNL     1       0.448  11.136  19.337  0.00  0.00    +0.000 A 
ATOM     16  C   UNL     1       0.285  10.138  18.369  0.00  0.00    +0.000 A 
ATOM     17  C   UNL     1      -0.995   9.895  17.860  0.00  0.00    +0.000 A 
ATOM     18  C   UNL     1      -2.094  10.641  18.307  0.00  0.00    +0.000 A 
BRANCH  13  20
ATOM     19  C   UNL     1      -4.394  12.004  19.034  0.00  0.00    +0.000 C 
ATOM     20  C   UNL     1      -3.106  12.503  19.674  0.00  0.00    +0.000 C 
ENDBRANCH  13  20
ENDBRANCH   1  16
BRANCH   2  21
ATOM     21  C   UNL     1       1.559   8.136  20.079  0.00  0.00    +0.000 C 
ATOM     22  N   UNL     1       1.150   7.913  21.250  0.00  0.00    +0.000 NA
ENDBRANCH   2  21
TORSDOF 4
ENDMDL
