MODEL 1
REMARK VINA RESULT:      -6.6      0.000      0.000
REMARK  Name = 
REMARK  3 active torsions:
REMARK  status: ('A' for Active; 'I' for Inactive)
REMARK    1  A    between atoms: N_1  and  C_2
REMARK    2  A    between atoms: C_2  and  C_3
REMARK    3  A    between atoms: C_2  and  C_10
REMARK                            x       y       z     vdW  Elec       q    Type
REMARK                         _______ _______ _______ _____ _____    ______ ____
ROOT
ATOM      1  C   UNL     1       4.450   3.290  19.162  0.00  0.00    +0.000 C 
ENDROOT
BRANCH   1   2
ATOM      2  C   UNL     1       5.543   4.339  18.734  0.00  0.00    +0.000 C 
ATOM      3  O   UNL     1       6.247   4.906  19.584  0.00  0.00    +0.000 OA
ATOM      4  N   UNL     1       5.741   4.623  17.395  0.00  0.00    +0.000 N 
ATOM      5  C   UNL     1       6.827   5.498  16.982  0.00  0.00    +0.000 C 
ATOM      6  C   UNL     1       7.321   5.069  15.604  0.00  0.00    +0.000 C 
ATOM      7  S   UNL     1       6.026   4.014  14.898  0.00  0.00    +0.000 S 
ATOM      8  C   UNL     1       4.893   4.260  16.286  0.00  0.00    +0.000 C 
ENDBRANCH   1   2
BRANCH   1   9
ATOM      9  C   UNL     1       3.244   3.983  19.893  0.00  0.00    +0.000 C 
ATOM     10  C   UNL     1       2.335   4.796  18.941  0.00  0.00    +0.000 C 
ATOM     11  C   UNL     1       1.450   3.921  18.054  0.00  0.00    +0.000 C 
ATOM     12  C   UNL     1       0.604   2.953  18.872  0.00  0.00    +0.000 C 
ATOM     13  C   UNL     1       1.453   2.141  19.847  0.00  0.00    +0.000 C 
ATOM     14  C   UNL     1       2.330   3.043  20.715  0.00  0.00    +0.000 C 
ENDBRANCH   1   9
BRANCH   1  15
ATOM     15  N   UNL     1       5.102   2.304  20.050  0.00  0.00    +0.000 NA
ATOM     16  H   UNL     1       4.745   1.370  19.863  0.00  0.00    +0.000 HD
ATOM     17  H   UNL     1       4.863   2.523  21.019  0.00  0.00    +0.000 HD
ENDBRANCH   1  15
TORSDOF 3
ENDMDL
MODEL 2
REMARK VINA RESULT:      -6.2      2.432      2.796
REMARK  Name = 
REMARK  3 active torsions:
REMARK  status: ('A' for Active; 'I' for Inactive)
REMARK    1  A    between atoms: N_1  and  C_2
REMARK    2  A    between atoms: C_2  and  C_3
REMARK    3  A    between atoms: C_2  and  C_10
REMARK                            x       y       z     vdW  Elec       q    Type
REMARK                         _______ _______ _______ _____ _____    ______ ____
ROOT
ATOM      1  C   UNL     1       3.036   5.553  19.357  0.00  0.00    +0.000 C 
ENDROOT
BRANCH   1   2
ATOM      2  C   UNL     1       3.838   6.333  18.249  0.00  0.00    +0.000 C 
ATOM      3  O   UNL     1       3.279   7.191  17.548  0.00  0.00    +0.000 OA
ATOM      4  N   UNL     1       5.184   6.080  18.063  0.00  0.00    +0.000 N 
ATOM      5  C   UNL     1       5.960   6.879  17.127  0.00  0.00    +0.000 C 
ATOM      6  C   UNL     1       7.400   6.978  17.623  0.00  0.00    +0.000 C 
ATOM      7  S   UNL     1       7.611   5.662  18.854  0.00  0.00    +0.000 S 
ATOM      8  C   UNL     1       5.954   4.984  18.598  0.00  0.00    +0.000 C 
ENDBRANCH   1   2
BRANCH   1   9
ATOM      9  C   UNL     1       1.844   4.738  18.737  0.00  0.00    +0.000 C 
ATOM     10  C   UNL     1       2.259   3.867  17.527  0.00  0.00    +0.000 C 
ATOM     11  C   UNL     1       3.058   2.626  17.919  0.00  0.00    +0.000 C 
ATOM     12  C   UNL     1       2.318   1.771  18.940  0.00  0.00    +0.000 C 
ATOM     13  C   UNL     1       1.865   2.590  20.146  0.00  0.00    +0.000 C 
ATOM     14  C   UNL     1       1.073   3.827  19.722  0.00  0.00    +0.000 C 
ENDBRANCH   1   9
BRANCH   1  15
ATOM     15  N   UNL     1       2.540   6.546  20.332  0.00  0.00    +0.000 NA
ATOM     16  H   UNL     1       3.239   6.716  21.051  0.00  0.00    +0.000 HD
ATOM     17  H   UNL     1       1.718   6.164  20.804  0.00  0.00    +0.000 HD
ENDBRANCH   1  15
TORSDOF 3
ENDMDL
MODEL 3
REMARK VINA RESULT:      -6.1      2.703      5.499
REMARK  Name = 
REMARK  3 active torsions:
REMARK  status: ('A' for Active; 'I' for Inactive)
REMARK    1  A    between atoms: N_1  and  C_2
REMARK    2  A    between atoms: C_2  and  C_3
REMARK    3  A    between atoms: C_2  and  C_10
REMARK                            x       y       z     vdW  Elec       q    Type
REMARK                         _______ _______ _______ _____ _____    ______ ____
ROOT
ATOM      1  C   UNL     1       5.026   4.421  18.442  0.00  0.00    +0.000 C 
ENDROOT
BRANCH   1   2
ATOM      2  C   UNL     1       3.646   3.925  17.872  0.00  0.00    +0.000 C 
ATOM      3  O   UNL     1       3.534   3.588  16.683  0.00  0.00    +0.000 OA
ATOM      4  N   UNL     1       2.544   3.842  18.703  0.00  0.00    +0.000 N 
ATOM      5  C   UNL     1       1.297   3.272  18.217  0.00  0.00    +0.000 C 
ATOM      6  C   UNL     1       0.569   2.595  19.374  0.00  0.00    +0.000 C 
ATOM      7  S   UNL     1       1.317   3.233  20.898  0.00  0.00    +0.000 S 
ATOM      8  C   UNL     1       2.401   4.393  20.029  0.00  0.00    +0.000 C 
ENDBRANCH   1   2
BRANCH   1   9
ATOM      9  C   UNL     1       6.070   4.660  17.293  0.00  0.00    +0.000 C 
ATOM     10  C   UNL     1       5.769   5.917  16.443  0.00  0.00    +0.000 C 
ATOM     11  C   UNL     1       6.084   7.227  17.164  0.00  0.00    +0.000 C 
ATOM     12  C   UNL     1       7.525   7.272  17.658  0.00  0.00    +0.000 C 
ATOM     13  C   UNL     1       7.881   6.039  18.485  0.00  0.00    +0.000 C 
ATOM     14  C   UNL     1       7.549   4.747  17.740  0.00  0.00    +0.000 C 
ENDBRANCH   1   9
BRANCH   1  15
ATOM     15  N   UNL     1       5.515   3.393  19.386  0.00  0.00    +0.000 NA
ATOM     16  H   UNL     1       4.764   3.094  20.003  0.00  0.00    +0.000 HD
ATOM     17  H   UNL     1       6.239   3.804  19.978  0.00  0.00    +0.000 HD
ENDBRANCH   1  15
TORSDOF 3
ENDMDL
MODEL 4
REMARK VINA RESULT:      -5.9      1.384      2.091
REMARK  Name = 
REMARK  3 active torsions:
REMARK  status: ('A' for Active; 'I' for Inactive)
REMARK    1  A    between atoms: N_1  and  C_2
REMARK    2  A    between atoms: C_2  and  C_3
REMARK    3  A    between atoms: C_2  and  C_10
REMARK                            x       y       z     vdW  Elec       q    Type
REMARK                         _______ _______ _______ _____ _____    ______ ____
ROOT
ATOM      1  C   UNL     1       3.940   5.187  19.524  0.00  0.00    +0.000 C 
ENDROOT
BRANCH   1   2
ATOM      2  C   UNL     1       5.438   5.202  19.040  0.00  0.00    +0.000 C 
ATOM      3  O   UNL     1       6.370   5.172  19.859  0.00  0.00    +0.000 OA
ATOM      4  N   UNL     1       5.727   5.229  17.688  0.00  0.00    +0.000 N 
ATOM      5  C   UNL     1       7.103   5.122  17.228  0.00  0.00    +0.000 C 
ATOM      6  C   UNL     1       7.127   4.422  15.873  0.00  0.00    +0.000 C 
ATOM      7  S   UNL     1       5.434   4.498  15.225  0.00  0.00    +0.000 S 
ATOM      8  C   UNL     1       4.817   5.496  16.601  0.00  0.00    +0.000 C 
ENDBRANCH   1   2
BRANCH   1   9
ATOM      9  C   UNL     1       3.194   3.891  19.040  0.00  0.00    +0.000 C 
ATOM     10  C   UNL     1       3.494   2.648  19.911  0.00  0.00    +0.000 C 
ATOM     11  C   UNL     1       2.803   2.681  21.273  0.00  0.00    +0.000 C 
ATOM     12  C   UNL     1       1.296   2.867  21.143  0.00  0.00    +0.000 C 
ATOM     13  C   UNL     1       0.945   4.070  20.271  0.00  0.00    +0.000 C 
ATOM     14  C   UNL     1       1.656   4.012  18.919  0.00  0.00    +0.000 C 
ENDBRANCH   1   9
BRANCH   1  15
ATOM     15  N   UNL     1       3.284   6.398  18.989  0.00  0.00    +0.000 NA
ATOM     16  H   UNL     1       2.507   6.672  19.585  0.00  0.00    +0.000 HD
ATOM     17  H   UNL     1       2.891   6.184  18.070  0.00  0.00    +0.000 HD
ENDBRANCH   1  15
TORSDOF 3
ENDMDL
MODEL 5
REMARK VINA RESULT:      -5.8      1.363      2.191
REMARK  Name = 
REMARK  3 active torsions:
REMARK  status: ('A' for Active; 'I' for Inactive)
REMARK    1  A    between atoms: N_1  and  C_2
REMARK    2  A    between atoms: C_2  and  C_3
REMARK    3  A    between atoms: C_2  and  C_10
REMARK                            x       y       z     vdW  Elec       q    Type
REMARK                         _______ _______ _______ _____ _____    ______ ____
ROOT
ATOM      1  C   UNL     1       3.164   2.471  17.837  0.00  0.00    +0.000 C 
ENDROOT
BRANCH   1   2
ATOM      2  C   UNL     1       4.318   3.314  18.496  0.00  0.00    +0.000 C 
ATOM      3  O   UNL     1       4.500   3.290  19.724  0.00  0.00    +0.000 OA
ATOM      4  N   UNL     1       5.157   4.075  17.704  0.00  0.00    +0.000 N 
ATOM      5  C   UNL     1       6.300   4.761  18.288  0.00  0.00    +0.000 C 
ATOM      6  C   UNL     1       7.420   4.843  17.255  0.00  0.00    +0.000 C 
ATOM      7  S   UNL     1       6.657   4.515  15.643  0.00  0.00    +0.000 S 
ATOM      8  C   UNL     1       4.980   4.419  16.314  0.00  0.00    +0.000 C 
ENDBRANCH   1   2
BRANCH   1   9
ATOM      9  C   UNL     1       1.801   3.252  17.854  0.00  0.00    +0.000 C 
ATOM     10  C   UNL     1       0.773   2.671  18.853  0.00  0.00    +0.000 C 
ATOM     11  C   UNL     1       1.104   2.981  20.312  0.00  0.00    +0.000 C 
ATOM     12  C   UNL     1       1.270   4.477  20.553  0.00  0.00    +0.000 C 
ATOM     13  C   UNL     1       2.259   5.104  19.575  0.00  0.00    +0.000 C 
ATOM     14  C   UNL     1       1.904   4.772  18.125  0.00  0.00    +0.000 C 
ENDBRANCH   1   9
BRANCH   1  15
ATOM     15  N   UNL     1       3.050   1.204  18.590  0.00  0.00    +0.000 NA
ATOM     16  H   UNL     1       3.314   1.345  19.562  0.00  0.00    +0.000 HD
ATOM     17  H   UNL     1       3.707   0.526  18.200  0.00  0.00    +0.000 HD
ENDBRANCH   1  15
TORSDOF 3
ENDMDL
MODEL 6
REMARK VINA RESULT:      -5.7      1.013      1.083
REMARK  Name = 
REMARK  3 active torsions:
REMARK  status: ('A' for Active; 'I' for Inactive)
REMARK    1  A    between atoms: N_1  and  C_2
REMARK    2  A    between atoms: C_2  and  C_3
REMARK    3  A    between atoms: C_2  and  C_10
REMARK                            x       y       z     vdW  Elec       q    Type
REMARK                         _______ _______ _______ _____ _____    ______ ____
ROOT
ATOM      1  C   UNL     1       4.112   3.393  18.630  0.00  0.00    +0.000 C 
ENDROOT
BRANCH   1   2
ATOM      2  C   UNL     1       5.457   4.130  18.276  0.00  0.00    +0.000 C 
ATOM      3  O   UNL     1       6.319   4.329  19.146  0.00  0.00    +0.000 OA
ATOM      4  N   UNL     1       5.697   4.545  16.979  0.00  0.00    +0.000 N 
ATOM      5  C   UNL     1       6.985   5.117  16.616  0.00  0.00    +0.000 C 
ATOM      6  C   UNL     1       7.293   4.778  15.161  0.00  0.00    +0.000 C 
ATOM      7  S   UNL     1       5.724   4.268  14.408  0.00  0.00    +0.000 S 
ATOM      8  C   UNL     1       4.752   4.620  15.892  0.00  0.00    +0.000 C 
ENDBRANCH   1   2
BRANCH   1   9
ATOM      9  C   UNL     1       3.684   3.662  20.118  0.00  0.00    +0.000 C 
ATOM     10  C   UNL     1       3.031   5.049  20.328  0.00  0.00    +0.000 C 
ATOM     11  C   UNL     1       1.609   5.139  19.777  0.00  0.00    +0.000 C 
ATOM     12  C   UNL     1       0.706   4.053  20.351  0.00  0.00    +0.000 C 
ATOM     13  C   UNL     1       1.318   2.663  20.190  0.00  0.00    +0.000 C 
ATOM     14  C   UNL     1       2.741   2.607  20.744  0.00  0.00    +0.000 C 
ENDBRANCH   1   9
BRANCH   1  15
ATOM     15  N   UNL     1       4.319   1.948  18.399  0.00  0.00    +0.000 NA
ATOM     16  H   UNL     1       3.565   1.411  18.820  0.00  0.00    +0.000 HD
ATOM     17  H   UNL     1       5.182   1.659  18.863  0.00  0.00    +0.000 HD
ENDBRANCH   1  15
TORSDOF 3
ENDMDL
MODEL 7
REMARK VINA RESULT:      -5.7      1.805      2.026
REMARK  Name = 
REMARK  3 active torsions:
REMARK  status: ('A' for Active; 'I' for Inactive)
REMARK    1  A    between atoms: N_1  and  C_2
REMARK    2  A    between atoms: C_2  and  C_3
REMARK    3  A    between atoms: C_2  and  C_10
REMARK                            x       y       z     vdW  Elec       q    Type
REMARK                         _______ _______ _______ _____ _____    ______ ____
ROOT
ATOM      1  C   UNL     1       3.557   5.096  18.891  0.00  0.00    +0.000 C 
ENDROOT
BRANCH   1   2
ATOM      2  C   UNL     1       4.052   5.972  17.681  0.00  0.00    +0.000 C 
ATOM      3  O   UNL     1       3.903   7.204  17.686  0.00  0.00    +0.000 OA
ATOM      4  N   UNL     1       4.680   5.372  16.605  0.00  0.00    +0.000 N 
ATOM      5  C   UNL     1       5.249   6.183  15.539  0.00  0.00    +0.000 C 
ATOM      6  C   UNL     1       6.462   5.466  14.955  0.00  0.00    +0.000 C 
ATOM      7  S   UNL     1       6.346   3.737  15.490  0.00  0.00    +0.000 S 
ATOM      8  C   UNL     1       4.744   3.963  16.299  0.00  0.00    +0.000 C 
ENDBRANCH   1   2
BRANCH   1   9
ATOM      9  C   UNL     1       1.989   5.012  18.936  0.00  0.00    +0.000 C 
ATOM     10  C   UNL     1       1.398   4.015  17.911  0.00  0.00    +0.000 C 
ATOM     11  C   UNL     1       1.607   2.552  18.298  0.00  0.00    +0.000 C 
ATOM     12  C   UNL     1       1.059   2.248  19.687  0.00  0.00    +0.000 C 
ATOM     13  C   UNL     1       1.594   3.220  20.735  0.00  0.00    +0.000 C 
ATOM     14  C   UNL     1       1.376   4.674  20.316  0.00  0.00    +0.000 C 
ENDBRANCH   1   9
BRANCH   1  15
ATOM     15  N   UNL     1       4.083   5.708  20.130  0.00  0.00    +0.000 NA
ATOM     16  H   UNL     1       5.021   6.069  19.975  0.00  0.00    +0.000 HD
ATOM     17  H   UNL     1       4.159   4.986  20.849  0.00  0.00    +0.000 HD
ENDBRANCH   1  15
TORSDOF 3
ENDMDL
MODEL 8
REMARK VINA RESULT:      -5.7      2.442      2.964
REMARK  Name = 
REMARK  3 active torsions:
REMARK  status: ('A' for Active; 'I' for Inactive)
REMARK    1  A    between atoms: N_1  and  C_2
REMARK    2  A    between atoms: C_2  and  C_3
REMARK    3  A    between atoms: C_2  and  C_10
REMARK                            x       y       z     vdW  Elec       q    Type
REMARK                         _______ _______ _______ _____ _____    ______ ____
ROOT
ATOM      1  C   UNL     1       3.491   5.365  19.563  0.00  0.00    +0.000 C 
ENDROOT
BRANCH   1   2
ATOM      2  C   UNL     1       4.130   6.148  18.355  0.00  0.00    +0.000 C 
ATOM      3  O   UNL     1       3.425   6.835  17.600  0.00  0.00    +0.000 OA
ATOM      4  N   UNL     1       5.495   6.091  18.141  0.00  0.00    +0.000 N 
ATOM      5  C   UNL     1       6.111   6.905  17.104  0.00  0.00    +0.000 C 
ATOM      6  C   UNL     1       7.528   7.275  17.531  0.00  0.00    +0.000 C 
ATOM      7  S   UNL     1       7.976   6.137  18.869  0.00  0.00    +0.000 S 
ATOM      8  C   UNL     1       6.442   5.186  18.745  0.00  0.00    +0.000 C 
ENDBRANCH   1   2
BRANCH   1   9
ATOM      9  C   UNL     1       2.931   3.969  19.110  0.00  0.00    +0.000 C 
ATOM     10  C   UNL     1       3.451   2.791  19.969  0.00  0.00    +0.000 C 
ATOM     11  C   UNL     1       2.817   2.728  21.358  0.00  0.00    +0.000 C 
ATOM     12  C   UNL     1       1.296   2.683  21.288  0.00  0.00    +0.000 C 
ATOM     13  C   UNL     1       0.732   3.813  20.430  0.00  0.00    +0.000 C 
ATOM     14  C   UNL     1       1.389   3.853  19.050  0.00  0.00    +0.000 C 
ENDBRANCH   1   9
BRANCH   1  15
ATOM     15  N   UNL     1       2.409   6.207  20.118  0.00  0.00    +0.000 NA
ATOM     16  H   UNL     1       2.136   6.920  19.446  0.00  0.00    +0.000 HD
ATOM     17  H   UNL     1       2.761   6.696  20.942  0.00  0.00    +0.000 HD
ENDBRANCH   1  15
TORSDOF 3
ENDMDL
MODEL 9
REMARK VINA RESULT:      -5.6      2.514      2.965
REMARK  Name = 
REMARK  3 active torsions:
REMARK  status: ('A' for Active; 'I' for Inactive)
REMARK    1  A    between atoms: N_1  and  C_2
REMARK    2  A    between atoms: C_2  and  C_3
REMARK    3  A    between atoms: C_2  and  C_10
REMARK                            x       y       z     vdW  Elec       q    Type
REMARK                         _______ _______ _______ _____ _____    ______ ____
ROOT
ATOM      1  C   UNL     1       4.746   4.348  16.464  0.00  0.00    +0.000 C 
ENDROOT
BRANCH   1   2
ATOM      2  C   UNL     1       5.588   5.671  16.323  0.00  0.00    +0.000 C 
ATOM      3  O   UNL     1       5.246   6.559  15.527  0.00  0.00    +0.000 OA
ATOM      4  N   UNL     1       6.711   5.861  17.106  0.00  0.00    +0.000 N 
ATOM      5  C   UNL     1       7.426   7.128  17.071  0.00  0.00    +0.000 C 
ATOM      6  C   UNL     1       8.049   7.393  18.439  0.00  0.00    +0.000 C 
ATOM      7  S   UNL     1       8.051   5.806  19.318  0.00  0.00    +0.000 S 
ATOM      8  C   UNL     1       7.401   4.879  17.908  0.00  0.00    +0.000 C 
ENDBRANCH   1   2
BRANCH   1   9
ATOM      9  C   UNL     1       4.301   4.107  17.952  0.00  0.00    +0.000 C 
ATOM     10  C   UNL     1       3.200   5.082  18.429  0.00  0.00    +0.000 C 
ATOM     11  C   UNL     1       1.823   4.775  17.843  0.00  0.00    +0.000 C 
ATOM     12  C   UNL     1       1.394   3.339  18.118  0.00  0.00    +0.000 C 
ATOM     13  C   UNL     1       2.459   2.335  17.685  0.00  0.00    +0.000 C 
ATOM     14  C   UNL     1       3.825   2.672  18.283  0.00  0.00    +0.000 C 
ENDBRANCH   1   9
BRANCH   1  15
ATOM     15  N   UNL     1       5.584   3.231  15.981  0.00  0.00    +0.000 NA
ATOM     16  H   UNL     1       5.006   2.422  15.767  0.00  0.00    +0.000 HD
ATOM     17  H   UNL     1       6.222   2.949  16.728  0.00  0.00    +0.000 HD
ENDBRANCH   1  15
TORSDOF 3
ENDMDL
