MODEL 1
REMARK VINA RESULT:      -8.0      0.000      0.000
REMARK  Name = 
REMARK  5 active torsions:
REMARK  status: ('A' for Active; 'I' for Inactive)
REMARK    1  A    between atoms: C_1  and  C_2
REMARK    2  A    between atoms: N_4  and  C_5
REMARK    3  A    between atoms: N_9  and  C_10
REMARK    4  A    between atoms: C_10  and  C_11
REMARK    5  A    between atoms: C_15  and  C_16
REMARK                            x       y       z     vdW  Elec       q    Type
REMARK                         _______ _______ _______ _____ _____    ______ ____
ROOT
ATOM      1  C   UNL     1      -0.303  13.350  21.138  0.00  0.00    +0.000 A 
ATOM      2  C   UNL     1       0.609  12.324  21.263  0.00  0.00    +0.000 A 
ATOM      3  C   UNL     1       0.429  11.313  20.281  0.00  0.00    +0.000 A 
ATOM      4  N   UNL     1       1.294  10.299  20.075  0.00  0.00    +0.000 NA
ATOM      5  C   UNL     1       0.964   9.482  19.068  0.00  0.00    +0.000 A 
ATOM      6  N   UNL     1      -0.153   9.574  18.321  0.00  0.00    +0.000 NA
ATOM      7  C   UNL     1      -1.065  10.547  18.551  0.00  0.00    +0.000 A 
ATOM      8  N   UNL     1      -2.178  10.628  17.746  0.00  0.00    +0.000 N 
ATOM      9  C   UNL     1      -2.209   9.931  16.458  0.00  0.00    +0.000 C 
ATOM     10  C   UNL     1      -3.009  10.813  15.479  0.00  0.00    +0.000 C 
ATOM     11  O   UNL     1      -4.326  11.128  15.978  0.00  0.00    +0.000 OA
ATOM     12  C   UNL     1      -4.245  11.780  17.261  0.00  0.00    +0.000 C 
ATOM     13  C   UNL     1      -3.518  10.889  18.280  0.00  0.00    +0.000 C 
ATOM     14  C   UNL     1      -0.729  11.495  19.533  0.00  0.00    +0.000 A 
ATOM     15  S   UNL     1      -1.479  12.991  19.961  0.00  0.00    +0.000 S 
ENDROOT
BRANCH   5  16
ATOM     16  C   UNL     1       1.936   8.432  18.734  0.00  0.00    +0.000 A 
ATOM     17  C   UNL     1       2.788   8.532  17.608  0.00  0.00    +0.000 A 
ATOM     18  C   UNL     1       3.710   7.536  17.285  0.00  0.00    +0.000 A 
ATOM     19  C   UNL     1       3.828   6.395  18.076  0.00  0.00    +0.000 A 
ATOM     20  C   UNL     1       3.000   6.295  19.199  0.00  0.00    +0.000 A 
ATOM     21  N   UNL     1       2.913   5.295  20.140  0.00  0.00    +0.000 N 
ATOM     22  C   UNL     1       1.974   5.604  21.083  0.00  0.00    +0.000 A 
ATOM     23  C   UNL     1       1.435   6.822  20.748  0.00  0.00    +0.000 A 
ATOM     24  C   UNL     1       2.062   7.275  19.546  0.00  0.00    +0.000 A 
ATOM     25  H   UNL     1       3.477   4.457  20.130  0.00  0.00    +0.000 HD
ENDBRANCH   5  16
BRANCH   1  26
ATOM     26  C   UNL     1      -0.307  14.672  21.849  0.00  0.00    +0.000 C 
BRANCH  26  31
ATOM     27  C   UNL     1      -3.118  13.950  24.315  0.00  0.00    +0.000 C 
ATOM     28  C   UNL     1      -3.168  15.307  25.019  0.00  0.00    +0.000 C 
ATOM     29  C   UNL     1      -2.867  16.446  24.053  0.00  0.00    +0.000 C 
ATOM     30  C   UNL     1      -1.571  16.201  23.285  0.00  0.00    +0.000 C 
ATOM     31  N   UNL     1      -1.577  14.909  22.574  0.00  0.00    +0.000 NA
ATOM     32  C   UNL     1      -1.798  13.796  23.526  0.00  0.00    +0.000 C 
BRANCH  27  36
ATOM     33  C   UNL     1      -6.327  12.785  22.671  0.00  0.00    +0.000 C 
ATOM     34  C   UNL     1      -5.239  12.833  23.706  0.00  0.00    +0.000 C 
ATOM     35  O   UNL     1      -5.232  12.105  24.693  0.00  0.00    +0.000 OA
ATOM     36  N   UNL     1      -4.280  13.786  23.446  0.00  0.00    +0.000 N 
ATOM     37  H   UNL     1      -4.165  14.069  22.481  0.00  0.00    +0.000 HD
ENDBRANCH  27  36
ENDBRANCH  26  31
ENDBRANCH   1  26
TORSDOF 4
ENDMDL
MODEL 2
REMARK VINA RESULT:      -7.8      2.301      4.538
REMARK  Name = 
REMARK  5 active torsions:
REMARK  status: ('A' for Active; 'I' for Inactive)
REMARK    1  A    between atoms: C_1  and  C_2
REMARK    2  A    between atoms: N_4  and  C_5
REMARK    3  A    between atoms: N_9  and  C_10
REMARK    4  A    between atoms: C_10  and  C_11
REMARK    5  A    between atoms: C_15  and  C_16
REMARK                            x       y       z     vdW  Elec       q    Type
REMARK                         _______ _______ _______ _____ _____    ______ ____
ROOT
ATOM      1  C   UNL     1      -3.086  11.088  17.721  0.00  0.00    +0.000 A 
ATOM      2  C   UNL     1      -2.305  10.016  17.346  0.00  0.00    +0.000 A 
ATOM      3  C   UNL     1      -0.966  10.132  17.808  0.00  0.00    +0.000 A 
ATOM      4  N   UNL     1      -0.053   9.141  17.731  0.00  0.00    +0.000 NA
ATOM      5  C   UNL     1       1.135   9.437  18.268  0.00  0.00    +0.000 A 
ATOM      6  N   UNL     1       1.477  10.624  18.806  0.00  0.00    +0.000 NA
ATOM      7  C   UNL     1       0.597  11.652  18.838  0.00  0.00    +0.000 A 
ATOM      8  N   UNL     1       0.971  12.839  19.423  0.00  0.00    +0.000 N 
ATOM      9  C   UNL     1       2.137  12.888  20.310  0.00  0.00    +0.000 C 
ATOM     10  C   UNL     1       1.825  13.914  21.419  0.00  0.00    +0.000 C 
ATOM     11  O   UNL     1       1.472  15.206  20.884  0.00  0.00    +0.000 OA
ATOM     12  C   UNL     1       0.344  15.102  19.992  0.00  0.00    +0.000 C 
ATOM     13  C   UNL     1       0.655  14.142  18.832  0.00  0.00    +0.000 C 
ATOM     14  C   UNL     1      -0.701  11.374  18.374  0.00  0.00    +0.000 A 
ATOM     15  S   UNL     1      -2.154  12.306  18.459  0.00  0.00    +0.000 S 
ENDROOT
BRANCH   5  16
ATOM     16  C   UNL     1       2.122   8.349  18.310  0.00  0.00    +0.000 A 
ATOM     17  C   UNL     1       3.151   8.235  17.344  0.00  0.00    +0.000 A 
ATOM     18  C   UNL     1       4.088   7.201  17.378  0.00  0.00    +0.000 A 
ATOM     19  C   UNL     1       4.044   6.237  18.382  0.00  0.00    +0.000 A 
ATOM     20  C   UNL     1       3.040   6.350  19.348  0.00  0.00    +0.000 A 
ATOM     21  N   UNL     1       2.772   5.550  20.435  0.00  0.00    +0.000 N 
ATOM     22  C   UNL     1       1.698   6.030  21.131  0.00  0.00    +0.000 A 
ATOM     23  C   UNL     1       1.253   7.156  20.482  0.00  0.00    +0.000 A 
ATOM     24  C   UNL     1       2.082   7.372  19.338  0.00  0.00    +0.000 A 
ATOM     25  H   UNL     1       3.308   4.731  20.681  0.00  0.00    +0.000 HD
ENDBRANCH   5  16
BRANCH   1  26
ATOM     26  C   UNL     1      -4.575  11.231  17.597  0.00  0.00    +0.000 C 
BRANCH  26  31
ATOM     27  C   UNL     1      -6.220  12.698  20.703  0.00  0.00    +0.000 C 
ATOM     28  C   UNL     1      -7.483  11.834  20.731  0.00  0.00    +0.000 C 
ATOM     29  C   UNL     1      -7.198  10.418  20.246  0.00  0.00    +0.000 C 
ATOM     30  C   UNL     1      -6.487  10.421  18.895  0.00  0.00    +0.000 C 
ATOM     31  N   UNL     1      -5.247  11.218  18.918  0.00  0.00    +0.000 NA
ATOM     32  C   UNL     1      -5.536  12.613  19.321  0.00  0.00    +0.000 C 
BRANCH  27  36
ATOM     33  C   UNL     1      -3.973  12.599  23.751  0.00  0.00    +0.000 C 
ATOM     34  C   UNL     1      -4.958  13.176  22.775  0.00  0.00    +0.000 C 
ATOM     35  O   UNL     1      -5.412  14.310  22.885  0.00  0.00    +0.000 OA
ATOM     36  N   UNL     1      -5.310  12.300  21.773  0.00  0.00    +0.000 N 
ATOM     37  H   UNL     1      -4.650  11.565  21.553  0.00  0.00    +0.000 HD
ENDBRANCH  27  36
ENDBRANCH  26  31
ENDBRANCH   1  26
TORSDOF 4
ENDMDL
MODEL 3
REMARK VINA RESULT:      -7.7      1.371      1.997
REMARK  Name = 
REMARK  5 active torsions:
REMARK  status: ('A' for Active; 'I' for Inactive)
REMARK    1  A    between atoms: C_1  and  C_2
REMARK    2  A    between atoms: N_4  and  C_5
REMARK    3  A    between atoms: N_9  and  C_10
REMARK    4  A    between atoms: C_10  and  C_11
REMARK    5  A    between atoms: C_15  and  C_16
REMARK                            x       y       z     vdW  Elec       q    Type
REMARK                         _______ _______ _______ _____ _____    ______ ____
ROOT
ATOM      1  C   UNL     1      -0.995  12.787  21.442  0.00  0.00    +0.000 A 
ATOM      2  C   UNL     1      -0.026  11.813  21.551  0.00  0.00    +0.000 A 
ATOM      3  C   UNL     1      -0.032  10.915  20.450  0.00  0.00    +0.000 A 
ATOM      4  N   UNL     1       0.923   9.989  20.227  0.00  0.00    +0.000 NA
ATOM      5  C   UNL     1       0.757   9.277  19.106  0.00  0.00    +0.000 A 
ATOM      6  N   UNL     1      -0.284   9.386  18.258  0.00  0.00    +0.000 NA
ATOM      7  C   UNL     1      -1.284  10.266  18.494  0.00  0.00    +0.000 A 
ATOM      8  N   UNL     1      -2.315  10.371  17.589  0.00  0.00    +0.000 N 
ATOM      9  C   UNL     1      -2.164   9.829  16.236  0.00  0.00    +0.000 C 
ATOM     10  C   UNL     1      -2.927  10.769  15.279  0.00  0.00    +0.000 C 
ATOM     11  O   UNL     1      -4.306  10.939  15.666  0.00  0.00    +0.000 OA
ATOM     12  C   UNL     1      -4.403  11.440  17.014  0.00  0.00    +0.000 C 
ATOM     13  C   UNL     1      -3.717  10.483  18.001  0.00  0.00    +0.000 C 
ATOM     14  C   UNL     1      -1.120  11.110  19.606  0.00  0.00    +0.000 A 
ATOM     15  S   UNL     1      -2.018  12.496  20.114  0.00  0.00    +0.000 S 
ENDROOT
BRANCH   5  16
ATOM     16  C   UNL     1       1.833   8.337  18.764  0.00  0.00    +0.000 A 
ATOM     17  C   UNL     1       2.702   8.560  17.669  0.00  0.00    +0.000 A 
ATOM     18  C   UNL     1       3.724   7.668  17.339  0.00  0.00    +0.000 A 
ATOM     19  C   UNL     1       3.928   6.514  18.093  0.00  0.00    +0.000 A 
ATOM     20  C   UNL     1       3.083   6.293  19.184  0.00  0.00    +0.000 A 
ATOM     21  N   UNL     1       3.065   5.253  20.086  0.00  0.00    +0.000 N 
ATOM     22  C   UNL     1       2.076   5.436  21.010  0.00  0.00    +0.000 A 
ATOM     23  C   UNL     1       1.433   6.610  20.703  0.00  0.00    +0.000 A 
ATOM     24  C   UNL     1       2.046   7.166  19.538  0.00  0.00    +0.000 A 
ATOM     25  H   UNL     1       3.706   4.473  20.063  0.00  0.00    +0.000 HD
ENDBRANCH   5  16
BRANCH   1  26
ATOM     26  C   UNL     1      -1.169  14.013  22.290  0.00  0.00    +0.000 C 
BRANCH  26  31
ATOM     27  C   UNL     1      -4.844  14.512  23.153  0.00  0.00    +0.000 C 
ATOM     28  C   UNL     1      -5.164  13.099  23.647  0.00  0.00    +0.000 C 
ATOM     29  C   UNL     1      -3.975  12.483  24.374  0.00  0.00    +0.000 C 
ATOM     30  C   UNL     1      -2.702  12.565  23.535  0.00  0.00    +0.000 C 
ATOM     31  N   UNL     1      -2.394  13.946  23.121  0.00  0.00    +0.000 NA
ATOM     32  C   UNL     1      -3.523  14.520  22.352  0.00  0.00    +0.000 C 
BRANCH  27  36
ATOM     33  C   UNL     1      -5.016  17.564  25.390  0.00  0.00    +0.000 C 
ATOM     34  C   UNL     1      -5.194  16.752  24.139  0.00  0.00    +0.000 C 
ATOM     35  O   UNL     1      -5.672  17.218  23.110  0.00  0.00    +0.000 OA
ATOM     36  N   UNL     1      -4.793  15.443  24.276  0.00  0.00    +0.000 N 
ATOM     37  H   UNL     1      -4.105  15.246  24.993  0.00  0.00    +0.000 HD
ENDBRANCH  27  36
ENDBRANCH  26  31
ENDBRANCH   1  26
TORSDOF 4
ENDMDL
MODEL 4
REMARK VINA RESULT:      -7.6      5.435     11.776
REMARK  Name = 
REMARK  5 active torsions:
REMARK  status: ('A' for Active; 'I' for Inactive)
REMARK    1  A    between atoms: C_1  and  C_2
REMARK    2  A    between atoms: N_4  and  C_5
REMARK    3  A    between atoms: N_9  and  C_10
REMARK    4  A    between atoms: C_10  and  C_11
REMARK    5  A    between atoms: C_15  and  C_16
REMARK                            x       y       z     vdW  Elec       q    Type
REMARK                         _______ _______ _______ _____ _____    ______ ____
ROOT
ATOM      1  C   UNL     1       5.901   5.146  16.638  0.00  0.00    +0.000 A 
ATOM      2  C   UNL     1       5.394   6.426  16.570  0.00  0.00    +0.000 A 
ATOM      3  C   UNL     1       4.206   6.581  17.336  0.00  0.00    +0.000 A 
ATOM      4  N   UNL     1       3.617   7.770  17.580  0.00  0.00    +0.000 NA
ATOM      5  C   UNL     1       2.536   7.704  18.365  0.00  0.00    +0.000 A 
ATOM      6  N   UNL     1       1.994   6.573  18.856  0.00  0.00    +0.000 NA
ATOM      7  C   UNL     1       2.533   5.364  18.573  0.00  0.00    +0.000 A 
ATOM      8  N   UNL     1       1.970   4.233  19.118  0.00  0.00    +0.000 N 
ATOM      9  C   UNL     1       1.054   4.342  20.256  0.00  0.00    +0.000 C 
ATOM     10  C   UNL     1       1.290   3.109  21.153  0.00  0.00    +0.000 C 
ATOM     11  O   UNL     1       1.141   1.870  20.428  0.00  0.00    +0.000 OA
ATOM     12  C   UNL     1       2.036   1.825  19.299  0.00  0.00    +0.000 C 
ATOM     13  C   UNL     1       1.772   3.002  18.348  0.00  0.00    +0.000 C 
ATOM     14  C   UNL     1       3.727   5.374  17.831  0.00  0.00    +0.000 A 
ATOM     15  S   UNL     1       4.840   4.103  17.466  0.00  0.00    +0.000 S 
ENDROOT
BRANCH   5  16
ATOM     16  C   UNL     1       1.930   8.986  18.751  0.00  0.00    +0.000 A 
ATOM     17  C   UNL     1       1.952  10.113  17.893  0.00  0.00    +0.000 A 
ATOM     18  C   UNL     1       1.381  11.333  18.257  0.00  0.00    +0.000 A 
ATOM     19  C   UNL     1       0.754  11.482  19.493  0.00  0.00    +0.000 A 
ATOM     20  C   UNL     1       0.715  10.370  20.339  0.00  0.00    +0.000 A 
ATOM     21  N   UNL     1       0.164  10.240  21.594  0.00  0.00    +0.000 N 
ATOM     22  C   UNL     1       0.339   8.969  22.065  0.00  0.00    +0.000 A 
ATOM     23  C   UNL     1       1.021   8.261  21.106  0.00  0.00    +0.000 A 
ATOM     24  C   UNL     1       1.283   9.134  20.005  0.00  0.00    +0.000 A 
ATOM     25  H   UNL     1      -0.310  10.984  22.084  0.00  0.00    +0.000 HD
ENDBRANCH   5  16
BRANCH   1  26
ATOM     26  C   UNL     1       7.226   4.652  16.138  0.00  0.00    +0.000 C 
BRANCH  26  31
ATOM     27  C   UNL     1       5.684   3.900  12.738  0.00  0.00    +0.000 C 
ATOM     28  C   UNL     1       6.395   4.977  11.914  0.00  0.00    +0.000 C 
ATOM     29  C   UNL     1       7.817   5.208  12.410  0.00  0.00    +0.000 C 
ATOM     30  C   UNL     1       7.851   5.465  13.914  0.00  0.00    +0.000 C 
ATOM     31  N   UNL     1       7.206   4.383  14.681  0.00  0.00    +0.000 NA
ATOM     32  C   UNL     1       5.801   4.208  14.247  0.00  0.00    +0.000 C 
BRANCH  27  36
ATOM     33  C   UNL     1       6.295   0.437  11.330  0.00  0.00    +0.000 C 
ATOM     34  C   UNL     1       5.626   1.774  11.478  0.00  0.00    +0.000 C 
ATOM     35  O   UNL     1       4.659   2.108  10.802  0.00  0.00    +0.000 OA
ATOM     36  N   UNL     1       6.223   2.581  12.419  0.00  0.00    +0.000 N 
ATOM     37  H   UNL     1       6.749   2.121  13.151  0.00  0.00    +0.000 HD
ENDBRANCH  27  36
ENDBRANCH  26  31
ENDBRANCH   1  26
TORSDOF 4
ENDMDL
MODEL 5
REMARK VINA RESULT:      -7.5      2.722      4.423
REMARK  Name = 
REMARK  5 active torsions:
REMARK  status: ('A' for Active; 'I' for Inactive)
REMARK    1  A    between atoms: C_1  and  C_2
REMARK    2  A    between atoms: N_4  and  C_5
REMARK    3  A    between atoms: N_9  and  C_10
REMARK    4  A    between atoms: C_10  and  C_11
REMARK    5  A    between atoms: C_15  and  C_16
REMARK                            x       y       z     vdW  Elec       q    Type
REMARK                         _______ _______ _______ _____ _____    ______ ____
ROOT
ATOM      1  C   UNL     1      -0.183  13.169  20.979  0.00  0.00    +0.000 A 
ATOM      2  C   UNL     1       0.742  12.156  21.119  0.00  0.00    +0.000 A 
ATOM      3  C   UNL     1       0.580  11.134  20.145  0.00  0.00    +0.000 A 
ATOM      4  N   UNL     1       1.460  10.129  19.953  0.00  0.00    +0.000 NA
ATOM      5  C   UNL     1       1.147   9.300  18.952  0.00  0.00    +0.000 A 
ATOM      6  N   UNL     1       0.034   9.370  18.197  0.00  0.00    +0.000 NA
ATOM      7  C   UNL     1      -0.892  10.333  18.412  0.00  0.00    +0.000 A 
ATOM      8  N   UNL     1      -2.001  10.392  17.600  0.00  0.00    +0.000 N 
ATOM      9  C   UNL     1      -2.015   9.683  16.318  0.00  0.00    +0.000 C 
ATOM     10  C   UNL     1      -2.820  10.546  15.326  0.00  0.00    +0.000 C 
ATOM     11  O   UNL     1      -4.144  10.848  15.815  0.00  0.00    +0.000 OA
ATOM     12  C   UNL     1      -4.080  11.513  17.092  0.00  0.00    +0.000 C 
ATOM     13  C   UNL     1      -3.348  10.641  18.124  0.00  0.00    +0.000 C 
ATOM     14  C   UNL     1      -0.575  11.293  19.388  0.00  0.00    +0.000 A 
ATOM     15  S   UNL     1      -1.347  12.784  19.798  0.00  0.00    +0.000 S 
ENDROOT
BRANCH   5  16
ATOM     16  C   UNL     1       2.135   8.259  18.633  0.00  0.00    +0.000 A 
ATOM     17  C   UNL     1       3.037   8.391  17.549  0.00  0.00    +0.000 A 
ATOM     18  C   UNL     1       3.974   7.403  17.241  0.00  0.00    +0.000 A 
ATOM     19  C   UNL     1       4.058   6.242  18.005  0.00  0.00    +0.000 A 
ATOM     20  C   UNL     1       3.181   6.111  19.086  0.00  0.00    +0.000 A 
ATOM     21  N   UNL     1       3.053   5.085  19.994  0.00  0.00    +0.000 N 
ATOM     22  C   UNL     1       2.072   5.368  20.903  0.00  0.00    +0.000 A 
ATOM     23  C   UNL     1       1.547   6.595  20.577  0.00  0.00    +0.000 A 
ATOM     24  C   UNL     1       2.226   7.081  19.418  0.00  0.00    +0.000 A 
ATOM     25  H   UNL     1       3.618   4.248  19.987  0.00  0.00    +0.000 HD
ENDBRANCH   5  16
BRANCH   1  26
ATOM     26  C   UNL     1      -0.209  14.496  21.678  0.00  0.00    +0.000 C 
BRANCH  26  31
ATOM     27  C   UNL     1       1.823  16.850  19.479  0.00  0.00    +0.000 C 
ATOM     28  C   UNL     1       2.161  17.916  20.524  0.00  0.00    +0.000 C 
ATOM     29  C   UNL     1       2.373  17.297  21.900  0.00  0.00    +0.000 C 
ATOM     30  C   UNL     1       1.204  16.399  22.296  0.00  0.00    +0.000 C 
ATOM     31  N   UNL     1       0.940  15.350  21.294  0.00  0.00    +0.000 NA
ATOM     32  C   UNL     1       0.663  15.956  19.971  0.00  0.00    +0.000 C 
BRANCH  27  36
ATOM     33  C   UNL     1       4.697  15.094  17.744  0.00  0.00    +0.000 C 
ATOM     34  C   UNL     1       3.507  16.001  17.879  0.00  0.00    +0.000 C 
ATOM     35  O   UNL     1       3.051  16.639  16.937  0.00  0.00    +0.000 OA
ATOM     36  N   UNL     1       3.008  16.058  19.161  0.00  0.00    +0.000 N 
ATOM     37  H   UNL     1       3.195  15.265  19.762  0.00  0.00    +0.000 HD
ENDBRANCH  27  36
ENDBRANCH  26  31
ENDBRANCH   1  26
TORSDOF 4
ENDMDL
MODEL 6
REMARK VINA RESULT:      -7.4      6.936      9.013
REMARK  Name = 
REMARK  5 active torsions:
REMARK  status: ('A' for Active; 'I' for Inactive)
REMARK    1  A    between atoms: C_1  and  C_2
REMARK    2  A    between atoms: N_4  and  C_5
REMARK    3  A    between atoms: N_9  and  C_10
REMARK    4  A    between atoms: C_10  and  C_11
REMARK    5  A    between atoms: C_15  and  C_16
REMARK                            x       y       z     vdW  Elec       q    Type
REMARK                         _______ _______ _______ _____ _____    ______ ____
ROOT
ATOM      1  C   UNL     1       3.438  15.158  18.888  0.00  0.00    +0.000 A 
ATOM      2  C   UNL     1       4.502  15.336  18.031  0.00  0.00    +0.000 A 
ATOM      3  C   UNL     1       5.756  15.173  18.680  0.00  0.00    +0.000 A 
ATOM      4  N   UNL     1       6.939  15.118  18.033  0.00  0.00    +0.000 NA
ATOM      5  C   UNL     1       7.996  14.909  18.825  0.00  0.00    +0.000 A 
ATOM      6  N   UNL     1       7.961  14.811  20.168  0.00  0.00    +0.000 NA
ATOM      7  C   UNL     1       6.793  14.924  20.842  0.00  0.00    +0.000 A 
ATOM      8  N   UNL     1       6.791  14.787  22.211  0.00  0.00    +0.000 N 
ATOM      9  C   UNL     1       7.935  14.174  22.891  0.00  0.00    +0.000 C 
ATOM     10  C   UNL     1       7.382  13.375  24.089  0.00  0.00    +0.000 C 
ATOM     11  O   UNL     1       6.579  14.193  24.966  0.00  0.00    +0.000 OA
ATOM     12  C   UNL     1       5.488  14.800  24.245  0.00  0.00    +0.000 C 
ATOM     13  C   UNL     1       6.015  15.666  23.090  0.00  0.00    +0.000 C 
ATOM     14  C   UNL     1       5.632  15.049  20.059  0.00  0.00    +0.000 A 
ATOM     15  S   UNL     1       3.962  14.984  20.498  0.00  0.00    +0.000 S 
ENDROOT
BRANCH   5  16
ATOM     16  C   UNL     1       9.290  14.728  18.152  0.00  0.00    +0.000 A 
ATOM     17  C   UNL     1      10.050  15.827  17.682  0.00  0.00    +0.000 A 
ATOM     18  C   UNL     1      11.277  15.659  17.039  0.00  0.00    +0.000 A 
ATOM     19  C   UNL     1      11.806  14.385  16.842  0.00  0.00    +0.000 A 
ATOM     20  C   UNL     1      11.069  13.296  17.317  0.00  0.00    +0.000 A 
ATOM     21  N   UNL     1      11.355  11.951  17.260  0.00  0.00    +0.000 N 
ATOM     22  C   UNL     1      10.364  11.224  17.858  0.00  0.00    +0.000 A 
ATOM     23  C   UNL     1       9.413  12.109  18.305  0.00  0.00    +0.000 A 
ATOM     24  C   UNL     1       9.832  13.431  17.960  0.00  0.00    +0.000 A 
ATOM     25  H   UNL     1      12.189  11.566  16.842  0.00  0.00    +0.000 HD
ENDBRANCH   5  16
BRANCH   1  26
ATOM     26  C   UNL     1       1.982  15.052  18.539  0.00  0.00    +0.000 C 
BRANCH  26  31
ATOM     27  C   UNL     1      -0.796  12.568  19.327  0.00  0.00    +0.000 C 
ATOM     28  C   UNL     1      -0.190  11.323  18.675  0.00  0.00    +0.000 C 
ATOM     29  C   UNL     1       1.327  11.303  18.818  0.00  0.00    +0.000 C 
ATOM     30  C   UNL     1       1.951  12.611  18.339  0.00  0.00    +0.000 C 
ATOM     31  N   UNL     1       1.384  13.786  19.026  0.00  0.00    +0.000 NA
ATOM     32  C   UNL     1      -0.083  13.843  18.826  0.00  0.00    +0.000 C 
BRANCH  27  36
ATOM     33  C   UNL     1      -1.602  12.419  23.026  0.00  0.00    +0.000 C 
ATOM     34  C   UNL     1      -1.875  12.491  21.550  0.00  0.00    +0.000 C 
ATOM     35  O   UNL     1      -3.010  12.547  21.090  0.00  0.00    +0.000 OA
ATOM     36  N   UNL     1      -0.734  12.459  20.782  0.00  0.00    +0.000 N 
ATOM     37  H   UNL     1       0.124  12.771  21.221  0.00  0.00    +0.000 HD
ENDBRANCH  27  36
ENDBRANCH  26  31
ENDBRANCH   1  26
TORSDOF 4
ENDMDL
MODEL 7
REMARK VINA RESULT:      -7.4      2.761      3.288
REMARK  Name = 
REMARK  5 active torsions:
REMARK  status: ('A' for Active; 'I' for Inactive)
REMARK    1  A    between atoms: C_1  and  C_2
REMARK    2  A    between atoms: N_4  and  C_5
REMARK    3  A    between atoms: N_9  and  C_10
REMARK    4  A    between atoms: C_10  and  C_11
REMARK    5  A    between atoms: C_15  and  C_16
REMARK                            x       y       z     vdW  Elec       q    Type
REMARK                         _______ _______ _______ _____ _____    ______ ____
ROOT
ATOM      1  C   UNL     1      -1.146  11.283  22.287  0.00  0.00    +0.000 A 
ATOM      2  C   UNL     1      -0.862  10.020  21.814  0.00  0.00    +0.000 A 
ATOM      3  C   UNL     1       0.092  10.036  20.761  0.00  0.00    +0.000 A 
ATOM      4  N   UNL     1       0.670   8.930  20.250  0.00  0.00    +0.000 NA
ATOM      5  C   UNL     1       1.579   9.167  19.298  0.00  0.00    +0.000 A 
ATOM      6  N   UNL     1       1.896  10.379  18.803  0.00  0.00    +0.000 NA
ATOM      7  C   UNL     1       1.284  11.497  19.258  0.00  0.00    +0.000 A 
ATOM      8  N   UNL     1       1.656  12.720  18.751  0.00  0.00    +0.000 N 
ATOM      9  C   UNL     1       2.919  12.862  18.020  0.00  0.00    +0.000 C 
ATOM     10  C   UNL     1       3.486  14.257  18.352  0.00  0.00    +0.000 C 
ATOM     11  O   UNL     1       2.546  15.312  18.059  0.00  0.00    +0.000 OA
ATOM     12  C   UNL     1       1.310  15.111  18.773  0.00  0.00    +0.000 C 
ATOM     13  C   UNL     1       0.682  13.758  18.403  0.00  0.00    +0.000 C 
ATOM     14  C   UNL     1       0.387  11.324  20.326  0.00  0.00    +0.000 A 
ATOM     15  S   UNL     1      -0.406  12.483  21.334  0.00  0.00    +0.000 S 
ENDROOT
BRANCH   5  16
ATOM     16  C   UNL     1       2.317   8.000  18.795  0.00  0.00    +0.000 A 
ATOM     17  C   UNL     1       3.104   8.061  17.619  0.00  0.00    +0.000 A 
ATOM     18  C   UNL     1       3.803   6.954  17.136  0.00  0.00    +0.000 A 
ATOM     19  C   UNL     1       3.754   5.735  17.809  0.00  0.00    +0.000 A 
ATOM     20  C   UNL     1       2.991   5.670  18.979  0.00  0.00    +0.000 A 
ATOM     21  N   UNL     1       2.776   4.610  19.829  0.00  0.00    +0.000 N 
ATOM     22  C   UNL     1       1.969   4.983  20.868  0.00  0.00    +0.000 A 
ATOM     23  C   UNL     1       1.648   6.306  20.687  0.00  0.00    +0.000 A 
ATOM     24  C   UNL     1       2.274   6.761  19.486  0.00  0.00    +0.000 A 
ATOM     25  H   UNL     1       3.173   3.690  19.700  0.00  0.00    +0.000 HD
ENDBRANCH   5  16
BRANCH   1  26
ATOM     26  C   UNL     1      -1.938  11.654  23.508  0.00  0.00    +0.000 C 
BRANCH  26  31
ATOM     27  C   UNL     1      -5.444  13.091  23.888  0.00  0.00    +0.000 C 
ATOM     28  C   UNL     1      -5.098  14.579  23.802  0.00  0.00    +0.000 C 
ATOM     29  C   UNL     1      -3.946  14.827  22.837  0.00  0.00    +0.000 C 
ATOM     30  C   UNL     1      -2.748  13.938  23.155  0.00  0.00    +0.000 C 
ATOM     31  N   UNL     1      -3.103  12.507  23.177  0.00  0.00    +0.000 NA
ATOM     32  C   UNL     1      -4.174  12.256  24.169  0.00  0.00    +0.000 C 
BRANCH  27  36
ATOM     33  C   UNL     1      -7.741  11.471  21.349  0.00  0.00    +0.000 C 
ATOM     34  C   UNL     1      -7.233  11.858  22.709  0.00  0.00    +0.000 C 
ATOM     35  O   UNL     1      -7.788  11.510  23.745  0.00  0.00    +0.000 OA
ATOM     36  N   UNL     1      -6.110  12.654  22.665  0.00  0.00    +0.000 N 
ATOM     37  H   UNL     1      -5.533  12.589  21.836  0.00  0.00    +0.000 HD
ENDBRANCH  27  36
ENDBRANCH  26  31
ENDBRANCH   1  26
TORSDOF 4
ENDMDL
MODEL 8
REMARK VINA RESULT:      -7.4      7.246      9.381
REMARK  Name = 
REMARK  5 active torsions:
REMARK  status: ('A' for Active; 'I' for Inactive)
REMARK    1  A    between atoms: C_1  and  C_2
REMARK    2  A    between atoms: N_4  and  C_5
REMARK    3  A    between atoms: N_9  and  C_10
REMARK    4  A    between atoms: C_10  and  C_11
REMARK    5  A    between atoms: C_15  and  C_16
REMARK                            x       y       z     vdW  Elec       q    Type
REMARK                         _______ _______ _______ _____ _____    ______ ____
ROOT
ATOM      1  C   UNL     1       3.655  15.297  18.795  0.00  0.00    +0.000 A 
ATOM      2  C   UNL     1       4.729  15.208  17.936  0.00  0.00    +0.000 A 
ATOM      3  C   UNL     1       5.952  14.964  18.618  0.00  0.00    +0.000 A 
ATOM      4  N   UNL     1       7.112  14.659  18.000  0.00  0.00    +0.000 NA
ATOM      5  C   UNL     1       8.135  14.417  18.827  0.00  0.00    +0.000 A 
ATOM      6  N   UNL     1       8.094  14.510  20.170  0.00  0.00    +0.000 NA
ATOM      7  C   UNL     1       6.957  14.874  20.807  0.00  0.00    +0.000 A 
ATOM      8  N   UNL     1       6.945  14.927  22.182  0.00  0.00    +0.000 N 
ATOM      9  C   UNL     1       7.997  14.262  22.954  0.00  0.00    +0.000 C 
ATOM     10  C   UNL     1       7.345  13.719  24.243  0.00  0.00    +0.000 C 
ATOM     11  O   UNL     1       6.669  14.752  24.989  0.00  0.00    +0.000 OA
ATOM     12  C   UNL     1       5.668  15.399  24.178  0.00  0.00    +0.000 C 
ATOM     13  C   UNL     1       6.303  16.017  22.922  0.00  0.00    +0.000 C 
ATOM     14  C   UNL     1       5.820  15.049  19.999  0.00  0.00    +0.000 A 
ATOM     15  S   UNL     1       4.160  15.275  20.420  0.00  0.00    +0.000 S 
ENDROOT
BRANCH   5  16
ATOM     16  C   UNL     1       9.388  13.969  18.202  0.00  0.00    +0.000 A 
ATOM     17  C   UNL     1       9.698  12.596  18.049  0.00  0.00    +0.000 A 
ATOM     18  C   UNL     1      10.888  12.166  17.459  0.00  0.00    +0.000 A 
ATOM     19  C   UNL     1      11.820  13.089  16.989  0.00  0.00    +0.000 A 
ATOM     20  C   UNL     1      11.514  14.446  17.123  0.00  0.00    +0.000 A 
ATOM     21  N   UNL     1      12.243  15.552  16.748  0.00  0.00    +0.000 N 
ATOM     22  C   UNL     1      11.567  16.699  17.055  0.00  0.00    +0.000 A 
ATOM     23  C   UNL     1      10.382  16.336  17.648  0.00  0.00    +0.000 A 
ATOM     24  C   UNL     1      10.332  14.909  17.715  0.00  0.00    +0.000 A 
ATOM     25  H   UNL     1      13.146  15.509  16.298  0.00  0.00    +0.000 HD
ENDBRANCH   5  16
BRANCH   1  26
ATOM     26  C   UNL     1       2.197  15.345  18.445  0.00  0.00    +0.000 C 
BRANCH  26  31
ATOM     27  C   UNL     1      -0.852  13.281  19.417  0.00  0.00    +0.000 C 
ATOM     28  C   UNL     1      -0.458  11.956  18.760  0.00  0.00    +0.000 C 
ATOM     29  C   UNL     1       1.046  11.727  18.828  0.00  0.00    +0.000 C 
ATOM     30  C   UNL     1       1.819  12.930  18.294  0.00  0.00    +0.000 C 
ATOM     31  N   UNL     1       1.456  14.181  18.985  0.00  0.00    +0.000 NA
ATOM     32  C   UNL     1       0.003  14.439  18.856  0.00  0.00    +0.000 C 
BRANCH  27  36
ATOM     33  C   UNL     1      -1.498  12.845  23.124  0.00  0.00    +0.000 C 
ATOM     34  C   UNL     1      -1.809  12.841  21.654  0.00  0.00    +0.000 C 
ATOM     35  O   UNL     1      -2.912  12.539  21.212  0.00  0.00    +0.000 OA
ATOM     36  N   UNL     1      -0.731  13.182  20.869  0.00  0.00    +0.000 N 
ATOM     37  H   UNL     1      -0.009  13.746  21.300  0.00  0.00    +0.000 HD
ENDBRANCH  27  36
ENDBRANCH  26  31
ENDBRANCH   1  26
TORSDOF 4
ENDMDL
MODEL 9
REMARK VINA RESULT:      -7.3      7.220      9.631
REMARK  Name = 
REMARK  5 active torsions:
REMARK  status: ('A' for Active; 'I' for Inactive)
REMARK    1  A    between atoms: C_1  and  C_2
REMARK    2  A    between atoms: N_4  and  C_5
REMARK    3  A    between atoms: N_9  and  C_10
REMARK    4  A    between atoms: C_10  and  C_11
REMARK    5  A    between atoms: C_15  and  C_16
REMARK                            x       y       z     vdW  Elec       q    Type
REMARK                         _______ _______ _______ _____ _____    ______ ____
ROOT
ATOM      1  C   UNL     1       3.870  15.441  20.685  0.00  0.00    +0.000 A 
ATOM      2  C   UNL     1       4.786  15.544  19.660  0.00  0.00    +0.000 A 
ATOM      3  C   UNL     1       6.045  14.975  19.997  0.00  0.00    +0.000 A 
ATOM      4  N   UNL     1       7.047  14.787  19.114  0.00  0.00    +0.000 NA
ATOM      5  C   UNL     1       8.131  14.190  19.623  0.00  0.00    +0.000 A 
ATOM      6  N   UNL     1       8.295  13.834  20.912  0.00  0.00    +0.000 NA
ATOM      7  C   UNL     1       7.327  14.070  21.827  0.00  0.00    +0.000 A 
ATOM      8  N   UNL     1       7.518  13.664  23.127  0.00  0.00    +0.000 N 
ATOM      9  C   UNL     1       8.560  12.685  23.448  0.00  0.00    +0.000 C 
ATOM     10  C   UNL     1       8.026  11.807  24.598  0.00  0.00    +0.000 C 
ATOM     11  O   UNL     1       7.621  12.591  25.740  0.00  0.00    +0.000 OA
ATOM     12  C   UNL     1       6.622  13.561  25.368  0.00  0.00    +0.000 C 
ATOM     13  C   UNL     1       7.155  14.500  24.275  0.00  0.00    +0.000 C 
ATOM     14  C   UNL     1       6.124  14.607  21.335  0.00  0.00    +0.000 A 
ATOM     15  S   UNL     1       4.592  14.833  22.102  0.00  0.00    +0.000 S 
ENDROOT
BRANCH   5  16
ATOM     16  C   UNL     1       9.202  13.861  18.672  0.00  0.00    +0.000 A 
ATOM     17  C   UNL     1       9.573  12.523  18.397  0.00  0.00    +0.000 A 
ATOM     18  C   UNL     1      10.592  12.206  17.497  0.00  0.00    +0.000 A 
ATOM     19  C   UNL     1      11.283  13.213  16.825  0.00  0.00    +0.000 A 
ATOM     20  C   UNL     1      10.913  14.537  17.081  0.00  0.00    +0.000 A 
ATOM     21  N   UNL     1      11.418  15.706  16.560  0.00  0.00    +0.000 N 
ATOM     22  C   UNL     1      10.756  16.786  17.075  0.00  0.00    +0.000 A 
ATOM     23  C   UNL     1       9.809  16.312  17.950  0.00  0.00    +0.000 A 
ATOM     24  C   UNL     1       9.899  14.887  17.982  0.00  0.00    +0.000 A 
ATOM     25  H   UNL     1      12.167  15.749  15.885  0.00  0.00    +0.000 HD
ENDBRANCH   5  16
BRANCH   1  26
ATOM     26  C   UNL     1       2.400  15.738  20.640  0.00  0.00    +0.000 C 
BRANCH  26  31
ATOM     27  C   UNL     1       0.471  12.497  20.110  0.00  0.00    +0.000 C 
ATOM     28  C   UNL     1      -0.734  13.061  19.356  0.00  0.00    +0.000 C 
ATOM     29  C   UNL     1      -0.332  14.219  18.451  0.00  0.00    +0.000 C 
ATOM     30  C   UNL     1       0.463  15.275  19.215  0.00  0.00    +0.000 C 
ATOM     31  N   UNL     1       1.647  14.709  19.885  0.00  0.00    +0.000 NA
ATOM     32  C   UNL     1       1.246  13.631  20.818  0.00  0.00    +0.000 C 
BRANCH  27  36
ATOM     33  C   UNL     1       2.122   9.815  18.005  0.00  0.00    +0.000 C 
ATOM     34  C   UNL     1       1.096  10.422  18.919  0.00  0.00    +0.000 C 
ATOM     35  O   UNL     1       0.134   9.792  19.345  0.00  0.00    +0.000 OA
ATOM     36  N   UNL     1       1.334  11.749  19.201  0.00  0.00    +0.000 N 
ATOM     37  H   UNL     1       2.290  12.071  19.119  0.00  0.00    +0.000 HD
ENDBRANCH  27  36
ENDBRANCH  26  31
ENDBRANCH   1  26
TORSDOF 4
ENDMDL
