MODEL 1
REMARK VINA RESULT:      -7.4      0.000      0.000
REMARK  Name = 
REMARK  11 active torsions:
REMARK  status: ('A' for Active; 'I' for Inactive)
REMARK    1  A    between atoms: C_1  and  C_2
REMARK    2  A    between atoms: C_2  and  N_3
REMARK    3  A    between atoms: N_3  and  C_4
REMARK    4  A    between atoms: C_4  and  C_5
REMARK    5  A    between atoms: C_6  and  O_8
REMARK    6  A    between atoms: O_8  and  C_9
REMARK    7  A    between atoms: C_17  and  C_18
REMARK    8  A    between atoms: C_21  and  O_22
REMARK    9  A    between atoms: O_22  and  C_23
REMARK   10  A    between atoms: C_23  and  C_24
REMARK   11  A    between atoms: C_24  and  N_25
REMARK                            x       y       z     vdW  Elec       q    Type
REMARK                         _______ _______ _______ _____ _____    ______ ____
ROOT
ATOM      1  C   UNL     1      -1.881  11.870  20.175  0.00  0.00    +0.000 A 
ATOM      2  C   UNL     1      -1.532  12.347  21.458  0.00  0.00    +0.000 A 
ATOM      3  C   UNL     1      -0.637  11.635  22.259  0.00  0.00    +0.000 A 
ATOM      4  C   UNL     1      -0.109  10.480  21.725  0.00  0.00    +0.000 A 
ATOM      5  C   UNL     1      -0.424  10.027  20.445  0.00  0.00    +0.000 A 
ATOM      6  C   UNL     1      -1.312  10.710  19.640  0.00  0.00    +0.000 A 
ATOM      7  O   UNL     1       0.241   8.868  20.106  0.00  0.00    +0.000 OA
ATOM      8  C   UNL     1       1.010   8.538  21.218  0.00  0.00    +0.000 C 
ATOM      9  C   UNL     1       1.823   7.482  21.322  0.00  0.00    +0.000 C 
ATOM     10  C   UNL     1       0.838   9.536  22.302  0.00  0.00    +0.000 C 
ATOM     11  O   UNL     1       1.360   9.580  23.394  0.00  0.00    +0.000 OA
ENDROOT
BRANCH   9  12
ATOM     12  C   UNL     1       2.036   6.554  20.218  0.00  0.00    +0.000 A 
ATOM     13  C   UNL     1       2.602   7.029  19.035  0.00  0.00    +0.000 A 
ATOM     14  C   UNL     1       2.843   6.157  17.976  0.00  0.00    +0.000 A 
ATOM     15  C   UNL     1       2.546   4.798  18.100  0.00  0.00    +0.000 A 
ATOM     16  C   UNL     1       1.925   4.334  19.260  0.00  0.00    +0.000 A 
ATOM     17  C   UNL     1       1.672   5.208  20.321  0.00  0.00    +0.000 A 
BRANCH  15  18
ATOM     18  O   UNL     1       2.843   3.847  17.156  0.00  0.00    +0.000 OA
BRANCH  18  19
ATOM     19  C   UNL     1       4.197   3.376  17.212  0.00  0.00    +0.000 C 
BRANCH  19  20
ATOM     20  C   UNL     1       5.064   4.139  16.205  0.00  0.00    +0.000 C 
BRANCH  20  21
ATOM     21  N   UNL     1       6.470   4.275  16.638  0.00  0.00    +0.000 NA
ATOM     22  C   UNL     1       6.631   4.495  18.084  0.00  0.00    +0.000 C 
ATOM     23  C   UNL     1       6.418   5.982  18.266  0.00  0.00    +0.000 C 
ATOM     24  C   UNL     1       7.118   6.566  17.054  0.00  0.00    +0.000 C 
ATOM     25  C   UNL     1       7.096   5.452  16.007  0.00  0.00    +0.000 C 
ENDBRANCH  20  21
ENDBRANCH  19  20
ENDBRANCH  18  19
ENDBRANCH  15  18
ENDBRANCH   9  12
BRANCH   1  26
ATOM     26  O   UNL     1      -2.729  12.618  19.334  0.00  0.00    +0.000 OA
BRANCH  26  28
ATOM     27  N   UNL     1      -4.773  11.697  18.722  0.00  0.00    +0.000 N 
ATOM     28  C   UNL     1      -4.105  12.573  19.580  0.00  0.00    +0.000 C 
ATOM     29  O   UNL     1      -4.672  13.266  20.418  0.00  0.00    +0.000 OA
BRANCH  27  31
ATOM     30  C   UNL     1      -6.906  10.417  18.788  0.00  0.00    +0.000 C 
ATOM     31  C   UNL     1      -6.233  11.774  18.692  0.00  0.00    +0.000 C 
ENDBRANCH  27  31
BRANCH  27  32
ATOM     32  C   UNL     1      -4.014  10.899  17.756  0.00  0.00    +0.000 C 
ATOM     33  C   UNL     1      -4.170  11.223  16.280  0.00  0.00    +0.000 C 
ENDBRANCH  27  32
ENDBRANCH  26  28
ENDBRANCH   1  26
TORSDOF 9
ENDMDL
MODEL 2
REMARK VINA RESULT:      -7.3      2.826      4.547
REMARK  Name = 
REMARK  11 active torsions:
REMARK  status: ('A' for Active; 'I' for Inactive)
REMARK    1  A    between atoms: C_1  and  C_2
REMARK    2  A    between atoms: C_2  and  N_3
REMARK    3  A    between atoms: N_3  and  C_4
REMARK    4  A    between atoms: C_4  and  C_5
REMARK    5  A    between atoms: C_6  and  O_8
REMARK    6  A    between atoms: O_8  and  C_9
REMARK    7  A    between atoms: C_17  and  C_18
REMARK    8  A    between atoms: C_21  and  O_22
REMARK    9  A    between atoms: O_22  and  C_23
REMARK   10  A    between atoms: C_23  and  C_24
REMARK   11  A    between atoms: C_24  and  N_25
REMARK                            x       y       z     vdW  Elec       q    Type
REMARK                         _______ _______ _______ _____ _____    ______ ____
ROOT
ATOM      1  C   UNL     1      -1.221  12.102  22.217  0.00  0.00    +0.000 A 
ATOM      2  C   UNL     1      -2.095  12.623  21.237  0.00  0.00    +0.000 A 
ATOM      3  C   UNL     1      -1.993  12.213  19.907  0.00  0.00    +0.000 A 
ATOM      4  C   UNL     1      -1.028  11.271  19.619  0.00  0.00    +0.000 A 
ATOM      5  C   UNL     1      -0.190  10.728  20.591  0.00  0.00    +0.000 A 
ATOM      6  C   UNL     1      -0.268  11.126  21.910  0.00  0.00    +0.000 A 
ATOM      7  O   UNL     1       0.679   9.785  20.086  0.00  0.00    +0.000 OA
ATOM      8  C   UNL     1       0.411   9.721  18.722  0.00  0.00    +0.000 C 
ATOM      9  C   UNL     1       1.022   8.923  17.841  0.00  0.00    +0.000 C 
ATOM     10  C   UNL     1      -0.683  10.651  18.348  0.00  0.00    +0.000 C 
ATOM     11  O   UNL     1      -1.188  10.845  17.264  0.00  0.00    +0.000 OA
ENDROOT
BRANCH   9  12
ATOM     12  C   UNL     1       2.043   7.963  18.240  0.00  0.00    +0.000 A 
ATOM     13  C   UNL     1       3.111   7.713  17.378  0.00  0.00    +0.000 A 
ATOM     14  C   UNL     1       4.115   6.822  17.748  0.00  0.00    +0.000 A 
ATOM     15  C   UNL     1       4.075   6.193  18.995  0.00  0.00    +0.000 A 
ATOM     16  C   UNL     1       2.978   6.398  19.833  0.00  0.00    +0.000 A 
ATOM     17  C   UNL     1       1.963   7.283  19.460  0.00  0.00    +0.000 A 
BRANCH  15  18
ATOM     18  O   UNL     1       5.067   5.385  19.491  0.00  0.00    +0.000 OA
BRANCH  18  19
ATOM     19  C   UNL     1       5.126   4.092  18.871  0.00  0.00    +0.000 C 
BRANCH  19  20
ATOM     20  C   UNL     1       4.142   3.134  19.550  0.00  0.00    +0.000 C 
BRANCH  20  21
ATOM     21  N   UNL     1       3.370   2.320  18.589  0.00  0.00    +0.000 NA
ATOM     22  C   UNL     1       2.964   3.052  17.378  0.00  0.00    +0.000 C 
ATOM     23  C   UNL     1       1.705   3.786  17.786  0.00  0.00    +0.000 C 
ATOM     24  C   UNL     1       0.996   2.767  18.658  0.00  0.00    +0.000 C 
ATOM     25  C   UNL     1       2.105   1.863  19.194  0.00  0.00    +0.000 C 
ENDBRANCH  20  21
ENDBRANCH  19  20
ENDBRANCH  18  19
ENDBRANCH  15  18
ENDBRANCH   9  12
BRANCH   1  26
ATOM     26  O   UNL     1      -1.364  12.459  23.573  0.00  0.00    +0.000 OA
BRANCH  26  28
ATOM     27  N   UNL     1      -2.764  14.136  24.365  0.00  0.00    +0.000 N 
ATOM     28  C   UNL     1      -1.492  13.816  23.885  0.00  0.00    +0.000 C 
ATOM     29  O   UNL     1      -0.606  14.645  23.706  0.00  0.00    +0.000 OA
BRANCH  27  31
ATOM     30  C   UNL     1      -3.482  16.169  23.120  0.00  0.00    +0.000 C 
ATOM     31  C   UNL     1      -3.106  15.555  24.457  0.00  0.00    +0.000 C 
ENDBRANCH  27  31
BRANCH  27  32
ATOM     32  C   UNL     1      -3.760  13.079  24.559  0.00  0.00    +0.000 C 
ATOM     33  C   UNL     1      -4.955  13.042  23.622  0.00  0.00    +0.000 C 
ENDBRANCH  27  32
ENDBRANCH  26  28
ENDBRANCH   1  26
TORSDOF 9
ENDMDL
MODEL 3
REMARK VINA RESULT:      -7.2      5.386      7.236
REMARK  Name = 
REMARK  11 active torsions:
REMARK  status: ('A' for Active; 'I' for Inactive)
REMARK    1  A    between atoms: C_1  and  C_2
REMARK    2  A    between atoms: C_2  and  N_3
REMARK    3  A    between atoms: N_3  and  C_4
REMARK    4  A    between atoms: C_4  and  C_5
REMARK    5  A    between atoms: C_6  and  O_8
REMARK    6  A    between atoms: O_8  and  C_9
REMARK    7  A    between atoms: C_17  and  C_18
REMARK    8  A    between atoms: C_21  and  O_22
REMARK    9  A    between atoms: O_22  and  C_23
REMARK   10  A    between atoms: C_23  and  C_24
REMARK   11  A    between atoms: C_24  and  N_25
REMARK                            x       y       z     vdW  Elec       q    Type
REMARK                         _______ _______ _______ _____ _____    ______ ____
ROOT
ATOM      1  C   UNL     1       3.105  15.550  18.364  0.00  0.00    +0.000 A 
ATOM      2  C   UNL     1       1.857  16.115  18.705  0.00  0.00    +0.000 A 
ATOM      3  C   UNL     1       0.754  15.296  18.958  0.00  0.00    +0.000 A 
ATOM      4  C   UNL     1       0.961  13.935  18.883  0.00  0.00    +0.000 A 
ATOM      5  C   UNL     1       2.201  13.375  18.583  0.00  0.00    +0.000 A 
ATOM      6  C   UNL     1       3.301  14.166  18.321  0.00  0.00    +0.000 A 
ATOM      7  O   UNL     1       2.185  11.997  18.590  0.00  0.00    +0.000 OA
ATOM      8  C   UNL     1       0.873  11.639  18.889  0.00  0.00    +0.000 C 
ATOM      9  C   UNL     1       0.410  10.391  19.004  0.00  0.00    +0.000 C 
ATOM     10  C   UNL     1       0.026  12.840  19.095  0.00  0.00    +0.000 C 
ATOM     11  O   UNL     1      -1.148  12.909  19.385  0.00  0.00    +0.000 OA
ENDROOT
BRANCH   9  12
ATOM     12  C   UNL     1       1.275   9.226  18.872  0.00  0.00    +0.000 A 
ATOM     13  C   UNL     1       1.434   8.374  19.965  0.00  0.00    +0.000 A 
ATOM     14  C   UNL     1       2.232   7.238  19.856  0.00  0.00    +0.000 A 
ATOM     15  C   UNL     1       2.856   6.927  18.645  0.00  0.00    +0.000 A 
ATOM     16  C   UNL     1       2.744   7.810  17.569  0.00  0.00    +0.000 A 
ATOM     17  C   UNL     1       1.953   8.956  17.679  0.00  0.00    +0.000 A 
BRANCH  15  18
ATOM     18  O   UNL     1       3.572   5.781  18.410  0.00  0.00    +0.000 OA
BRANCH  18  19
ATOM     19  C   UNL     1       4.004   5.111  19.602  0.00  0.00    +0.000 C 
BRANCH  19  20
ATOM     20  C   UNL     1       4.058   3.598  19.369  0.00  0.00    +0.000 C 
BRANCH  20  21
ATOM     21  N   UNL     1       3.087   2.849  20.193  0.00  0.00    +0.000 NA
ATOM     22  C   UNL     1       2.136   2.043  19.411  0.00  0.00    +0.000 C 
ATOM     23  C   UNL     1       1.055   3.021  19.006  0.00  0.00    +0.000 C 
ATOM     24  C   UNL     1       0.899   3.874  20.251  0.00  0.00    +0.000 C 
ATOM     25  C   UNL     1       2.243   3.775  20.972  0.00  0.00    +0.000 C 
ENDBRANCH  20  21
ENDBRANCH  19  20
ENDBRANCH  18  19
ENDBRANCH  15  18
ENDBRANCH   9  12
BRANCH   1  26
ATOM     26  O   UNL     1       4.239  16.367  18.175  0.00  0.00    +0.000 OA
BRANCH  26  28
ATOM     27  N   UNL     1       5.990  16.375  19.702  0.00  0.00    +0.000 N 
ATOM     28  C   UNL     1       4.800  16.981  19.299  0.00  0.00    +0.000 C 
ATOM     29  O   UNL     1       4.277  17.916  19.898  0.00  0.00    +0.000 OA
BRANCH  27  31
ATOM     30  C   UNL     1       8.003  17.058  20.999  0.00  0.00    +0.000 C 
ATOM     31  C   UNL     1       6.517  16.743  21.015  0.00  0.00    +0.000 C 
ENDBRANCH  27  31
BRANCH  27  32
ATOM     32  C   UNL     1       6.550  15.270  18.919  0.00  0.00    +0.000 C 
ATOM     33  C   UNL     1       7.671  15.581  17.942  0.00  0.00    +0.000 C 
ENDBRANCH  27  32
ENDBRANCH  26  28
ENDBRANCH   1  26
TORSDOF 9
ENDMDL
MODEL 4
REMARK VINA RESULT:      -7.1      2.197     10.038
REMARK  Name = 
REMARK  11 active torsions:
REMARK  status: ('A' for Active; 'I' for Inactive)
REMARK    1  A    between atoms: C_1  and  C_2
REMARK    2  A    between atoms: C_2  and  N_3
REMARK    3  A    between atoms: N_3  and  C_4
REMARK    4  A    between atoms: C_4  and  C_5
REMARK    5  A    between atoms: C_6  and  O_8
REMARK    6  A    between atoms: O_8  and  C_9
REMARK    7  A    between atoms: C_17  and  C_18
REMARK    8  A    between atoms: C_21  and  O_22
REMARK    9  A    between atoms: O_22  and  C_23
REMARK   10  A    between atoms: C_23  and  C_24
REMARK   11  A    between atoms: C_24  and  N_25
REMARK                            x       y       z     vdW  Elec       q    Type
REMARK                         _______ _______ _______ _____ _____    ______ ____
ROOT
ATOM      1  C   UNL     1       4.274   4.073  16.994  0.00  0.00    +0.000 A 
ATOM      2  C   UNL     1       4.260   2.977  17.885  0.00  0.00    +0.000 A 
ATOM      3  C   UNL     1       3.672   3.097  19.146  0.00  0.00    +0.000 A 
ATOM      4  C   UNL     1       3.097   4.312  19.450  0.00  0.00    +0.000 A 
ATOM      5  C   UNL     1       3.077   5.383  18.559  0.00  0.00    +0.000 A 
ATOM      6  C   UNL     1       3.660   5.289  17.311  0.00  0.00    +0.000 A 
ATOM      7  O   UNL     1       2.425   6.488  19.060  0.00  0.00    +0.000 OA
ATOM      8  C   UNL     1       2.017   6.134  20.342  0.00  0.00    +0.000 C 
ATOM      9  C   UNL     1       1.338   6.911  21.191  0.00  0.00    +0.000 C 
ATOM     10  C   UNL     1       2.413   4.740  20.662  0.00  0.00    +0.000 C 
ATOM     11  O   UNL     1       2.210   4.096  21.668  0.00  0.00    +0.000 OA
ENDROOT
BRANCH   9  12
ATOM     12  C   UNL     1       0.893   8.251  20.830  0.00  0.00    +0.000 A 
ATOM     13  C   UNL     1      -0.072   8.878  21.618  0.00  0.00    +0.000 A 
ATOM     14  C   UNL     1      -0.493  10.170  21.312  0.00  0.00    +0.000 A 
ATOM     15  C   UNL     1       0.068  10.858  20.233  0.00  0.00    +0.000 A 
ATOM     16  C   UNL     1       0.990  10.210  19.410  0.00  0.00    +0.000 A 
ATOM     17  C   UNL     1       1.406   8.910  19.708  0.00  0.00    +0.000 A 
BRANCH  15  18
ATOM     18  O   UNL     1      -0.204  12.165  19.917  0.00  0.00    +0.000 OA
BRANCH  18  19
ATOM     19  C   UNL     1      -1.505  12.368  19.348  0.00  0.00    +0.000 C 
BRANCH  19  20
ATOM     20  C   UNL     1      -1.480  12.062  17.847  0.00  0.00    +0.000 C 
BRANCH  20  21
ATOM     21  N   UNL     1      -2.819  11.779  17.291  0.00  0.00    +0.000 NA
ATOM     22  C   UNL     1      -3.606  10.822  18.087  0.00  0.00    +0.000 C 
ATOM     23  C   UNL     1      -3.117   9.463  17.634  0.00  0.00    +0.000 C 
ATOM     24  C   UNL     1      -2.941   9.657  16.140  0.00  0.00    +0.000 C 
ATOM     25  C   UNL     1      -2.707  11.157  15.958  0.00  0.00    +0.000 C 
ENDBRANCH  20  21
ENDBRANCH  19  20
ENDBRANCH  18  19
ENDBRANCH  15  18
ENDBRANCH   9  12
BRANCH   1  26
ATOM     26  O   UNL     1       4.804   3.939  15.694  0.00  0.00    +0.000 OA
BRANCH  26  28
ATOM     27  N   UNL     1       6.398   4.459  14.086  0.00  0.00    +0.000 N 
ATOM     28  C   UNL     1       6.069   4.478  15.442  0.00  0.00    +0.000 C 
ATOM     29  O   UNL     1       6.830   4.874  16.319  0.00  0.00    +0.000 OA
BRANCH  27  31
ATOM     30  C   UNL     1       7.935   5.678  12.553  0.00  0.00    +0.000 C 
ATOM     31  C   UNL     1       7.790   4.731  13.731  0.00  0.00    +0.000 C 
ENDBRANCH  27  31
BRANCH  27  32
ATOM     32  C   UNL     1       5.422   3.979  13.104  0.00  0.00    +0.000 C 
ATOM     33  C   UNL     1       5.882   2.954  12.081  0.00  0.00    +0.000 C 
ENDBRANCH  27  32
ENDBRANCH  26  28
ENDBRANCH   1  26
TORSDOF 9
ENDMDL
MODEL 5
REMARK VINA RESULT:      -7.0      3.112      4.106
REMARK  Name = 
REMARK  11 active torsions:
REMARK  status: ('A' for Active; 'I' for Inactive)
REMARK    1  A    between atoms: C_1  and  C_2
REMARK    2  A    between atoms: C_2  and  N_3
REMARK    3  A    between atoms: N_3  and  C_4
REMARK    4  A    between atoms: C_4  and  C_5
REMARK    5  A    between atoms: C_6  and  O_8
REMARK    6  A    between atoms: O_8  and  C_9
REMARK    7  A    between atoms: C_17  and  C_18
REMARK    8  A    between atoms: C_21  and  O_22
REMARK    9  A    between atoms: O_22  and  C_23
REMARK   10  A    between atoms: C_23  and  C_24
REMARK   11  A    between atoms: C_24  and  N_25
REMARK                            x       y       z     vdW  Elec       q    Type
REMARK                         _______ _______ _______ _____ _____    ______ ____
ROOT
ATOM      1  C   UNL     1       0.373  12.857  19.433  0.00  0.00    +0.000 A 
ATOM      2  C   UNL     1       0.020  13.101  20.779  0.00  0.00    +0.000 A 
ATOM      3  C   UNL     1       0.042  12.067  21.716  0.00  0.00    +0.000 A 
ATOM      4  C   UNL     1       0.444  10.828  21.265  0.00  0.00    +0.000 A 
ATOM      5  C   UNL     1       0.828  10.593  19.946  0.00  0.00    +0.000 A 
ATOM      6  C   UNL     1       0.805  11.599  19.002  0.00  0.00    +0.000 A 
ATOM      7  O   UNL     1       1.220   9.291  19.723  0.00  0.00    +0.000 OA
ATOM      8  C   UNL     1       1.068   8.640  20.944  0.00  0.00    +0.000 C 
ATOM      9  C   UNL     1       1.342   7.354  21.185  0.00  0.00    +0.000 C 
ATOM     10  C   UNL     1       0.574   9.571  21.988  0.00  0.00    +0.000 C 
ATOM     11  O   UNL     1       0.347   9.360  23.159  0.00  0.00    +0.000 OA
ENDROOT
BRANCH   9  12
ATOM     12  C   UNL     1       1.897   6.474  20.165  0.00  0.00    +0.000 A 
ATOM     13  C   UNL     1       1.715   5.096  20.288  0.00  0.00    +0.000 A 
ATOM     14  C   UNL     1       2.210   4.235  19.312  0.00  0.00    +0.000 A 
ATOM     15  C   UNL     1       2.867   4.745  18.189  0.00  0.00    +0.000 A 
ATOM     16  C   UNL     1       3.101   6.117  18.094  0.00  0.00    +0.000 A 
ATOM     17  C   UNL     1       2.615   6.983  19.078  0.00  0.00    +0.000 A 
BRANCH  15  18
ATOM     18  O   UNL     1       3.295   3.988  17.128  0.00  0.00    +0.000 OA
BRANCH  18  19
ATOM     19  C   UNL     1       4.688   3.649  17.180  0.00  0.00    +0.000 C 
BRANCH  19  20
ATOM     20  C   UNL     1       5.298   4.125  18.502  0.00  0.00    +0.000 C 
BRANCH  20  21
ATOM     21  N   UNL     1       6.748   4.397  18.406  0.00  0.00    +0.000 NA
ATOM     22  C   UNL     1       7.173   5.620  19.105  0.00  0.00    +0.000 C 
ATOM     23  C   UNL     1       6.886   6.736  18.123  0.00  0.00    +0.000 C 
ATOM     24  C   UNL     1       7.287   6.118  16.797  0.00  0.00    +0.000 C 
ATOM     25  C   UNL     1       7.144   4.610  17.001  0.00  0.00    +0.000 C 
ENDBRANCH  20  21
ENDBRANCH  19  20
ENDBRANCH  18  19
ENDBRANCH  15  18
ENDBRANCH   9  12
BRANCH   1  26
ATOM     26  O   UNL     1       0.420  13.910  18.497  0.00  0.00    +0.000 OA
BRANCH  26  28
ATOM     27  N   UNL     1       0.928  16.177  18.567  0.00  0.00    +0.000 N 
ATOM     28  C   UNL     1       1.423  14.873  18.643  0.00  0.00    +0.000 C 
ATOM     29  O   UNL     1       2.614  14.606  18.769  0.00  0.00    +0.000 OA
BRANCH  27  31
ATOM     30  C   UNL     1       2.259  17.556  16.978  0.00  0.00    +0.000 C 
ATOM     31  C   UNL     1       1.905  17.255  18.424  0.00  0.00    +0.000 C 
ENDBRANCH  27  31
BRANCH  27  32
ATOM     32  C   UNL     1      -0.512  16.405  18.428  0.00  0.00    +0.000 C 
ATOM     33  C   UNL     1      -1.058  17.776  18.788  0.00  0.00    +0.000 C 
ENDBRANCH  27  32
ENDBRANCH  26  28
ENDBRANCH   1  26
TORSDOF 9
ENDMDL
MODEL 6
REMARK VINA RESULT:      -7.0      5.636      7.771
REMARK  Name = 
REMARK  11 active torsions:
REMARK  status: ('A' for Active; 'I' for Inactive)
REMARK    1  A    between atoms: C_1  and  C_2
REMARK    2  A    between atoms: C_2  and  N_3
REMARK    3  A    between atoms: N_3  and  C_4
REMARK    4  A    between atoms: C_4  and  C_5
REMARK    5  A    between atoms: C_6  and  O_8
REMARK    6  A    between atoms: O_8  and  C_9
REMARK    7  A    between atoms: C_17  and  C_18
REMARK    8  A    between atoms: C_21  and  O_22
REMARK    9  A    between atoms: O_22  and  C_23
REMARK   10  A    between atoms: C_23  and  C_24
REMARK   11  A    between atoms: C_24  and  N_25
REMARK                            x       y       z     vdW  Elec       q    Type
REMARK                         _______ _______ _______ _____ _____    ______ ____
ROOT
ATOM      1  C   UNL     1       4.260  15.701  18.433  0.00  0.00    +0.000 A 
ATOM      2  C   UNL     1       3.124  16.540  18.428  0.00  0.00    +0.000 A 
ATOM      3  C   UNL     1       1.841  15.995  18.485  0.00  0.00    +0.000 A 
ATOM      4  C   UNL     1       1.752  14.623  18.571  0.00  0.00    +0.000 A 
ATOM      5  C   UNL     1       2.872  13.795  18.614  0.00  0.00    +0.000 A 
ATOM      6  C   UNL     1       4.149  14.312  18.551  0.00  0.00    +0.000 A 
ATOM      7  O   UNL     1       2.550  12.460  18.730  0.00  0.00    +0.000 OA
ATOM      8  C   UNL     1       1.159  12.409  18.745  0.00  0.00    +0.000 C 
ATOM      9  C   UNL     1       0.417  11.303  18.851  0.00  0.00    +0.000 C 
ATOM     10  C   UNL     1       0.574  13.770  18.649  0.00  0.00    +0.000 C 
ATOM     11  O   UNL     1      -0.589  14.106  18.653  0.00  0.00    +0.000 OA
ENDROOT
BRANCH   9  12
ATOM     12  C   UNL     1       1.011   9.983  19.019  0.00  0.00    +0.000 A 
ATOM     13  C   UNL     1       1.614   9.368  17.922  0.00  0.00    +0.000 A 
ATOM     14  C   UNL     1       2.215   8.119  18.062  0.00  0.00    +0.000 A 
ATOM     15  C   UNL     1       2.243   7.486  19.307  0.00  0.00    +0.000 A 
ATOM     16  C   UNL     1       1.589   8.073  20.391  0.00  0.00    +0.000 A 
ATOM     17  C   UNL     1       0.976   9.321  20.251  0.00  0.00    +0.000 A 
BRANCH  15  18
ATOM     18  O   UNL     1       2.899   6.309  19.567  0.00  0.00    +0.000 OA
BRANCH  18  19
ATOM     19  C   UNL     1       2.108   5.348  20.281  0.00  0.00    +0.000 C 
BRANCH  19  20
ATOM     20  C   UNL     1       2.858   4.016  20.381  0.00  0.00    +0.000 C 
BRANCH  20  21
ATOM     21  N   UNL     1       2.249   2.945  19.566  0.00  0.00    +0.000 NA
ATOM     22  C   UNL     1       3.227   2.030  18.956  0.00  0.00    +0.000 C 
ATOM     23  C   UNL     1       3.680   2.744  17.701  0.00  0.00    +0.000 C 
ATOM     24  C   UNL     1       2.393   3.362  17.190  0.00  0.00    +0.000 C 
ATOM     25  C   UNL     1       1.508   3.518  18.426  0.00  0.00    +0.000 C 
ENDBRANCH  20  21
ENDBRANCH  19  20
ENDBRANCH  18  19
ENDBRANCH  15  18
ENDBRANCH   9  12
BRANCH   1  26
ATOM     26  O   UNL     1       5.560  16.247  18.446  0.00  0.00    +0.000 OA
BRANCH  26  28
ATOM     27  N   UNL     1       7.258  15.249  19.680  0.00  0.00    +0.000 N 
ATOM     28  C   UNL     1       6.643  15.363  18.432  0.00  0.00    +0.000 C 
ATOM     29  O   UNL     1       7.046  14.791  17.424  0.00  0.00    +0.000 OA
BRANCH  27  31
ATOM     30  C   UNL     1       8.722  13.672  20.932  0.00  0.00    +0.000 C 
ATOM     31  C   UNL     1       8.558  14.582  19.728  0.00  0.00    +0.000 C 
ENDBRANCH  27  31
BRANCH  27  32
ATOM     32  C   UNL     1       6.703  15.960  20.835  0.00  0.00    +0.000 C 
ATOM     33  C   UNL     1       7.401  17.229  21.297  0.00  0.00    +0.000 C 
ENDBRANCH  27  32
ENDBRANCH  26  28
ENDBRANCH   1  26
TORSDOF 9
ENDMDL
MODEL 7
REMARK VINA RESULT:      -6.9      2.909      4.903
REMARK  Name = 
REMARK  11 active torsions:
REMARK  status: ('A' for Active; 'I' for Inactive)
REMARK    1  A    between atoms: C_1  and  C_2
REMARK    2  A    between atoms: C_2  and  N_3
REMARK    3  A    between atoms: N_3  and  C_4
REMARK    4  A    between atoms: C_4  and  C_5
REMARK    5  A    between atoms: C_6  and  O_8
REMARK    6  A    between atoms: O_8  and  C_9
REMARK    7  A    between atoms: C_17  and  C_18
REMARK    8  A    between atoms: C_21  and  O_22
REMARK    9  A    between atoms: O_22  and  C_23
REMARK   10  A    between atoms: C_23  and  C_24
REMARK   11  A    between atoms: C_24  and  N_25
REMARK                            x       y       z     vdW  Elec       q    Type
REMARK                         _______ _______ _______ _____ _____    ______ ____
ROOT
ATOM      1  C   UNL     1      -0.806  12.610  21.682  0.00  0.00    +0.000 A 
ATOM      2  C   UNL     1      -1.841  12.876  20.759  0.00  0.00    +0.000 A 
ATOM      3  C   UNL     1      -1.900  12.190  19.544  0.00  0.00    +0.000 A 
ATOM      4  C   UNL     1      -0.926  11.241  19.318  0.00  0.00    +0.000 A 
ATOM      5  C   UNL     1       0.074  10.951  20.244  0.00  0.00    +0.000 A 
ATOM      6  C   UNL     1       0.156  11.623  21.446  0.00  0.00    +0.000 A 
ATOM      7  O   UNL     1       0.923   9.950  19.823  0.00  0.00    +0.000 OA
ATOM      8  C   UNL     1       0.471   9.582  18.559  0.00  0.00    +0.000 C 
ATOM      9  C   UNL     1       1.003   8.633  17.783  0.00  0.00    +0.000 C 
ATOM     10  C   UNL     1      -0.724  10.371  18.169  0.00  0.00    +0.000 C 
ATOM     11  O   UNL     1      -1.388  10.308  17.158  0.00  0.00    +0.000 OA
ENDROOT
BRANCH   9  12
ATOM     12  C   UNL     1       2.130   7.817  18.216  0.00  0.00    +0.000 A 
ATOM     13  C   UNL     1       2.076   7.197  19.464  0.00  0.00    +0.000 A 
ATOM     14  C   UNL     1       3.127   6.388  19.890  0.00  0.00    +0.000 A 
ATOM     15  C   UNL     1       4.230   6.170  19.060  0.00  0.00    +0.000 A 
ATOM     16  C   UNL     1       4.311   6.837  17.837  0.00  0.00    +0.000 A 
ATOM     17  C   UNL     1       3.263   7.658  17.412  0.00  0.00    +0.000 A 
BRANCH  15  18
ATOM     18  O   UNL     1       5.260   5.310  19.345  0.00  0.00    +0.000 OA
BRANCH  18  19
ATOM     19  C   UNL     1       5.168   4.048  18.670  0.00  0.00    +0.000 C 
BRANCH  19  20
ATOM     20  C   UNL     1       4.176   3.132  19.395  0.00  0.00    +0.000 C 
BRANCH  20  21
ATOM     21  N   UNL     1       3.315   2.365  18.471  0.00  0.00    +0.000 NA
ATOM     22  C   UNL     1       2.896   3.119  17.280  0.00  0.00    +0.000 C 
ATOM     23  C   UNL     1       1.701   3.925  17.743  0.00  0.00    +0.000 C 
ATOM     24  C   UNL     1       0.976   2.947  18.649  0.00  0.00    +0.000 C 
ATOM     25  C   UNL     1       2.055   1.980  19.135  0.00  0.00    +0.000 C 
ENDBRANCH  20  21
ENDBRANCH  19  20
ENDBRANCH  18  19
ENDBRANCH  15  18
ENDBRANCH   9  12
BRANCH   1  26
ATOM     26  O   UNL     1      -0.779  13.248  22.939  0.00  0.00    +0.000 OA
BRANCH  26  28
ATOM     27  N   UNL     1      -1.450  15.423  23.406  0.00  0.00    +0.000 N 
ATOM     28  C   UNL     1      -0.408  14.595  22.983  0.00  0.00    +0.000 C 
ATOM     29  O   UNL     1       0.692  15.013  22.638  0.00  0.00    +0.000 OA
BRANCH  27  31
ATOM     30  C   UNL     1      -1.383  17.303  21.776  0.00  0.00    +0.000 C 
ATOM     31  C   UNL     1      -1.275  16.863  23.225  0.00  0.00    +0.000 C 
ENDBRANCH  27  31
BRANCH  27  32
ATOM     32  C   UNL     1      -2.730  14.838  23.812  0.00  0.00    +0.000 C 
ATOM     33  C   UNL     1      -3.069  14.815  25.293  0.00  0.00    +0.000 C 
ENDBRANCH  27  32
ENDBRANCH  26  28
ENDBRANCH   1  26
TORSDOF 9
ENDMDL
MODEL 8
REMARK VINA RESULT:      -6.9      4.902      6.844
REMARK  Name = 
REMARK  11 active torsions:
REMARK  status: ('A' for Active; 'I' for Inactive)
REMARK    1  A    between atoms: C_1  and  C_2
REMARK    2  A    between atoms: C_2  and  N_3
REMARK    3  A    between atoms: N_3  and  C_4
REMARK    4  A    between atoms: C_4  and  C_5
REMARK    5  A    between atoms: C_6  and  O_8
REMARK    6  A    between atoms: O_8  and  C_9
REMARK    7  A    between atoms: C_17  and  C_18
REMARK    8  A    between atoms: C_21  and  O_22
REMARK    9  A    between atoms: O_22  and  C_23
REMARK   10  A    between atoms: C_23  and  C_24
REMARK   11  A    between atoms: C_24  and  N_25
REMARK                            x       y       z     vdW  Elec       q    Type
REMARK                         _______ _______ _______ _____ _____    ______ ____
ROOT
ATOM      1  C   UNL     1       2.187  15.770  18.805  0.00  0.00    +0.000 A 
ATOM      2  C   UNL     1       0.835  16.177  18.844  0.00  0.00    +0.000 A 
ATOM      3  C   UNL     1      -0.190  15.230  18.821  0.00  0.00    +0.000 A 
ATOM      4  C   UNL     1       0.188  13.905  18.786  0.00  0.00    +0.000 A 
ATOM      5  C   UNL     1       1.522  13.501  18.785  0.00  0.00    +0.000 A 
ATOM      6  C   UNL     1       2.550  14.420  18.798  0.00  0.00    +0.000 A 
ATOM      7  O   UNL     1       1.669  12.131  18.777  0.00  0.00    +0.000 OA
ATOM      8  C   UNL     1       0.376  11.615  18.752  0.00  0.00    +0.000 C 
ATOM      9  C   UNL     1       0.050  10.319  18.744  0.00  0.00    +0.000 C 
ATOM     10  C   UNL     1      -0.633  12.704  18.760  0.00  0.00    +0.000 C 
ATOM     11  O   UNL     1      -1.842  12.629  18.764  0.00  0.00    +0.000 OA
ENDROOT
BRANCH   9  12
ATOM     12  C   UNL     1       1.054   9.266  18.811  0.00  0.00    +0.000 A 
ATOM     13  C   UNL     1       1.210   8.556  20.002  0.00  0.00    +0.000 A 
ATOM     14  C   UNL     1       2.143   7.524  20.084  0.00  0.00    +0.000 A 
ATOM     15  C   UNL     1       2.907   7.174  18.968  0.00  0.00    +0.000 A 
ATOM     16  C   UNL     1       2.793   7.922  17.795  0.00  0.00    +0.000 A 
ATOM     17  C   UNL     1       1.866   8.964  17.713  0.00  0.00    +0.000 A 
BRANCH  15  18
ATOM     18  O   UNL     1       3.771   6.109  18.920  0.00  0.00    +0.000 OA
BRANCH  18  19
ATOM     19  C   UNL     1       3.430   5.129  17.930  0.00  0.00    +0.000 C 
BRANCH  19  20
ATOM     20  C   UNL     1       3.567   3.719  18.513  0.00  0.00    +0.000 C 
BRANCH  20  21
ATOM     21  N   UNL     1       2.294   2.968  18.521  0.00  0.00    +0.000 NA
ATOM     22  C   UNL     1       1.106   3.811  18.731  0.00  0.00    +0.000 C 
ATOM     23  C   UNL     1       1.027   3.984  20.233  0.00  0.00    +0.000 C 
ATOM     24  C   UNL     1       1.416   2.611  20.744  0.00  0.00    +0.000 C 
ATOM     25  C   UNL     1       2.270   1.999  19.633  0.00  0.00    +0.000 C 
ENDBRANCH  20  21
ENDBRANCH  19  20
ENDBRANCH  18  19
ENDBRANCH  15  18
ENDBRANCH   9  12
BRANCH   1  26
ATOM     26  O   UNL     1       3.228  16.717  18.897  0.00  0.00    +0.000 OA
BRANCH  26  28
ATOM     27  N   UNL     1       5.272  16.562  19.992  0.00  0.00    +0.000 N 
ATOM     28  C   UNL     1       3.907  16.829  20.114  0.00  0.00    +0.000 C 
ATOM     29  O   UNL     1       3.359  17.080  21.183  0.00  0.00    +0.000 OA
BRANCH  27  31
ATOM     30  C   UNL     1       5.851  14.992  21.835  0.00  0.00    +0.000 C 
ATOM     31  C   UNL     1       6.030  16.372  21.227  0.00  0.00    +0.000 C 
ENDBRANCH  27  31
BRANCH  27  32
ATOM     32  C   UNL     1       5.847  16.282  18.673  0.00  0.00    +0.000 C 
ATOM     33  C   UNL     1       7.129  15.469  18.609  0.00  0.00    +0.000 C 
ENDBRANCH  27  32
ENDBRANCH  26  28
ENDBRANCH   1  26
TORSDOF 9
ENDMDL
MODEL 9
REMARK VINA RESULT:      -6.9      3.097      3.955
REMARK  Name = 
REMARK  11 active torsions:
REMARK  status: ('A' for Active; 'I' for Inactive)
REMARK    1  A    between atoms: C_1  and  C_2
REMARK    2  A    between atoms: C_2  and  N_3
REMARK    3  A    between atoms: N_3  and  C_4
REMARK    4  A    between atoms: C_4  and  C_5
REMARK    5  A    between atoms: C_6  and  O_8
REMARK    6  A    between atoms: O_8  and  C_9
REMARK    7  A    between atoms: C_17  and  C_18
REMARK    8  A    between atoms: C_21  and  O_22
REMARK    9  A    between atoms: O_22  and  C_23
REMARK   10  A    between atoms: C_23  and  C_24
REMARK   11  A    between atoms: C_24  and  N_25
REMARK                            x       y       z     vdW  Elec       q    Type
REMARK                         _______ _______ _______ _____ _____    ______ ____
ROOT
ATOM      1  C   UNL     1       0.502  13.045  19.385  0.00  0.00    +0.000 A 
ATOM      2  C   UNL     1       0.250  13.366  20.737  0.00  0.00    +0.000 A 
ATOM      3  C   UNL     1       0.264  12.371  21.716  0.00  0.00    +0.000 A 
ATOM      4  C   UNL     1       0.559  11.091  21.297  0.00  0.00    +0.000 A 
ATOM      5  C   UNL     1       0.845  10.779  19.969  0.00  0.00    +0.000 A 
ATOM      6  C   UNL     1       0.827  11.745  18.984  0.00  0.00    +0.000 A 
ATOM      7  O   UNL     1       1.139   9.446  19.781  0.00  0.00    +0.000 OA
ATOM      8  C   UNL     1       1.022   8.856  21.036  0.00  0.00    +0.000 C 
ATOM      9  C   UNL     1       1.229   7.566  21.318  0.00  0.00    +0.000 C 
ATOM     10  C   UNL     1       0.654   9.859  22.066  0.00  0.00    +0.000 C 
ATOM     11  O   UNL     1       0.487   9.711  23.256  0.00  0.00    +0.000 OA
ENDROOT
BRANCH   9  12
ATOM     12  C   UNL     1       1.664   6.611  20.306  0.00  0.00    +0.000 A 
ATOM     13  C   UNL     1       2.271   7.086  19.144  0.00  0.00    +0.000 A 
ATOM     14  C   UNL     1       2.721   6.193  18.174  0.00  0.00    +0.000 A 
ATOM     15  C   UNL     1       2.594   4.815  18.371  0.00  0.00    +0.000 A 
ATOM     16  C   UNL     1       1.934   4.342  19.506  0.00  0.00    +0.000 A 
ATOM     17  C   UNL     1       1.471   5.236  20.475  0.00  0.00    +0.000 A 
BRANCH  15  18
ATOM     18  O   UNL     1       3.100   3.859  17.527  0.00  0.00    +0.000 OA
BRANCH  18  19
ATOM     19  C   UNL     1       4.287   3.220  18.018  0.00  0.00    +0.000 C 
BRANCH  19  20
ATOM     20  C   UNL     1       5.301   4.272  18.479  0.00  0.00    +0.000 C 
BRANCH  20  21
ATOM     21  N   UNL     1       6.302   4.604  17.444  0.00  0.00    +0.000 NA
ATOM     22  C   UNL     1       7.669   4.766  17.965  0.00  0.00    +0.000 C 
ATOM     23  C   UNL     1       7.711   6.188  18.479  0.00  0.00    +0.000 C 
ATOM     24  C   UNL     1       6.915   6.942  17.431  0.00  0.00    +0.000 C 
ATOM     25  C   UNL     1       5.985   5.899  16.812  0.00  0.00    +0.000 C 
ENDBRANCH  20  21
ENDBRANCH  19  20
ENDBRANCH  18  19
ENDBRANCH  15  18
ENDBRANCH   9  12
BRANCH   1  26
ATOM     26  O   UNL     1       0.557  14.055  18.402  0.00  0.00    +0.000 OA
BRANCH  26  28
ATOM     27  N   UNL     1       1.272  16.215  18.874  0.00  0.00    +0.000 N 
ATOM     28  C   UNL     1       0.181  15.350  18.769  0.00  0.00    +0.000 C 
ATOM     29  O   UNL     1      -0.973  15.679  19.026  0.00  0.00    +0.000 OA
BRANCH  27  31
ATOM     30  C   UNL     1       0.745  18.624  18.533  0.00  0.00    +0.000 C 
ATOM     31  C   UNL     1       1.041  17.507  19.518  0.00  0.00    +0.000 C 
ENDBRANCH  27  31
BRANCH  27  32
ATOM     32  C   UNL     1       2.616  15.740  18.536  0.00  0.00    +0.000 C 
ATOM     33  C   UNL     1       3.157  16.048  17.150  0.00  0.00    +0.000 C 
ENDBRANCH  27  32
ENDBRANCH  26  28
ENDBRANCH   1  26
TORSDOF 9
ENDMDL
