MODEL 1
REMARK VINA RESULT:      -8.4      0.000      0.000
REMARK  Name = 
REMARK  7 active torsions:
REMARK  status: ('A' for Active; 'I' for Inactive)
REMARK    1  A    between atoms: C_2  and  O_3
REMARK    2  A    between atoms: C_2  and  C_4
REMARK    3  A    between atoms: C_7  and  C_8
REMARK    4  A    between atoms: C_8  and  N_9
REMARK    5  A    between atoms: N_13  and  C_14
REMARK    6  A    between atoms: C_14  and  C_15
REMARK    7  A    between atoms: C_22  and  C_23
REMARK                            x       y       z     vdW  Elec       q    Type
REMARK                         _______ _______ _______ _____ _____    ______ ____
ROOT
ATOM      1  N   UNL     1       3.292   7.010  17.198  0.00  0.00    +0.000 N 
ATOM      2  C   UNL     1       4.126   5.898  17.091  0.00  0.00    +0.000 A 
ATOM      3  N   UNL     1       4.341   5.113  18.152  0.00  0.00    +0.000 NA
ATOM      4  C   UNL     1       5.272   4.161  18.052  0.00  0.00    +0.000 A 
ATOM      5  N   UNL     1       5.561   3.329  19.136  0.00  0.00    +0.000 N 
ATOM      6  C   UNL     1       5.956   3.952  16.875  0.00  0.00    +0.000 A 
ATOM      7  C   UNL     1       5.631   4.751  15.794  0.00  0.00    +0.000 A 
ATOM      8  N   UNL     1       4.725   5.743  15.906  0.00  0.00    +0.000 NA
ATOM      9  H   UNL     1       3.570   7.615  16.432  0.00  0.00    +0.000 HD
ATOM     10  H   UNL     1       6.526   3.400  19.432  0.00  0.00    +0.000 HD
ENDROOT
BRANCH   7  11
ATOM     11  C   UNL     1       6.231   4.562  14.455  0.00  0.00    +0.000 A 
ATOM     12  C   UNL     1       7.352   5.309  14.048  0.00  0.00    +0.000 A 
ATOM     13  C   UNL     1       7.906   5.164  12.772  0.00  0.00    +0.000 A 
ATOM     14  C   UNL     1       7.350   4.261  11.870  0.00  0.00    +0.000 A 
ATOM     15  C   UNL     1       6.248   3.500  12.247  0.00  0.00    +0.000 A 
ATOM     16  C   UNL     1       5.698   3.648  13.525  0.00  0.00    +0.000 A 
ENDBRANCH   7  11
BRANCH   1  17
ATOM     17  C   UNL     1       3.308   7.611  18.524  0.00  0.00    +0.000 C 
BRANCH  17  21
ATOM     18  C   UNL     1       0.348  10.492  19.985  0.00  0.00    +0.000 C 
ATOM     19  C   UNL     1       0.405   9.126  20.670  0.00  0.00    +0.000 C 
ATOM     20  C   UNL     1       1.711   8.394  20.359  0.00  0.00    +0.000 C 
ATOM     21  C   UNL     1       1.951   8.263  18.847  0.00  0.00    +0.000 C 
ATOM     22  C   UNL     1       1.867   9.636  18.159  0.00  0.00    +0.000 C 
ATOM     23  C   UNL     1       0.558  10.354  18.474  0.00  0.00    +0.000 C 
BRANCH  18  25
ATOM     24  O   UNL     1      -1.789  11.514  19.436  0.00  0.00    +0.000 OA
ATOM     25  C   UNL     1      -0.982  11.161  20.282  0.00  0.00    +0.000 C 
BRANCH  25  26
ATOM     26  O   UNL     1      -1.213  11.315  21.605  0.00  0.00    +0.000 OA
ATOM     27  H   UNL     1      -2.107  11.047  21.889  0.00  0.00    +0.000 HD
ENDBRANCH  25  26
ENDBRANCH  18  25
ENDBRANCH  17  21
ENDBRANCH   1  17
BRANCH   5  28
ATOM     28  C   UNL     1       4.591   3.256  20.217  0.00  0.00    +0.000 C 
BRANCH  28  29
ATOM     29  C   UNL     1       3.152   2.972  19.841  0.00  0.00    +0.000 A 
ATOM     30  C   UNL     1       2.157   3.795  20.403  0.00  0.00    +0.000 A 
ATOM     31  C   UNL     1       0.814   3.650  20.054  0.00  0.00    +0.000 A 
ATOM     32  C   UNL     1       0.441   2.683  19.126  0.00  0.00    +0.000 A 
ATOM     33  C   UNL     1       1.413   1.868  18.549  0.00  0.00    +0.000 A 
ATOM     34  C   UNL     1       2.762   2.015  18.898  0.00  0.00    +0.000 A 
ENDBRANCH  28  29
ENDBRANCH   5  28
TORSDOF 7
ENDMDL
MODEL 2
REMARK VINA RESULT:      -8.3      0.261      1.065
REMARK  Name = 
REMARK  7 active torsions:
REMARK  status: ('A' for Active; 'I' for Inactive)
REMARK    1  A    between atoms: C_2  and  O_3
REMARK    2  A    between atoms: C_2  and  C_4
REMARK    3  A    between atoms: C_7  and  C_8
REMARK    4  A    between atoms: C_8  and  N_9
REMARK    5  A    between atoms: N_13  and  C_14
REMARK    6  A    between atoms: C_14  and  C_15
REMARK    7  A    between atoms: C_22  and  C_23
REMARK                            x       y       z     vdW  Elec       q    Type
REMARK                         _______ _______ _______ _____ _____    ______ ____
ROOT
ATOM      1  N   UNL     1       3.108   6.795  17.466  0.00  0.00    +0.000 N 
ATOM      2  C   UNL     1       3.972   5.712  17.308  0.00  0.00    +0.000 A 
ATOM      3  N   UNL     1       4.217   4.891  18.335  0.00  0.00    +0.000 NA
ATOM      4  C   UNL     1       5.173   3.970  18.189  0.00  0.00    +0.000 A 
ATOM      5  N   UNL     1       5.495   3.103  19.236  0.00  0.00    +0.000 N 
ATOM      6  C   UNL     1       5.853   3.828  16.999  0.00  0.00    +0.000 A 
ATOM      7  C   UNL     1       5.497   4.661  15.955  0.00  0.00    +0.000 A 
ATOM      8  N   UNL     1       4.564   5.622  16.114  0.00  0.00    +0.000 NA
ATOM      9  H   UNL     1       3.362   7.438  16.724  0.00  0.00    +0.000 HD
ATOM     10  H   UNL     1       6.460   3.189  19.527  0.00  0.00    +0.000 HD
ENDROOT
BRANCH   7  11
ATOM     11  C   UNL     1       6.089   4.542  14.604  0.00  0.00    +0.000 A 
ATOM     12  C   UNL     1       5.522   3.695  13.634  0.00  0.00    +0.000 A 
ATOM     13  C   UNL     1       6.094   3.548  12.365  0.00  0.00    +0.000 A 
ATOM     14  C   UNL     1       7.249   4.252  12.037  0.00  0.00    +0.000 A 
ATOM     15  C   UNL     1       7.827   5.105  12.971  0.00  0.00    +0.000 A 
ATOM     16  C   UNL     1       7.251   5.250  14.237  0.00  0.00    +0.000 A 
ENDBRANCH   7  11
BRANCH   1  17
ATOM     17  C   UNL     1       3.119   7.342  18.816  0.00  0.00    +0.000 C 
BRANCH  17  21
ATOM     18  C   UNL     1       0.319  10.477  20.051  0.00  0.00    +0.000 C 
ATOM     19  C   UNL     1       0.376   9.205  20.898  0.00  0.00    +0.000 C 
ATOM     20  C   UNL     1       1.644   8.397  20.616  0.00  0.00    +0.000 C 
ATOM     21  C   UNL     1       1.799   8.073  19.122  0.00  0.00    +0.000 C 
ATOM     22  C   UNL     1       1.715   9.353  18.273  0.00  0.00    +0.000 C 
ATOM     23  C   UNL     1       0.445  10.147  18.560  0.00  0.00    +0.000 C 
BRANCH  18  25
ATOM     24  O   UNL     1      -1.353  11.575  21.434  0.00  0.00    +0.000 OA
ATOM     25  C   UNL     1      -0.975  11.222  20.327  0.00  0.00    +0.000 C 
BRANCH  25  26
ATOM     26  O   UNL     1      -1.681  11.490  19.206  0.00  0.00    +0.000 OA
ATOM     27  H   UNL     1      -1.400  10.980  18.424  0.00  0.00    +0.000 HD
ENDBRANCH  25  26
ENDBRANCH  18  25
ENDBRANCH  17  21
ENDBRANCH   1  17
BRANCH   5  28
ATOM     28  C   UNL     1       4.536   2.959  20.320  0.00  0.00    +0.000 C 
BRANCH  28  29
ATOM     29  C   UNL     1       3.074   2.841  19.944  0.00  0.00    +0.000 A 
ATOM     30  C   UNL     1       2.168   3.721  20.567  0.00  0.00    +0.000 A 
ATOM     31  C   UNL     1       0.815   3.729  20.226  0.00  0.00    +0.000 A 
ATOM     32  C   UNL     1       0.344   2.862  19.245  0.00  0.00    +0.000 A 
ATOM     33  C   UNL     1       1.228   1.995  18.606  0.00  0.00    +0.000 A 
ATOM     34  C   UNL     1       2.587   1.987  18.948  0.00  0.00    +0.000 A 
ENDBRANCH  28  29
ENDBRANCH   5  28
TORSDOF 7
ENDMDL
MODEL 3
REMARK VINA RESULT:      -8.3      4.823      5.587
REMARK  Name = 
REMARK  7 active torsions:
REMARK  status: ('A' for Active; 'I' for Inactive)
REMARK    1  A    between atoms: C_2  and  O_3
REMARK    2  A    between atoms: C_2  and  C_4
REMARK    3  A    between atoms: C_7  and  C_8
REMARK    4  A    between atoms: C_8  and  N_9
REMARK    5  A    between atoms: N_13  and  C_14
REMARK    6  A    between atoms: C_14  and  C_15
REMARK    7  A    between atoms: C_22  and  C_23
REMARK                            x       y       z     vdW  Elec       q    Type
REMARK                         _______ _______ _______ _____ _____    ______ ____
ROOT
ATOM      1  N   UNL     1       7.416   7.962  17.081  0.00  0.00    +0.000 N 
ATOM      2  C   UNL     1       6.932   6.678  16.838  0.00  0.00    +0.000 A 
ATOM      3  N   UNL     1       6.458   5.936  17.844  0.00  0.00    +0.000 NA
ATOM      4  C   UNL     1       6.160   4.657  17.596  0.00  0.00    +0.000 A 
ATOM      5  N   UNL     1       5.688   3.824  18.613  0.00  0.00    +0.000 N 
ATOM      6  C   UNL     1       6.283   4.127  16.330  0.00  0.00    +0.000 A 
ATOM      7  C   UNL     1       6.709   4.971  15.321  0.00  0.00    +0.000 A 
ATOM      8  N   UNL     1       7.054   6.249  15.578  0.00  0.00    +0.000 NA
ATOM      9  H   UNL     1       8.026   8.161  16.295  0.00  0.00    +0.000 HD
ATOM     10  H   UNL     1       6.290   3.026  18.771  0.00  0.00    +0.000 HD
ENDROOT
BRANCH   7  11
ATOM     11  C   UNL     1       6.792   4.543  13.908  0.00  0.00    +0.000 A 
ATOM     12  C   UNL     1       7.722   5.126  13.026  0.00  0.00    +0.000 A 
ATOM     13  C   UNL     1       7.786   4.755  11.678  0.00  0.00    +0.000 A 
ATOM     14  C   UNL     1       6.920   3.785  11.182  0.00  0.00    +0.000 A 
ATOM     15  C   UNL     1       5.998   3.182  12.031  0.00  0.00    +0.000 A 
ATOM     16  C   UNL     1       5.939   3.556  13.378  0.00  0.00    +0.000 A 
ENDBRANCH   7  11
BRANCH   1  17
ATOM     17  C   UNL     1       8.011   8.108  18.403  0.00  0.00    +0.000 C 
BRANCH  17  21
ATOM     18  C   UNL     1       9.245  12.215  19.296  0.00  0.00    +0.000 C 
ATOM     19  C   UNL     1       9.080  11.829  17.825  0.00  0.00    +0.000 C 
ATOM     20  C   UNL     1       8.270  10.541  17.669  0.00  0.00    +0.000 C 
ATOM     21  C   UNL     1       8.871   9.383  18.480  0.00  0.00    +0.000 C 
ATOM     22  C   UNL     1       9.059   9.785  19.952  0.00  0.00    +0.000 C 
ATOM     23  C   UNL     1       9.871  11.068  20.095  0.00  0.00    +0.000 C 
BRANCH  18  25
ATOM     24  O   UNL     1      10.949  13.661  20.257  0.00  0.00    +0.000 OA
ATOM     25  C   UNL     1      10.093  13.470  19.406  0.00  0.00    +0.000 C 
BRANCH  25  26
ATOM     26  O   UNL     1       9.828  14.375  18.437  0.00  0.00    +0.000 OA
ATOM     27  H   UNL     1      10.529  15.041  18.309  0.00  0.00    +0.000 HD
ENDBRANCH  25  26
ENDBRANCH  18  25
ENDBRANCH  17  21
ENDBRANCH   1  17
BRANCH   5  28
ATOM     28  C   UNL     1       5.167   4.449  19.819  0.00  0.00    +0.000 C 
BRANCH  28  29
ATOM     29  C   UNL     1       3.693   4.268  20.114  0.00  0.00    +0.000 A 
ATOM     30  C   UNL     1       3.244   2.968  20.416  0.00  0.00    +0.000 A 
ATOM     31  C   UNL     1       1.916   2.724  20.771  0.00  0.00    +0.000 A 
ATOM     32  C   UNL     1       1.014   3.781  20.840  0.00  0.00    +0.000 A 
ATOM     33  C   UNL     1       1.442   5.076  20.559  0.00  0.00    +0.000 A 
ATOM     34  C   UNL     1       2.776   5.322  20.204  0.00  0.00    +0.000 A 
ENDBRANCH  28  29
ENDBRANCH   5  28
TORSDOF 7
ENDMDL
MODEL 4
REMARK VINA RESULT:      -8.3      4.849      5.603
REMARK  Name = 
REMARK  7 active torsions:
REMARK  status: ('A' for Active; 'I' for Inactive)
REMARK    1  A    between atoms: C_2  and  O_3
REMARK    2  A    between atoms: C_2  and  C_4
REMARK    3  A    between atoms: C_7  and  C_8
REMARK    4  A    between atoms: C_8  and  N_9
REMARK    5  A    between atoms: N_13  and  C_14
REMARK    6  A    between atoms: C_14  and  C_15
REMARK    7  A    between atoms: C_22  and  C_23
REMARK                            x       y       z     vdW  Elec       q    Type
REMARK                         _______ _______ _______ _____ _____    ______ ____
ROOT
ATOM      1  N   UNL     1       7.506   7.967  17.159  0.00  0.00    +0.000 N 
ATOM      2  C   UNL     1       6.988   6.697  16.910  0.00  0.00    +0.000 A 
ATOM      3  N   UNL     1       6.507   5.958  17.915  0.00  0.00    +0.000 NA
ATOM      4  C   UNL     1       6.176   4.689  17.660  0.00  0.00    +0.000 A 
ATOM      5  N   UNL     1       5.695   3.859  18.675  0.00  0.00    +0.000 N 
ATOM      6  C   UNL     1       6.273   4.167  16.388  0.00  0.00    +0.000 A 
ATOM      7  C   UNL     1       6.708   5.009  15.382  0.00  0.00    +0.000 A 
ATOM      8  N   UNL     1       7.087   6.276  15.646  0.00  0.00    +0.000 NA
ATOM      9  H   UNL     1       8.112   8.159  16.369  0.00  0.00    +0.000 HD
ATOM     10  H   UNL     1       6.279   3.046  18.820  0.00  0.00    +0.000 HD
ENDROOT
BRANCH   7  11
ATOM     11  C   UNL     1       6.767   4.591  13.964  0.00  0.00    +0.000 A 
ATOM     12  C   UNL     1       5.921   3.581  13.469  0.00  0.00    +0.000 A 
ATOM     13  C   UNL     1       5.991   3.153  12.139  0.00  0.00    +0.000 A 
ATOM     14  C   UNL     1       6.912   3.731  11.269  0.00  0.00    +0.000 A 
ATOM     15  C   UNL     1       7.754   4.740  11.726  0.00  0.00    +0.000 A 
ATOM     16  C   UNL     1       7.678   5.165  13.057  0.00  0.00    +0.000 A 
ENDBRANCH   7  11
BRANCH   1  17
ATOM     17  C   UNL     1       8.118   8.087  18.476  0.00  0.00    +0.000 C 
BRANCH  17  21
ATOM     18  C   UNL     1       9.254  12.229  19.340  0.00  0.00    +0.000 C 
ATOM     19  C   UNL     1       9.186  11.805  17.872  0.00  0.00    +0.000 C 
ATOM     20  C   UNL     1       8.400  10.505  17.698  0.00  0.00    +0.000 C 
ATOM     21  C   UNL     1       8.959   9.373  18.574  0.00  0.00    +0.000 C 
ATOM     22  C   UNL     1       9.050   9.814  20.045  0.00  0.00    +0.000 C 
ATOM     23  C   UNL     1       9.839  11.109  20.205  0.00  0.00    +0.000 C 
BRANCH  18  25
ATOM     24  O   UNL     1      10.060  14.428  18.682  0.00  0.00    +0.000 OA
ATOM     25  C   UNL     1      10.081  13.496  19.472  0.00  0.00    +0.000 C 
BRANCH  25  26
ATOM     26  O   UNL     1      10.848  13.513  20.585  0.00  0.00    +0.000 OA
ATOM     27  H   UNL     1      11.547  14.194  20.579  0.00  0.00    +0.000 HD
ENDBRANCH  25  26
ENDBRANCH  18  25
ENDBRANCH  17  21
ENDBRANCH   1  17
BRANCH   5  28
ATOM     28  C   UNL     1       5.202   4.486  19.891  0.00  0.00    +0.000 C 
BRANCH  28  29
ATOM     29  C   UNL     1       3.727   4.337  20.201  0.00  0.00    +0.000 A 
ATOM     30  C   UNL     1       2.914   5.478  20.064  0.00  0.00    +0.000 A 
ATOM     31  C   UNL     1       1.533   5.412  20.258  0.00  0.00    +0.000 A 
ATOM     32  C   UNL     1       0.939   4.197  20.585  0.00  0.00    +0.000 A 
ATOM     33  C   UNL     1       1.724   3.054  20.711  0.00  0.00    +0.000 A 
ATOM     34  C   UNL     1       3.111   3.120  20.514  0.00  0.00    +0.000 A 
ENDBRANCH  28  29
ENDBRANCH   5  28
TORSDOF 7
ENDMDL
MODEL 5
REMARK VINA RESULT:      -8.2      0.091      1.226
REMARK  Name = 
REMARK  7 active torsions:
REMARK  status: ('A' for Active; 'I' for Inactive)
REMARK    1  A    between atoms: C_2  and  O_3
REMARK    2  A    between atoms: C_2  and  C_4
REMARK    3  A    between atoms: C_7  and  C_8
REMARK    4  A    between atoms: C_8  and  N_9
REMARK    5  A    between atoms: N_13  and  C_14
REMARK    6  A    between atoms: C_14  and  C_15
REMARK    7  A    between atoms: C_22  and  C_23
REMARK                            x       y       z     vdW  Elec       q    Type
REMARK                         _______ _______ _______ _____ _____    ______ ____
ROOT
ATOM      1  N   UNL     1       3.251   6.993  17.226  0.00  0.00    +0.000 N 
ATOM      2  C   UNL     1       4.098   5.893  17.104  0.00  0.00    +0.000 A 
ATOM      3  N   UNL     1       4.325   5.098  18.155  0.00  0.00    +0.000 NA
ATOM      4  C   UNL     1       5.268   4.158  18.041  0.00  0.00    +0.000 A 
ATOM      5  N   UNL     1       5.570   3.317  19.114  0.00  0.00    +0.000 N 
ATOM      6  C   UNL     1       5.952   3.972  16.860  0.00  0.00    +0.000 A 
ATOM      7  C   UNL     1       5.614   4.780  15.790  0.00  0.00    +0.000 A 
ATOM      8  N   UNL     1       4.696   5.760  15.916  0.00  0.00    +0.000 NA
ATOM      9  H   UNL     1       3.519   7.611  16.468  0.00  0.00    +0.000 HD
ATOM     10  H   UNL     1       6.535   3.396  19.409  0.00  0.00    +0.000 HD
ENDROOT
BRANCH   7  11
ATOM     11  C   UNL     1       6.212   4.615  14.447  0.00  0.00    +0.000 A 
ATOM     12  C   UNL     1       5.679   3.697  13.522  0.00  0.00    +0.000 A 
ATOM     13  C   UNL     1       6.257   3.506  12.263  0.00  0.00    +0.000 A 
ATOM     14  C   UNL     1       7.385   4.235  11.897  0.00  0.00    +0.000 A 
ATOM     15  C   UNL     1       7.929   5.157  12.785  0.00  0.00    +0.000 A 
ATOM     16  C   UNL     1       7.346   5.345  14.043  0.00  0.00    +0.000 A 
ENDBRANCH   7  11
BRANCH   1  17
ATOM     17  C   UNL     1       3.262   7.578  18.560  0.00  0.00    +0.000 C 
BRANCH  17  21
ATOM     18  C   UNL     1       0.354  10.527  19.989  0.00  0.00    +0.000 C 
ATOM     19  C   UNL     1       0.380   9.163  20.682  0.00  0.00    +0.000 C 
ATOM     20  C   UNL     1       1.673   8.404  20.382  0.00  0.00    +0.000 C 
ATOM     21  C   UNL     1       1.917   8.260  18.872  0.00  0.00    +0.000 C 
ATOM     22  C   UNL     1       1.864   9.630  18.176  0.00  0.00    +0.000 C 
ATOM     23  C   UNL     1       0.569  10.376  18.480  0.00  0.00    +0.000 C 
BRANCH  18  25
ATOM     24  O   UNL     1      -1.865  11.373  19.463  0.00  0.00    +0.000 OA
ATOM     25  C   UNL     1      -0.964  11.224  20.275  0.00  0.00    +0.000 C 
BRANCH  25  26
ATOM     26  O   UNL     1      -1.067  11.658  21.551  0.00  0.00    +0.000 OA
ATOM     27  H   UNL     1      -1.984  11.778  21.860  0.00  0.00    +0.000 HD
ENDBRANCH  25  26
ENDBRANCH  18  25
ENDBRANCH  17  21
ENDBRANCH   1  17
BRANCH   5  28
ATOM     28  C   UNL     1       4.603   3.219  20.197  0.00  0.00    +0.000 C 
BRANCH  28  29
ATOM     29  C   UNL     1       3.142   3.114  19.816  0.00  0.00    +0.000 A 
ATOM     30  C   UNL     1       2.770   2.076  18.939  0.00  0.00    +0.000 A 
ATOM     31  C   UNL     1       1.434   1.862  18.594  0.00  0.00    +0.000 A 
ATOM     32  C   UNL     1       0.443   2.678  19.129  0.00  0.00    +0.000 A 
ATOM     33  C   UNL     1       0.789   3.701  20.009  0.00  0.00    +0.000 A 
ATOM     34  C   UNL     1       2.130   3.915  20.357  0.00  0.00    +0.000 A 
ENDBRANCH  28  29
ENDBRANCH   5  28
TORSDOF 7
ENDMDL
MODEL 6
REMARK VINA RESULT:      -8.2      4.792     10.633
REMARK  Name = 
REMARK  7 active torsions:
REMARK  status: ('A' for Active; 'I' for Inactive)
REMARK    1  A    between atoms: C_2  and  O_3
REMARK    2  A    between atoms: C_2  and  C_4
REMARK    3  A    between atoms: C_7  and  C_8
REMARK    4  A    between atoms: C_8  and  N_9
REMARK    5  A    between atoms: N_13  and  C_14
REMARK    6  A    between atoms: C_14  and  C_15
REMARK    7  A    between atoms: C_22  and  C_23
REMARK                            x       y       z     vdW  Elec       q    Type
REMARK                         _______ _______ _______ _____ _____    ______ ____
ROOT
ATOM      1  N   UNL     1       0.891   9.631  17.799  0.00  0.00    +0.000 N 
ATOM      2  C   UNL     1       0.223  10.690  18.412  0.00  0.00    +0.000 A 
ATOM      3  N   UNL     1       0.904  11.586  19.136  0.00  0.00    +0.000 NA
ATOM      4  C   UNL     1       0.209  12.484  19.840  0.00  0.00    +0.000 A 
ATOM      5  N   UNL     1       0.863  13.425  20.638  0.00  0.00    +0.000 N 
ATOM      6  C   UNL     1      -1.167  12.527  19.783  0.00  0.00    +0.000 A 
ATOM      7  C   UNL     1      -1.802  11.619  18.957  0.00  0.00    +0.000 A 
ATOM      8  N   UNL     1      -1.107  10.682  18.281  0.00  0.00    +0.000 NA
ATOM      9  H   UNL     1       0.174   8.930  17.643  0.00  0.00    +0.000 HD
ATOM     10  H   UNL     1       0.604  13.353  21.613  0.00  0.00    +0.000 HD
ENDROOT
BRANCH   7  11
ATOM     11  C   UNL     1      -3.266  11.627  18.742  0.00  0.00    +0.000 A 
ATOM     12  C   UNL     1      -3.844  10.957  17.647  0.00  0.00    +0.000 A 
ATOM     13  C   UNL     1      -5.223  10.987  17.414  0.00  0.00    +0.000 A 
ATOM     14  C   UNL     1      -6.060  11.688  18.277  0.00  0.00    +0.000 A 
ATOM     15  C   UNL     1      -5.520  12.351  19.375  0.00  0.00    +0.000 A 
ATOM     16  C   UNL     1      -4.140  12.317  19.604  0.00  0.00    +0.000 A 
ENDBRANCH   7  11
BRANCH   1  17
ATOM     17  C   UNL     1       2.065   9.190  18.539  0.00  0.00    +0.000 C 
BRANCH  17  21
ATOM     18  C   UNL     1       3.872   5.212  18.861  0.00  0.00    +0.000 C 
ATOM     19  C   UNL     1       3.900   5.894  17.492  0.00  0.00    +0.000 C 
ATOM     20  C   UNL     1       3.624   7.394  17.605  0.00  0.00    +0.000 C 
ATOM     21  C   UNL     1       2.305   7.683  18.339  0.00  0.00    +0.000 C 
ATOM     22  C   UNL     1       2.271   6.973  19.703  0.00  0.00    +0.000 C 
ATOM     23  C   UNL     1       2.544   5.478  19.577  0.00  0.00    +0.000 C 
BRANCH  18  25
ATOM     24  O   UNL     1       3.272   2.928  18.282  0.00  0.00    +0.000 OA
ATOM     25  C   UNL     1       4.103   3.720  18.697  0.00  0.00    +0.000 C 
BRANCH  25  26
ATOM     26  O   UNL     1       5.354   3.338  19.038  0.00  0.00    +0.000 OA
ATOM     27  H   UNL     1       6.025   3.503  18.350  0.00  0.00    +0.000 HD
ENDBRANCH  25  26
ENDBRANCH  18  25
ENDBRANCH  17  21
ENDBRANCH   1  17
BRANCH   5  28
ATOM     28  C   UNL     1       2.277  13.662  20.393  0.00  0.00    +0.000 C 
BRANCH  28  29
ATOM     29  C   UNL     1       2.638  14.626  19.283  0.00  0.00    +0.000 A 
ATOM     30  C   UNL     1       1.880  15.807  19.173  0.00  0.00    +0.000 A 
ATOM     31  C   UNL     1       2.192  16.784  18.226  0.00  0.00    +0.000 A 
ATOM     32  C   UNL     1       3.276  16.599  17.374  0.00  0.00    +0.000 A 
ATOM     33  C   UNL     1       4.047  15.444  17.477  0.00  0.00    +0.000 A 
ATOM     34  C   UNL     1       3.736  14.464  18.430  0.00  0.00    +0.000 A 
ENDBRANCH  28  29
ENDBRANCH   5  28
TORSDOF 7
ENDMDL
MODEL 7
REMARK VINA RESULT:      -8.1      4.813     10.709
REMARK  Name = 
REMARK  7 active torsions:
REMARK  status: ('A' for Active; 'I' for Inactive)
REMARK    1  A    between atoms: C_2  and  O_3
REMARK    2  A    between atoms: C_2  and  C_4
REMARK    3  A    between atoms: C_7  and  C_8
REMARK    4  A    between atoms: C_8  and  N_9
REMARK    5  A    between atoms: N_13  and  C_14
REMARK    6  A    between atoms: C_14  and  C_15
REMARK    7  A    between atoms: C_22  and  C_23
REMARK                            x       y       z     vdW  Elec       q    Type
REMARK                         _______ _______ _______ _____ _____    ______ ____
ROOT
ATOM      1  N   UNL     1       0.818   9.743  17.780  0.00  0.00    +0.000 N 
ATOM      2  C   UNL     1       0.140  10.793  18.397  0.00  0.00    +0.000 A 
ATOM      3  N   UNL     1       0.813  11.701  19.112  0.00  0.00    +0.000 NA
ATOM      4  C   UNL     1       0.112  12.590  19.820  0.00  0.00    +0.000 A 
ATOM      5  N   UNL     1       0.758  13.544  20.609  0.00  0.00    +0.000 N 
ATOM      6  C   UNL     1      -1.266  12.611  19.777  0.00  0.00    +0.000 A 
ATOM      7  C   UNL     1      -1.895  11.691  18.959  0.00  0.00    +0.000 A 
ATOM      8  N   UNL     1      -1.191  10.764  18.279  0.00  0.00    +0.000 NA
ATOM      9  H   UNL     1       0.111   9.030  17.633  0.00  0.00    +0.000 HD
ATOM     10  H   UNL     1       0.511  13.471  21.587  0.00  0.00    +0.000 HD
ENDROOT
BRANCH   7  11
ATOM     11  C   UNL     1      -3.361  11.676  18.759  0.00  0.00    +0.000 A 
ATOM     12  C   UNL     1      -4.224  12.329  19.659  0.00  0.00    +0.000 A 
ATOM     13  C   UNL     1      -5.613  12.291  19.499  0.00  0.00    +0.000 A 
ATOM     14  C   UNL     1      -6.173  11.599  18.430  0.00  0.00    +0.000 A 
ATOM     15  C   UNL     1      -5.346  10.952  17.518  0.00  0.00    +0.000 A 
ATOM     16  C   UNL     1      -3.957  10.994  17.680  0.00  0.00    +0.000 A 
ENDBRANCH   7  11
BRANCH   1  17
ATOM     17  C   UNL     1       2.006   9.322  18.509  0.00  0.00    +0.000 C 
BRANCH  17  21
ATOM     18  C   UNL     1       3.741   5.333  19.024  0.00  0.00    +0.000 C 
ATOM     19  C   UNL     1       3.769   5.942  17.621  0.00  0.00    +0.000 C 
ATOM     20  C   UNL     1       3.522   7.451  17.658  0.00  0.00    +0.000 C 
ATOM     21  C   UNL     1       2.216   7.802  18.386  0.00  0.00    +0.000 C 
ATOM     22  C   UNL     1       2.181   7.166  19.786  0.00  0.00    +0.000 C 
ATOM     23  C   UNL     1       2.425   5.661  19.735  0.00  0.00    +0.000 C 
BRANCH  18  25
ATOM     24  O   UNL     1       3.041   3.009  18.869  0.00  0.00    +0.000 OA
ATOM     25  C   UNL     1       3.942   3.830  18.936  0.00  0.00    +0.000 C 
BRANCH  25  26
ATOM     26  O   UNL     1       5.245   3.471  18.913  0.00  0.00    +0.000 OA
ATOM     27  H   UNL     1       5.862   4.185  19.164  0.00  0.00    +0.000 HD
ENDBRANCH  25  26
ENDBRANCH  18  25
ENDBRANCH  17  21
ENDBRANCH   1  17
BRANCH   5  28
ATOM     28  C   UNL     1       2.166  13.802  20.349  0.00  0.00    +0.000 C 
BRANCH  28  29
ATOM     29  C   UNL     1       2.500  14.866  19.325  0.00  0.00    +0.000 A 
ATOM     30  C   UNL     1       3.558  14.604  18.433  0.00  0.00    +0.000 A 
ATOM     31  C   UNL     1       3.885  15.498  17.412  0.00  0.00    +0.000 A 
ATOM     32  C   UNL     1       3.150  16.669  17.258  0.00  0.00    +0.000 A 
ATOM     33  C   UNL     1       2.091  16.940  18.121  0.00  0.00    +0.000 A 
ATOM     34  C   UNL     1       1.761  16.041  19.145  0.00  0.00    +0.000 A 
ENDBRANCH  28  29
ENDBRANCH   5  28
TORSDOF 7
ENDMDL
MODEL 8
REMARK VINA RESULT:      -8.1      3.753      7.417
REMARK  Name = 
REMARK  7 active torsions:
REMARK  status: ('A' for Active; 'I' for Inactive)
REMARK    1  A    between atoms: C_2  and  O_3
REMARK    2  A    between atoms: C_2  and  C_4
REMARK    3  A    between atoms: C_7  and  C_8
REMARK    4  A    between atoms: C_8  and  N_9
REMARK    5  A    between atoms: N_13  and  C_14
REMARK    6  A    between atoms: C_14  and  C_15
REMARK    7  A    between atoms: C_22  and  C_23
REMARK                            x       y       z     vdW  Elec       q    Type
REMARK                         _______ _______ _______ _____ _____    ______ ____
ROOT
ATOM      1  N   UNL     1      -0.256  10.395  17.776  0.00  0.00    +0.000 N 
ATOM      2  C   UNL     1       0.342   9.603  18.755  0.00  0.00    +0.000 A 
ATOM      3  N   UNL     1       0.001   9.749  20.040  0.00  0.00    +0.000 NA
ATOM      4  C   UNL     1       0.714   9.092  20.958  0.00  0.00    +0.000 A 
ATOM      5  N   UNL     1       0.425   9.227  22.318  0.00  0.00    +0.000 N 
ATOM      6  C   UNL     1       1.737   8.242  20.595  0.00  0.00    +0.000 A 
ATOM      7  C   UNL     1       1.986   8.080  19.245  0.00  0.00    +0.000 A 
ATOM      8  N   UNL     1       1.299   8.778  18.319  0.00  0.00    +0.000 NA
ATOM      9  H   UNL     1       0.391  10.371  16.994  0.00  0.00    +0.000 HD
ATOM     10  H   UNL     1       1.206   9.593  22.846  0.00  0.00    +0.000 HD
ENDROOT
BRANCH   7  11
ATOM     11  C   UNL     1       2.995   7.128  18.731  0.00  0.00    +0.000 A 
ATOM     12  C   UNL     1       3.680   7.376  17.526  0.00  0.00    +0.000 A 
ATOM     13  C   UNL     1       4.610   6.466  17.012  0.00  0.00    +0.000 A 
ATOM     14  C   UNL     1       4.880   5.284  17.696  0.00  0.00    +0.000 A 
ATOM     15  C   UNL     1       4.227   5.017  18.895  0.00  0.00    +0.000 A 
ATOM     16  C   UNL     1       3.299   5.930  19.406  0.00  0.00    +0.000 A 
ENDBRANCH   7  11
BRANCH   1  17
ATOM     17  C   UNL     1      -0.625  11.719  18.258  0.00  0.00    +0.000 C 
BRANCH  17  21
ATOM     18  C   UNL     1      -4.969  11.151  18.243  0.00  0.00    +0.000 C 
ATOM     19  C   UNL     1      -4.257  11.210  16.890  0.00  0.00    +0.000 C 
ATOM     20  C   UNL     1      -2.750  10.997  17.037  0.00  0.00    +0.000 C 
ATOM     21  C   UNL     1      -2.125  11.985  18.033  0.00  0.00    +0.000 C 
ATOM     22  C   UNL     1      -2.860  11.941  19.383  0.00  0.00    +0.000 C 
ATOM     23  C   UNL     1      -4.362  12.158  19.223  0.00  0.00    +0.000 C 
BRANCH  18  25
ATOM     24  O   UNL     1      -6.921  12.327  17.393  0.00  0.00    +0.000 OA
ATOM     25  C   UNL     1      -6.453  11.413  18.055  0.00  0.00    +0.000 C 
BRANCH  25  26
ATOM     26  O   UNL     1      -7.234  10.507  18.683  0.00  0.00    +0.000 OA
ATOM     27  H   UNL     1      -6.771   9.979  19.360  0.00  0.00    +0.000 HD
ENDBRANCH  25  26
ENDBRANCH  18  25
ENDBRANCH  17  21
ENDBRANCH   1  17
BRANCH   5  28
ATOM     28  C   UNL     1      -0.874   9.769  22.687  0.00  0.00    +0.000 C 
BRANCH  28  29
ATOM     29  C   UNL     1      -1.050  11.271  22.602  0.00  0.00    +0.000 A 
ATOM     30  C   UNL     1      -2.208  11.824  23.180  0.00  0.00    +0.000 A 
ATOM     31  C   UNL     1      -2.415  13.205  23.210  0.00  0.00    +0.000 A 
ATOM     32  C   UNL     1      -1.459  14.058  22.670  0.00  0.00    +0.000 A 
ATOM     33  C   UNL     1      -0.299  13.530  22.107  0.00  0.00    +0.000 A 
ATOM     34  C   UNL     1      -0.091  12.144  22.078  0.00  0.00    +0.000 A 
ENDBRANCH  28  29
ENDBRANCH   5  28
TORSDOF 7
ENDMDL
MODEL 9
REMARK VINA RESULT:      -8.1      0.726      1.430
REMARK  Name = 
REMARK  7 active torsions:
REMARK  status: ('A' for Active; 'I' for Inactive)
REMARK    1  A    between atoms: C_2  and  O_3
REMARK    2  A    between atoms: C_2  and  C_4
REMARK    3  A    between atoms: C_7  and  C_8
REMARK    4  A    between atoms: C_8  and  N_9
REMARK    5  A    between atoms: N_13  and  C_14
REMARK    6  A    between atoms: C_14  and  C_15
REMARK    7  A    between atoms: C_22  and  C_23
REMARK                            x       y       z     vdW  Elec       q    Type
REMARK                         _______ _______ _______ _____ _____    ______ ____
ROOT
ATOM      1  N   UNL     1       2.953   6.610  17.756  0.00  0.00    +0.000 N 
ATOM      2  C   UNL     1       3.819   5.536  17.552  0.00  0.00    +0.000 A 
ATOM      3  N   UNL     1       4.055   4.665  18.539  0.00  0.00    +0.000 NA
ATOM      4  C   UNL     1       5.013   3.752  18.357  0.00  0.00    +0.000 A 
ATOM      5  N   UNL     1       5.325   2.835  19.362  0.00  0.00    +0.000 N 
ATOM      6  C   UNL     1       5.704   3.670  17.168  0.00  0.00    +0.000 A 
ATOM      7  C   UNL     1       5.357   4.554  16.163  0.00  0.00    +0.000 A 
ATOM      8  N   UNL     1       4.423   5.506  16.361  0.00  0.00    +0.000 NA
ATOM      9  H   UNL     1       3.214   7.289  17.050  0.00  0.00    +0.000 HD
ATOM     10  H   UNL     1       6.287   2.906  19.667  0.00  0.00    +0.000 HD
ENDROOT
BRANCH   7  11
ATOM     11  C   UNL     1       5.963   4.504  14.814  0.00  0.00    +0.000 A 
ATOM     12  C   UNL     1       5.383   3.737  13.785  0.00  0.00    +0.000 A 
ATOM     13  C   UNL     1       5.966   3.654  12.516  0.00  0.00    +0.000 A 
ATOM     14  C   UNL     1       7.145   4.341  12.245  0.00  0.00    +0.000 A 
ATOM     15  C   UNL     1       7.737   5.115  13.238  0.00  0.00    +0.000 A 
ATOM     16  C   UNL     1       7.149   5.197  14.505  0.00  0.00    +0.000 A 
ENDBRANCH   7  11
BRANCH   1  17
ATOM     17  C   UNL     1       2.950   7.089  19.132  0.00  0.00    +0.000 C 
BRANCH  17  21
ATOM     18  C   UNL     1      -0.288  10.036  19.269  0.00  0.00    +0.000 C 
ATOM     19  C   UNL     1       0.684  10.106  18.090  0.00  0.00    +0.000 C 
ATOM     20  C   UNL     1       1.485   8.811  17.943  0.00  0.00    +0.000 C 
ATOM     21  C   UNL     1       2.218   8.438  19.241  0.00  0.00    +0.000 C 
ATOM     22  C   UNL     1       1.241   8.396  20.428  0.00  0.00    +0.000 C 
ATOM     23  C   UNL     1       0.452   9.694  20.566  0.00  0.00    +0.000 C 
BRANCH  18  25
ATOM     24  O   UNL     1      -2.226  11.505  19.238  0.00  0.00    +0.000 OA
ATOM     25  C   UNL     1      -1.025  11.357  19.406  0.00  0.00    +0.000 C 
BRANCH  25  26
ATOM     26  O   UNL     1      -0.217  12.380  19.764  0.00  0.00    +0.000 OA
ATOM     27  H   UNL     1       0.589  12.106  20.240  0.00  0.00    +0.000 HD
ENDBRANCH  25  26
ENDBRANCH  18  25
ENDBRANCH  17  21
ENDBRANCH   1  17
BRANCH   5  28
ATOM     28  C   UNL     1       4.356   2.637  20.429  0.00  0.00    +0.000 C 
BRANCH  28  29
ATOM     29  C   UNL     1       2.890   2.733  20.063  0.00  0.00    +0.000 A 
ATOM     30  C   UNL     1       2.129   3.744  20.680  0.00  0.00    +0.000 A 
ATOM     31  C   UNL     1       0.789   3.949  20.346  0.00  0.00    +0.000 A 
ATOM     32  C   UNL     1       0.188   3.151  19.378  0.00  0.00    +0.000 A 
ATOM     33  C   UNL     1       0.928   2.155  18.745  0.00  0.00    +0.000 A 
ATOM     34  C   UNL     1       2.274   1.949  19.079  0.00  0.00    +0.000 A 
ENDBRANCH  28  29
ENDBRANCH   5  28
TORSDOF 7
ENDMDL
