MODEL 1
REMARK VINA RESULT:      -7.4      0.000      0.000
REMARK  Name = 
REMARK  7 active torsions:
REMARK  status: ('A' for Active; 'I' for Inactive)
REMARK    1  A    between atoms: C_1  and  O_2
REMARK    2  A    between atoms: O_2  and  C_3
REMARK    3  A    between atoms: C_6  and  N_7
REMARK    4  A    between atoms: C_8  and  C_10
REMARK    5  A    between atoms: C_10  and  N_11
REMARK    6  A    between atoms: C_22  and  O_23
REMARK    7  A    between atoms: O_23  and  C_24
REMARK                            x       y       z     vdW  Elec       q    Type
REMARK                         _______ _______ _______ _____ _____    ______ ____
ROOT
ATOM      1  N   UNL     1       3.993   6.436  19.056  0.00  0.00    +0.000 N 
ATOM      2  C   UNL     1       2.627   6.192  19.190  0.00  0.00    +0.000 C 
ATOM      3  O   UNL     1       2.024   5.338  18.533  0.00  0.00    +0.000 OA
ATOM      4  H   UNL     1       4.503   6.562  19.925  0.00  0.00    +0.000 HD
ENDROOT
BRANCH   1   8
ATOM      5  C   UNL     1       6.134   4.863  15.753  0.00  0.00    +0.000 A 
ATOM      6  C   UNL     1       5.425   6.053  15.673  0.00  0.00    +0.000 A 
ATOM      7  C   UNL     1       4.702   6.521  16.767  0.00  0.00    +0.000 A 
ATOM      8  C   UNL     1       4.708   5.829  17.981  0.00  0.00    +0.000 A 
ATOM      9  C   UNL     1       5.451   4.633  18.088  0.00  0.00    +0.000 A 
ATOM     10  C   UNL     1       6.149   4.148  16.966  0.00  0.00    +0.000 A 
BRANCH   5  12
ATOM     11  C   UNL     1       6.058   3.856  13.574  0.00  0.00    +0.000 C 
ATOM     12  O   UNL     1       6.798   4.523  14.610  0.00  0.00    +0.000 OA
ENDBRANCH   5  12
BRANCH   9  13
ATOM     13  O   UNL     1       5.439   3.977  19.297  0.00  0.00    +0.000 OA
ATOM     14  C   UNL     1       4.475   2.919  19.438  0.00  0.00    +0.000 C 
ENDBRANCH   9  13
ENDBRANCH   1   8
BRANCH   2  15
ATOM     15  C   UNL     1       1.898   6.909  20.338  0.00  0.00    +0.000 C 
BRANCH  15  16
ATOM     16  N   UNL     1       1.393   8.254  20.139  0.00  0.00    +0.000 N 
ATOM     17  C   UNL     1       1.619   8.937  18.953  0.00  0.00    +0.000 C 
ATOM     18  O   UNL     1       2.037   8.506  17.900  0.00  0.00    +0.000 OA
ATOM     19  C   UNL     1       1.203  10.397  19.222  0.00  0.00    +0.000 C 
ATOM     20  O   UNL     1       1.389  11.355  18.511  0.00  0.00    +0.000 OA
ATOM     21  C   UNL     1       0.592  10.386  20.545  0.00  0.00    +0.000 A 
ATOM     22  C   UNL     1      -0.083  11.418  21.174  0.00  0.00    +0.000 A 
ATOM     23  C   UNL     1      -0.655  11.131  22.404  0.00  0.00    +0.000 A 
ATOM     24  C   UNL     1      -0.478   9.859  22.990  0.00  0.00    +0.000 A 
ATOM     25  C   UNL     1       0.256   8.837  22.341  0.00  0.00    +0.000 A 
ATOM     26  C   UNL     1       0.756   9.098  21.076  0.00  0.00    +0.000 A 
ENDBRANCH  15  16
ENDBRANCH   2  15
TORSDOF 5
ENDMDL
MODEL 2
REMARK VINA RESULT:      -7.1      2.704      7.672
REMARK  Name = 
REMARK  7 active torsions:
REMARK  status: ('A' for Active; 'I' for Inactive)
REMARK    1  A    between atoms: C_1  and  O_2
REMARK    2  A    between atoms: O_2  and  C_3
REMARK    3  A    between atoms: C_6  and  N_7
REMARK    4  A    between atoms: C_8  and  C_10
REMARK    5  A    between atoms: C_10  and  N_11
REMARK    6  A    between atoms: C_22  and  O_23
REMARK    7  A    between atoms: O_23  and  C_24
REMARK                            x       y       z     vdW  Elec       q    Type
REMARK                         _______ _______ _______ _____ _____    ______ ____
ROOT
ATOM      1  N   UNL     1       1.542   9.299  17.663  0.00  0.00    +0.000 N 
ATOM      2  C   UNL     1       1.989   8.267  18.488  0.00  0.00    +0.000 C 
ATOM      3  O   UNL     1       2.010   8.346  19.720  0.00  0.00    +0.000 OA
ATOM      4  H   UNL     1       0.945   9.017  16.891  0.00  0.00    +0.000 HD
ENDROOT
BRANCH   1   8
ATOM      5  C   UNL     1       0.963  13.207  19.199  0.00  0.00    +0.000 A 
ATOM      6  C   UNL     1       2.163  12.811  18.625  0.00  0.00    +0.000 A 
ATOM      7  C   UNL     1       2.331  11.508  18.164  0.00  0.00    +0.000 A 
ATOM      8  C   UNL     1       1.285  10.583  18.229  0.00  0.00    +0.000 A 
ATOM      9  C   UNL     1       0.047  10.981  18.782  0.00  0.00    +0.000 A 
ATOM     10  C   UNL     1      -0.101  12.290  19.279  0.00  0.00    +0.000 A 
BRANCH   5  12
ATOM     11  C   UNL     1      -0.078  15.367  19.054  0.00  0.00    +0.000 C 
ATOM     12  O   UNL     1       0.935  14.511  19.605  0.00  0.00    +0.000 OA
ENDBRANCH   5  12
BRANCH   9  13
ATOM     13  O   UNL     1      -0.963  10.048  18.829  0.00  0.00    +0.000 OA
ATOM     14  C   UNL     1      -1.980  10.160  17.819  0.00  0.00    +0.000 C 
ENDBRANCH   9  13
ENDBRANCH   1   8
BRANCH   2  15
ATOM     15  C   UNL     1       2.294   6.919  17.816  0.00  0.00    +0.000 C 
BRANCH  15  16
ATOM     16  N   UNL     1       3.052   5.914  18.538  0.00  0.00    +0.000 N 
ATOM     17  C   UNL     1       4.424   5.797  18.378  0.00  0.00    +0.000 C 
ATOM     18  O   UNL     1       5.191   6.567  17.841  0.00  0.00    +0.000 OA
ATOM     19  C   UNL     1       4.817   4.468  19.054  0.00  0.00    +0.000 C 
ATOM     20  O   UNL     1       5.884   3.907  19.004  0.00  0.00    +0.000 OA
ATOM     21  C   UNL     1       3.605   4.001  19.716  0.00  0.00    +0.000 A 
ATOM     22  C   UNL     1       3.476   2.934  20.589  0.00  0.00    +0.000 A 
ATOM     23  C   UNL     1       2.227   2.744  21.161  0.00  0.00    +0.000 A 
ATOM     24  C   UNL     1       1.144   3.573  20.793  0.00  0.00    +0.000 A 
ATOM     25  C   UNL     1       1.298   4.628  19.863  0.00  0.00    +0.000 A 
ATOM     26  C   UNL     1       2.564   4.869  19.356  0.00  0.00    +0.000 A 
ENDBRANCH  15  16
ENDBRANCH   2  15
TORSDOF 5
ENDMDL
MODEL 3
REMARK VINA RESULT:      -7.1      1.933      7.955
REMARK  Name = 
REMARK  7 active torsions:
REMARK  status: ('A' for Active; 'I' for Inactive)
REMARK    1  A    between atoms: C_1  and  O_2
REMARK    2  A    between atoms: O_2  and  C_3
REMARK    3  A    between atoms: C_6  and  N_7
REMARK    4  A    between atoms: C_8  and  C_10
REMARK    5  A    between atoms: C_10  and  N_11
REMARK    6  A    between atoms: C_22  and  O_23
REMARK    7  A    between atoms: O_23  and  C_24
REMARK                            x       y       z     vdW  Elec       q    Type
REMARK                         _______ _______ _______ _____ _____    ______ ____
ROOT
ATOM      1  N   UNL     1       2.116   7.448  20.891  0.00  0.00    +0.000 N 
ATOM      2  C   UNL     1       1.637   6.142  20.789  0.00  0.00    +0.000 C 
ATOM      3  O   UNL     1       0.458   5.871  20.543  0.00  0.00    +0.000 OA
ATOM      4  H   UNL     1       3.006   7.625  20.435  0.00  0.00    +0.000 HD
ENDROOT
BRANCH   1   8
ATOM      5  C   UNL     1      -0.587  10.697  21.215  0.00  0.00    +0.000 A 
ATOM      6  C   UNL     1      -0.197   9.950  22.317  0.00  0.00    +0.000 A 
ATOM      7  C   UNL     1       0.664   8.865  22.169  0.00  0.00    +0.000 A 
ATOM      8  C   UNL     1       1.188   8.531  20.917  0.00  0.00    +0.000 A 
ATOM      9  C   UNL     1       0.826   9.302  19.791  0.00  0.00    +0.000 A 
ATOM     10  C   UNL     1      -0.074  10.374  19.945  0.00  0.00    +0.000 A 
BRANCH   5  12
ATOM     11  C   UNL     1      -1.716  12.679  20.462  0.00  0.00    +0.000 C 
ATOM     12  O   UNL     1      -1.431  11.731  21.504  0.00  0.00    +0.000 OA
ENDBRANCH   5  12
BRANCH   9  13
ATOM     13  O   UNL     1       1.361   8.950  18.573  0.00  0.00    +0.000 OA
ATOM     14  C   UNL     1       2.060   9.985  17.861  0.00  0.00    +0.000 C 
ENDBRANCH   9  13
ENDBRANCH   1   8
BRANCH   2  15
ATOM     15  C   UNL     1       2.679   5.012  20.812  0.00  0.00    +0.000 C 
BRANCH  15  16
ATOM     16  N   UNL     1       3.035   4.340  19.577  0.00  0.00    +0.000 N 
ATOM     17  C   UNL     1       2.736   3.001  19.376  0.00  0.00    +0.000 C 
ATOM     18  O   UNL     1       2.006   2.283  20.026  0.00  0.00    +0.000 OA
ATOM     19  C   UNL     1       3.513   2.579  18.113  0.00  0.00    +0.000 C 
ATOM     20  O   UNL     1       3.661   1.462  17.682  0.00  0.00    +0.000 OA
ATOM     21  C   UNL     1       4.082   3.812  17.582  0.00  0.00    +0.000 A 
ATOM     22  C   UNL     1       4.733   3.991  16.374  0.00  0.00    +0.000 A 
ATOM     23  C   UNL     1       5.108   5.288  16.054  0.00  0.00    +0.000 A 
ATOM     24  C   UNL     1       4.885   6.338  16.971  0.00  0.00    +0.000 A 
ATOM     25  C   UNL     1       4.256   6.115  18.218  0.00  0.00    +0.000 A 
ATOM     26  C   UNL     1       3.807   4.835  18.501  0.00  0.00    +0.000 A 
ENDBRANCH  15  16
ENDBRANCH   2  15
TORSDOF 5
ENDMDL
MODEL 4
REMARK VINA RESULT:      -7.0      2.130      8.250
REMARK  Name = 
REMARK  7 active torsions:
REMARK  status: ('A' for Active; 'I' for Inactive)
REMARK    1  A    between atoms: C_1  and  O_2
REMARK    2  A    between atoms: O_2  and  C_3
REMARK    3  A    between atoms: C_6  and  N_7
REMARK    4  A    between atoms: C_8  and  C_10
REMARK    5  A    between atoms: C_10  and  N_11
REMARK    6  A    between atoms: C_22  and  O_23
REMARK    7  A    between atoms: O_23  and  C_24
REMARK                            x       y       z     vdW  Elec       q    Type
REMARK                         _______ _______ _______ _____ _____    ______ ____
ROOT
ATOM      1  N   UNL     1       1.340   9.173  18.609  0.00  0.00    +0.000 N 
ATOM      2  C   UNL     1       2.260   8.140  18.789  0.00  0.00    +0.000 C 
ATOM      3  O   UNL     1       2.461   7.594  19.878  0.00  0.00    +0.000 OA
ATOM      4  H   UNL     1       0.762   9.106  17.777  0.00  0.00    +0.000 HD
ENDROOT
BRANCH   1   8
ATOM      5  C   UNL     1      -0.399  10.758  22.135  0.00  0.00    +0.000 A 
ATOM      6  C   UNL     1      -0.326   9.393  21.898  0.00  0.00    +0.000 A 
ATOM      7  C   UNL     1       0.218   8.908  20.712  0.00  0.00    +0.000 A 
ATOM      8  C   UNL     1       0.742   9.780  19.753  0.00  0.00    +0.000 A 
ATOM      9  C   UNL     1       0.704  11.171  19.994  0.00  0.00    +0.000 A 
ATOM     10  C   UNL     1       0.117  11.653  21.180  0.00  0.00    +0.000 A 
BRANCH   5  12
ATOM     11  C   UNL     1      -1.969  12.110  23.349  0.00  0.00    +0.000 C 
ATOM     12  O   UNL     1      -0.954  11.094  23.337  0.00  0.00    +0.000 OA
ENDBRANCH   5  12
BRANCH   9  13
ATOM     13  O   UNL     1       1.230  12.003  19.033  0.00  0.00    +0.000 OA
ATOM     14  C   UNL     1       0.365  13.046  18.551  0.00  0.00    +0.000 C 
ENDBRANCH   9  13
ENDBRANCH   1   8
BRANCH   2  15
ATOM     15  C   UNL     1       2.908   7.554  17.524  0.00  0.00    +0.000 C 
BRANCH  15  16
ATOM     16  N   UNL     1       3.577   6.269  17.591  0.00  0.00    +0.000 N 
ATOM     17  C   UNL     1       4.946   6.162  17.402  0.00  0.00    +0.000 C 
ATOM     18  O   UNL     1       5.778   7.044  17.374  0.00  0.00    +0.000 OA
ATOM     19  C   UNL     1       5.235   4.654  17.252  0.00  0.00    +0.000 C 
ATOM     20  O   UNL     1       6.272   4.136  16.913  0.00  0.00    +0.000 OA
ATOM     21  C   UNL     1       3.972   3.990  17.548  0.00  0.00    +0.000 A 
ATOM     22  C   UNL     1       3.747   2.633  17.703  0.00  0.00    +0.000 A 
ATOM     23  C   UNL     1       2.465   2.251  18.072  0.00  0.00    +0.000 A 
ATOM     24  C   UNL     1       1.447   3.221  18.205  0.00  0.00    +0.000 A 
ATOM     25  C   UNL     1       1.699   4.597  17.996  0.00  0.00    +0.000 A 
ATOM     26  C   UNL     1       2.997   4.985  17.709  0.00  0.00    +0.000 A 
ENDBRANCH  15  16
ENDBRANCH   2  15
TORSDOF 5
ENDMDL
MODEL 5
REMARK VINA RESULT:      -7.0      1.022      1.140
REMARK  Name = 
REMARK  7 active torsions:
REMARK  status: ('A' for Active; 'I' for Inactive)
REMARK    1  A    between atoms: C_1  and  O_2
REMARK    2  A    between atoms: O_2  and  C_3
REMARK    3  A    between atoms: C_6  and  N_7
REMARK    4  A    between atoms: C_8  and  C_10
REMARK    5  A    between atoms: C_10  and  N_11
REMARK    6  A    between atoms: C_22  and  O_23
REMARK    7  A    between atoms: O_23  and  C_24
REMARK                            x       y       z     vdW  Elec       q    Type
REMARK                         _______ _______ _______ _____ _____    ______ ____
ROOT
ATOM      1  N   UNL     1       4.549   6.369  18.553  0.00  0.00    +0.000 N 
ATOM      2  C   UNL     1       3.194   6.079  18.707  0.00  0.00    +0.000 C 
ATOM      3  O   UNL     1       2.612   5.202  18.062  0.00  0.00    +0.000 OA
ATOM      4  H   UNL     1       5.066   6.516  19.414  0.00  0.00    +0.000 HD
ENDROOT
BRANCH   1   8
ATOM      5  C   UNL     1       6.607   4.819  15.187  0.00  0.00    +0.000 A 
ATOM      6  C   UNL     1       5.519   5.671  15.058  0.00  0.00    +0.000 A 
ATOM      7  C   UNL     1       4.843   6.132  16.185  0.00  0.00    +0.000 A 
ATOM      8  C   UNL     1       5.269   5.783  17.470  0.00  0.00    +0.000 A 
ATOM      9  C   UNL     1       6.394   4.943  17.618  0.00  0.00    +0.000 A 
ATOM     10  C   UNL     1       7.048   4.452  16.472  0.00  0.00    +0.000 A 
BRANCH   5  12
ATOM     11  C   UNL     1       6.347   3.772  13.042  0.00  0.00    +0.000 C 
ATOM     12  O   UNL     1       7.175   4.446  14.003  0.00  0.00    +0.000 OA
ENDBRANCH   5  12
BRANCH   9  13
ATOM     13  O   UNL     1       6.790   4.621  18.896  0.00  0.00    +0.000 OA
ATOM     14  C   UNL     1       7.778   5.480  19.492  0.00  0.00    +0.000 C 
ENDBRANCH   9  13
ENDBRANCH   1   8
BRANCH   2  15
ATOM     15  C   UNL     1       2.457   6.775  19.863  0.00  0.00    +0.000 C 
BRANCH  15  16
ATOM     16  N   UNL     1       1.822   8.060  19.640  0.00  0.00    +0.000 N 
ATOM     17  C   UNL     1       2.019   8.762  18.461  0.00  0.00    +0.000 C 
ATOM     18  O   UNL     1       2.519   8.377  17.425  0.00  0.00    +0.000 OA
ATOM     19  C   UNL     1       1.444  10.171  18.707  0.00  0.00    +0.000 C 
ATOM     20  O   UNL     1       1.555  11.143  18.000  0.00  0.00    +0.000 OA
ATOM     21  C   UNL     1       0.789  10.096  20.007  0.00  0.00    +0.000 A 
ATOM     22  C   UNL     1      -0.012  11.053  20.606  0.00  0.00    +0.000 A 
ATOM     23  C   UNL     1      -0.597  10.709  21.816  0.00  0.00    +0.000 A 
ATOM     24  C   UNL     1      -0.309   9.462  22.413  0.00  0.00    +0.000 A 
ATOM     25  C   UNL     1       0.550   8.522  21.797  0.00  0.00    +0.000 A 
ATOM     26  C   UNL     1       1.066   8.833  20.550  0.00  0.00    +0.000 A 
ENDBRANCH  15  16
ENDBRANCH   2  15
TORSDOF 5
ENDMDL
MODEL 6
REMARK VINA RESULT:      -7.0      2.235      8.096
REMARK  Name = 
REMARK  7 active torsions:
REMARK  status: ('A' for Active; 'I' for Inactive)
REMARK    1  A    between atoms: C_1  and  O_2
REMARK    2  A    between atoms: O_2  and  C_3
REMARK    3  A    between atoms: C_6  and  N_7
REMARK    4  A    between atoms: C_8  and  C_10
REMARK    5  A    between atoms: C_10  and  N_11
REMARK    6  A    between atoms: C_22  and  O_23
REMARK    7  A    between atoms: O_23  and  C_24
REMARK                            x       y       z     vdW  Elec       q    Type
REMARK                         _______ _______ _______ _____ _____    ______ ____
ROOT
ATOM      1  N   UNL     1       1.641   9.480  17.676  0.00  0.00    +0.000 N 
ATOM      2  C   UNL     1       2.297   8.363  18.193  0.00  0.00    +0.000 C 
ATOM      3  O   UNL     1       2.051   7.888  19.305  0.00  0.00    +0.000 OA
ATOM      4  H   UNL     1       1.365   9.414  16.701  0.00  0.00    +0.000 HD
ENDROOT
BRANCH   1   8
ATOM      5  C   UNL     1      -0.688  11.900  20.262  0.00  0.00    +0.000 A 
ATOM      6  C   UNL     1       0.693  11.818  20.374  0.00  0.00    +0.000 A 
ATOM      7  C   UNL     1       1.423  10.984  19.532  0.00  0.00    +0.000 A 
ATOM      8  C   UNL     1       0.790  10.244  18.528  0.00  0.00    +0.000 A 
ATOM      9  C   UNL     1      -0.611  10.343  18.381  0.00  0.00    +0.000 A 
ATOM     10  C   UNL     1      -1.345  11.160  19.262  0.00  0.00    +0.000 A 
BRANCH   5  12
ATOM     11  C   UNL     1      -1.304  12.375  22.534  0.00  0.00    +0.000 C 
ATOM     12  O   UNL     1      -1.275  12.756  21.149  0.00  0.00    +0.000 OA
ENDBRANCH   5  12
BRANCH   9  13
ATOM     13  O   UNL     1      -1.204   9.605  17.382  0.00  0.00    +0.000 OA
ATOM     14  C   UNL     1      -2.556   9.960  17.046  0.00  0.00    +0.000 C 
ENDBRANCH   9  13
ENDBRANCH   1   8
BRANCH   2  15
ATOM     15  C   UNL     1       3.238   7.604  17.243  0.00  0.00    +0.000 C 
BRANCH  15  16
ATOM     16  N   UNL     1       3.812   6.339  17.661  0.00  0.00    +0.000 N 
ATOM     17  C   UNL     1       5.180   6.193  17.831  0.00  0.00    +0.000 C 
ATOM     18  O   UNL     1       6.033   7.053  17.875  0.00  0.00    +0.000 OA
ATOM     19  C   UNL     1       5.427   4.679  17.982  0.00  0.00    +0.000 C 
ATOM     20  O   UNL     1       6.490   4.106  17.987  0.00  0.00    +0.000 OA
ATOM     21  C   UNL     1       4.101   4.078  18.056  0.00  0.00    +0.000 A 
ATOM     22  C   UNL     1       3.783   2.763  18.351  0.00  0.00    +0.000 A 
ATOM     23  C   UNL     1       2.434   2.455  18.449  0.00  0.00    +0.000 A 
ATOM     24  C   UNL     1       1.460   3.441  18.183  0.00  0.00    +0.000 A 
ATOM     25  C   UNL     1       1.817   4.766  17.840  0.00  0.00    +0.000 A 
ATOM     26  C   UNL     1       3.162   5.094  17.825  0.00  0.00    +0.000 A 
ENDBRANCH  15  16
ENDBRANCH   2  15
TORSDOF 5
ENDMDL
MODEL 7
REMARK VINA RESULT:      -7.0      1.916      7.881
REMARK  Name = 
REMARK  7 active torsions:
REMARK  status: ('A' for Active; 'I' for Inactive)
REMARK    1  A    between atoms: C_1  and  O_2
REMARK    2  A    between atoms: O_2  and  C_3
REMARK    3  A    between atoms: C_6  and  N_7
REMARK    4  A    between atoms: C_8  and  C_10
REMARK    5  A    between atoms: C_10  and  N_11
REMARK    6  A    between atoms: C_22  and  O_23
REMARK    7  A    between atoms: O_23  and  C_24
REMARK                            x       y       z     vdW  Elec       q    Type
REMARK                         _______ _______ _______ _____ _____    ______ ____
ROOT
ATOM      1  N   UNL     1       3.315   6.026  18.065  0.00  0.00    +0.000 N 
ATOM      2  C   UNL     1       2.650   4.869  17.662  0.00  0.00    +0.000 C 
ATOM      3  O   UNL     1       1.420   4.766  17.643  0.00  0.00    +0.000 OA
ATOM      4  H   UNL     1       4.101   6.304  17.486  0.00  0.00    +0.000 HD
ENDROOT
BRANCH   1   8
ATOM      5  C   UNL     1       1.026   9.221  19.653  0.00  0.00    +0.000 A 
ATOM      6  C   UNL     1       1.451   9.204  18.332  0.00  0.00    +0.000 A 
ATOM      7  C   UNL     1       2.233   8.156  17.854  0.00  0.00    +0.000 A 
ATOM      8  C   UNL     1       2.573   7.079  18.677  0.00  0.00    +0.000 A 
ATOM      9  C   UNL     1       2.121   7.067  20.015  0.00  0.00    +0.000 A 
ATOM     10  C   UNL     1       1.362   8.149  20.501  0.00  0.00    +0.000 A 
BRANCH   5  12
ATOM     11  C   UNL     1       0.893  11.364  20.729  0.00  0.00    +0.000 C 
ATOM     12  O   UNL     1       0.266  10.305  19.988  0.00  0.00    +0.000 OA
ENDBRANCH   5  12
BRANCH   9  13
ATOM     13  O   UNL     1       2.469   5.991  20.800  0.00  0.00    +0.000 OA
ATOM     14  C   UNL     1       1.477   4.960  20.944  0.00  0.00    +0.000 C 
ENDBRANCH   9  13
ENDBRANCH   1   8
BRANCH   2  15
ATOM     15  C   UNL     1       3.506   3.748  17.050  0.00  0.00    +0.000 C 
BRANCH  15  16
ATOM     16  N   UNL     1       4.888   4.014  16.695  0.00  0.00    +0.000 N 
ATOM     17  C   UNL     1       5.841   4.270  17.669  0.00  0.00    +0.000 C 
ATOM     18  O   UNL     1       5.759   4.116  18.868  0.00  0.00    +0.000 OA
ATOM     19  C   UNL     1       7.085   4.785  16.916  0.00  0.00    +0.000 C 
ATOM     20  O   UNL     1       8.080   5.274  17.393  0.00  0.00    +0.000 OA
ATOM     21  C   UNL     1       6.777   4.613  15.502  0.00  0.00    +0.000 A 
ATOM     22  C   UNL     1       7.630   4.779  14.425  0.00  0.00    +0.000 A 
ATOM     23  C   UNL     1       7.121   4.467  13.172  0.00  0.00    +0.000 A 
ATOM     24  C   UNL     1       5.773   4.072  13.033  0.00  0.00    +0.000 A 
ATOM     25  C   UNL     1       4.913   3.955  14.150  0.00  0.00    +0.000 A 
ATOM     26  C   UNL     1       5.445   4.185  15.407  0.00  0.00    +0.000 A 
ENDBRANCH  15  16
ENDBRANCH   2  15
TORSDOF 5
ENDMDL
MODEL 8
REMARK VINA RESULT:      -6.9      2.229      8.028
REMARK  Name = 
REMARK  7 active torsions:
REMARK  status: ('A' for Active; 'I' for Inactive)
REMARK    1  A    between atoms: C_1  and  O_2
REMARK    2  A    between atoms: O_2  and  C_3
REMARK    3  A    between atoms: C_6  and  N_7
REMARK    4  A    between atoms: C_8  and  C_10
REMARK    5  A    between atoms: C_10  and  N_11
REMARK    6  A    between atoms: C_22  and  O_23
REMARK    7  A    between atoms: O_23  and  C_24
REMARK                            x       y       z     vdW  Elec       q    Type
REMARK                         _______ _______ _______ _____ _____    ______ ____
ROOT
ATOM      1  N   UNL     1       1.158   9.254  18.631  0.00  0.00    +0.000 N 
ATOM      2  C   UNL     1       1.878   8.201  19.195  0.00  0.00    +0.000 C 
ATOM      3  O   UNL     1       2.039   8.066  20.411  0.00  0.00    +0.000 OA
ATOM      4  H   UNL     1       0.529   9.000  17.876  0.00  0.00    +0.000 HD
ENDROOT
BRANCH   1   8
ATOM      5  C   UNL     1      -0.124  12.321  21.260  0.00  0.00    +0.000 A 
ATOM      6  C   UNL     1      -0.644  11.036  21.317  0.00  0.00    +0.000 A 
ATOM      7  C   UNL     1      -0.227  10.063  20.413  0.00  0.00    +0.000 A 
ATOM      8  C   UNL     1       0.754  10.343  19.457  0.00  0.00    +0.000 A 
ATOM      9  C   UNL     1       1.316  11.638  19.408  0.00  0.00    +0.000 A 
ATOM     10  C   UNL     1       0.861  12.626  20.302  0.00  0.00    +0.000 A 
BRANCH   5  12
ATOM     11  C   UNL     1      -1.651  12.684  23.078  0.00  0.00    +0.000 C 
ATOM     12  O   UNL     1      -0.620  13.173  22.205  0.00  0.00    +0.000 OA
ENDBRANCH   5  12
BRANCH   9  13
ATOM     13  O   UNL     1       2.282  11.882  18.459  0.00  0.00    +0.000 OA
ATOM     14  C   UNL     1       2.502  13.261  18.114  0.00  0.00    +0.000 C 
ENDBRANCH   9  13
ENDBRANCH   1   8
BRANCH   2  15
ATOM     15  C   UNL     1       2.328   7.076  18.249  0.00  0.00    +0.000 C 
BRANCH  15  16
ATOM     16  N   UNL     1       3.080   5.953  18.776  0.00  0.00    +0.000 N 
ATOM     17  C   UNL     1       4.418   5.773  18.458  0.00  0.00    +0.000 C 
ATOM     18  O   UNL     1       5.180   6.551  17.925  0.00  0.00    +0.000 OA
ATOM     19  C   UNL     1       4.780   4.356  18.945  0.00  0.00    +0.000 C 
ATOM     20  O   UNL     1       5.795   3.741  18.723  0.00  0.00    +0.000 OA
ATOM     21  C   UNL     1       3.611   3.892  19.682  0.00  0.00    +0.000 A 
ATOM     22  C   UNL     1       3.494   2.745  20.448  0.00  0.00    +0.000 A 
ATOM     23  C   UNL     1       2.298   2.567  21.127  0.00  0.00    +0.000 A 
ATOM     24  C   UNL     1       1.246   3.495  20.966  0.00  0.00    +0.000 A 
ATOM     25  C   UNL     1       1.381   4.636  20.140  0.00  0.00    +0.000 A 
ATOM     26  C   UNL     1       2.603   4.856  19.529  0.00  0.00    +0.000 A 
ENDBRANCH  15  16
ENDBRANCH   2  15
TORSDOF 5
ENDMDL
MODEL 9
REMARK VINA RESULT:      -6.9      2.069      8.096
REMARK  Name = 
REMARK  7 active torsions:
REMARK  status: ('A' for Active; 'I' for Inactive)
REMARK    1  A    between atoms: C_1  and  O_2
REMARK    2  A    between atoms: O_2  and  C_3
REMARK    3  A    between atoms: C_6  and  N_7
REMARK    4  A    between atoms: C_8  and  C_10
REMARK    5  A    between atoms: C_10  and  N_11
REMARK    6  A    between atoms: C_22  and  O_23
REMARK    7  A    between atoms: O_23  and  C_24
REMARK                            x       y       z     vdW  Elec       q    Type
REMARK                         _______ _______ _______ _____ _____    ______ ____
ROOT
ATOM      1  N   UNL     1       1.739   9.538  17.663  0.00  0.00    +0.000 N 
ATOM      2  C   UNL     1       2.367   8.398  18.165  0.00  0.00    +0.000 C 
ATOM      3  O   UNL     1       2.247   8.019  19.333  0.00  0.00    +0.000 OA
ATOM      4  H   UNL     1       1.318   9.437  16.744  0.00  0.00    +0.000 HD
ENDROOT
BRANCH   1   8
ATOM      5  C   UNL     1      -0.278  11.989  20.472  0.00  0.00    +0.000 A 
ATOM      6  C   UNL     1      -0.664  10.678  20.226  0.00  0.00    +0.000 A 
ATOM      7  C   UNL     1      -0.002   9.914  19.269  0.00  0.00    +0.000 A 
ATOM      8  C   UNL     1       1.090  10.431  18.566  0.00  0.00    +0.000 A 
ATOM      9  C   UNL     1       1.514  11.752  18.829  0.00  0.00    +0.000 A 
ATOM     10  C   UNL     1       0.815  12.530  19.771  0.00  0.00    +0.000 A 
BRANCH   5  12
ATOM     11  C   UNL     1      -1.258  11.918  22.663  0.00  0.00    +0.000 C 
ATOM     12  O   UNL     1      -1.011  12.621  21.435  0.00  0.00    +0.000 OA
ENDBRANCH   5  12
BRANCH   9  13
ATOM     13  O   UNL     1       2.594  12.231  18.123  0.00  0.00    +0.000 OA
ATOM     14  C   UNL     1       2.970  13.594  18.382  0.00  0.00    +0.000 C 
ENDBRANCH   9  13
ENDBRANCH   1   8
BRANCH   2  15
ATOM     15  C   UNL     1       3.089   7.495  17.152  0.00  0.00    +0.000 C 
BRANCH  15  16
ATOM     16  N   UNL     1       3.709   6.263  17.604  0.00  0.00    +0.000 N 
ATOM     17  C   UNL     1       5.082   6.170  17.769  0.00  0.00    +0.000 C 
ATOM     18  O   UNL     1       5.905   7.060  17.783  0.00  0.00    +0.000 OA
ATOM     19  C   UNL     1       5.383   4.670  17.962  0.00  0.00    +0.000 C 
ATOM     20  O   UNL     1       6.465   4.135  17.978  0.00  0.00    +0.000 OA
ATOM     21  C   UNL     1       4.079   4.026  18.062  0.00  0.00    +0.000 A 
ATOM     22  C   UNL     1       3.809   2.711  18.397  0.00  0.00    +0.000 A 
ATOM     23  C   UNL     1       2.472   2.358  18.512  0.00  0.00    +0.000 A 
ATOM     24  C   UNL     1       1.462   3.302  18.223  0.00  0.00    +0.000 A 
ATOM     25  C   UNL     1       1.771   4.628  17.839  0.00  0.00    +0.000 A 
ATOM     26  C   UNL     1       3.104   5.002  17.807  0.00  0.00    +0.000 A 
ENDBRANCH  15  16
ENDBRANCH   2  15
TORSDOF 5
ENDMDL
