MODEL 1
REMARK VINA RESULT:      -6.7      0.000      0.000
REMARK  Name = 
REMARK  5 active torsions:
REMARK  status: ('A' for Active; 'I' for Inactive)
REMARK    1  A    between atoms: C_1  and  C_2
REMARK    2  A    between atoms: C_2  and  C_3
REMARK    3  A    between atoms: C_3  and  N_4
REMARK    4  A    between atoms: C_9  and  C_10
REMARK    5  A    between atoms: N_17  and  C_18
REMARK                            x       y       z     vdW  Elec       q    Type
REMARK                         _______ _______ _______ _____ _____    ______ ____
ROOT
ATOM      1  N   UNL     1       3.910   4.745  18.389  0.00  0.00    +0.000 N 
ATOM      2  C   UNL     1       3.579   6.102  18.194  0.00  0.00    +0.000 A 
ATOM      3  O   UNL     1       3.980   6.773  17.249  0.00  0.00    +0.000 OA
ATOM      4  C   UNL     1       2.717   6.631  19.229  0.00  0.00    +0.000 A 
ATOM      5  N   UNL     1       2.177   7.892  19.352  0.00  0.00    +0.000 NA
ATOM      6  C   UNL     1       1.509   7.871  20.490  0.00  0.00    +0.000 A 
ATOM      7  N   UNL     1       1.585   6.635  21.084  0.00  0.00    +0.000 N 
ATOM      8  C   UNL     1       2.335   5.840  20.272  0.00  0.00    +0.000 A 
ATOM      9  N   UNL     1       2.662   4.515  20.438  0.00  0.00    +0.000 N 
ATOM     10  C   UNL     1       2.193   3.670  21.519  0.00  0.00    +0.000 C 
ATOM     11  C   UNL     1       3.483   3.927  19.456  0.00  0.00    +0.000 A 
ATOM     12  O   UNL     1       3.806   2.737  19.539  0.00  0.00    +0.000 OA
ATOM     13  H   UNL     1       1.163   6.385  21.964  0.00  0.00    +0.000 HD
ENDROOT
BRANCH   6  14
ATOM     14  C   UNL     1       0.776   9.036  21.072  0.00  0.00    +0.000 A 
ATOM     15  C   UNL     1       0.063   9.038  22.308  0.00  0.00    +0.000 A 
ATOM     16  C   UNL     1      -0.482  10.273  22.588  0.00  0.00    +0.000 A 
ATOM     17  S   UNL     1      -0.158  11.414  21.354  0.00  0.00    +0.000 S 
ATOM     18  C   UNL     1       0.730  10.263  20.448  0.00  0.00    +0.000 A 
ENDBRANCH   6  14
BRANCH   1  19
ATOM     19  C   UNL     1       4.793   4.138  17.397  0.00  0.00    +0.000 C 
BRANCH  19  21
ATOM     20  C   UNL     1       7.036   4.688  16.387  0.00  0.00    +0.000 C 
ATOM     21  C   UNL     1       6.268   4.445  17.677  0.00  0.00    +0.000 C 
ENDBRANCH  19  21
ENDBRANCH   1  19
TORSDOF 3
ENDMDL
MODEL 2
REMARK VINA RESULT:      -6.6      1.557      2.107
REMARK  Name = 
REMARK  5 active torsions:
REMARK  status: ('A' for Active; 'I' for Inactive)
REMARK    1  A    between atoms: C_1  and  C_2
REMARK    2  A    between atoms: C_2  and  C_3
REMARK    3  A    between atoms: C_3  and  N_4
REMARK    4  A    between atoms: C_9  and  C_10
REMARK    5  A    between atoms: N_17  and  C_18
REMARK                            x       y       z     vdW  Elec       q    Type
REMARK                         _______ _______ _______ _____ _____    ______ ____
ROOT
ATOM      1  N   UNL     1       5.228   5.163  17.526  0.00  0.00    +0.000 N 
ATOM      2  C   UNL     1       4.753   6.408  17.066  0.00  0.00    +0.000 A 
ATOM      3  O   UNL     1       5.211   6.995  16.090  0.00  0.00    +0.000 OA
ATOM      4  C   UNL     1       3.668   6.933  17.866  0.00  0.00    +0.000 A 
ATOM      5  N   UNL     1       2.949   8.097  17.702  0.00  0.00    +0.000 NA
ATOM      6  C   UNL     1       2.111   8.130  18.722  0.00  0.00    +0.000 A 
ATOM      7  N   UNL     1       2.254   7.018  19.514  0.00  0.00    +0.000 N 
ATOM      8  C   UNL     1       3.229   6.247  18.959  0.00  0.00    +0.000 A 
ATOM      9  N   UNL     1       3.701   5.027  19.385  0.00  0.00    +0.000 N 
ATOM     10  C   UNL     1       3.178   4.279  20.511  0.00  0.00    +0.000 C 
ATOM     11  C   UNL     1       4.745   4.446  18.640  0.00  0.00    +0.000 A 
ATOM     12  O   UNL     1       5.208   3.346  18.962  0.00  0.00    +0.000 OA
ATOM     13  H   UNL     1       1.730   6.830  20.354  0.00  0.00    +0.000 HD
ENDROOT
BRANCH   6  14
ATOM     14  C   UNL     1       1.141   9.234  18.994  0.00  0.00    +0.000 A 
ATOM     15  C   UNL     1       0.369   9.924  18.012  0.00  0.00    +0.000 A 
ATOM     16  C   UNL     1      -0.459  10.871  18.578  0.00  0.00    +0.000 A 
ATOM     17  S   UNL     1      -0.285  10.942  20.280  0.00  0.00    +0.000 S 
ATOM     18  C   UNL     1       0.886   9.692  20.267  0.00  0.00    +0.000 A 
ENDBRANCH   6  14
BRANCH   1  19
ATOM     19  C   UNL     1       6.337   4.571  16.782  0.00  0.00    +0.000 C 
BRANCH  19  21
ATOM     20  C   UNL     1       6.480   4.214  14.291  0.00  0.00    +0.000 C 
ATOM     21  C   UNL     1       5.851   3.738  15.592  0.00  0.00    +0.000 C 
ENDBRANCH  19  21
ENDBRANCH   1  19
TORSDOF 3
ENDMDL
MODEL 3
REMARK VINA RESULT:      -6.5      0.868      1.187
REMARK  Name = 
REMARK  5 active torsions:
REMARK  status: ('A' for Active; 'I' for Inactive)
REMARK    1  A    between atoms: C_1  and  C_2
REMARK    2  A    between atoms: C_2  and  C_3
REMARK    3  A    between atoms: C_3  and  N_4
REMARK    4  A    between atoms: C_9  and  C_10
REMARK    5  A    between atoms: N_17  and  C_18
REMARK                            x       y       z     vdW  Elec       q    Type
REMARK                         _______ _______ _______ _____ _____    ______ ____
ROOT
ATOM      1  N   UNL     1       4.414   4.897  18.250  0.00  0.00    +0.000 N 
ATOM      2  C   UNL     1       4.030   6.244  18.091  0.00  0.00    +0.000 A 
ATOM      3  O   UNL     1       4.486   6.986  17.226  0.00  0.00    +0.000 OA
ATOM      4  C   UNL     1       3.042   6.672  19.058  0.00  0.00    +0.000 A 
ATOM      5  N   UNL     1       2.425   7.897  19.188  0.00  0.00    +0.000 NA
ATOM      6  C   UNL     1       1.649   7.779  20.250  0.00  0.00    +0.000 A 
ATOM      7  N   UNL     1       1.733   6.517  20.785  0.00  0.00    +0.000 N 
ATOM      8  C   UNL     1       2.602   5.807  20.015  0.00  0.00    +0.000 A 
ATOM      9  N   UNL     1       2.983   4.492  20.146  0.00  0.00    +0.000 N 
ATOM     10  C   UNL     1       2.456   3.566  21.129  0.00  0.00    +0.000 C 
ATOM     11  C   UNL     1       3.928   4.001  19.224  0.00  0.00    +0.000 A 
ATOM     12  O   UNL     1       4.306   2.826  19.279  0.00  0.00    +0.000 OA
ATOM     13  H   UNL     1       1.240   6.198  21.604  0.00  0.00    +0.000 HD
ENDROOT
BRANCH   6  14
ATOM     14  C   UNL     1       0.800   8.873  20.812  0.00  0.00    +0.000 A 
ATOM     15  C   UNL     1       0.065   9.830  20.051  0.00  0.00    +0.000 A 
ATOM     16  C   UNL     1      -0.648  10.693  20.857  0.00  0.00    +0.000 A 
ATOM     17  S   UNL     1      -0.410  10.365  22.520  0.00  0.00    +0.000 S 
ATOM     18  C   UNL     1       0.634   9.053  22.167  0.00  0.00    +0.000 A 
ENDBRANCH   6  14
BRANCH   1  19
ATOM     19  C   UNL     1       5.422   4.391  17.323  0.00  0.00    +0.000 C 
BRANCH  19  21
ATOM     20  C   UNL     1       5.806   4.220  14.838  0.00  0.00    +0.000 C 
ATOM     21  C   UNL     1       4.816   4.000  15.971  0.00  0.00    +0.000 C 
ENDBRANCH  19  21
ENDBRANCH   1  19
TORSDOF 3
ENDMDL
MODEL 4
REMARK VINA RESULT:      -6.5      4.077      7.205
REMARK  Name = 
REMARK  5 active torsions:
REMARK  status: ('A' for Active; 'I' for Inactive)
REMARK    1  A    between atoms: C_1  and  C_2
REMARK    2  A    between atoms: C_2  and  C_3
REMARK    3  A    between atoms: C_3  and  N_4
REMARK    4  A    between atoms: C_9  and  C_10
REMARK    5  A    between atoms: N_17  and  C_18
REMARK                            x       y       z     vdW  Elec       q    Type
REMARK                         _______ _______ _______ _____ _____    ______ ____
ROOT
ATOM      1  N   UNL     1       3.089   4.048  19.790  0.00  0.00    +0.000 N 
ATOM      2  C   UNL     1       3.850   3.225  18.933  0.00  0.00    +0.000 A 
ATOM      3  O   UNL     1       4.107   2.048  19.167  0.00  0.00    +0.000 OA
ATOM      4  C   UNL     1       4.307   3.912  17.744  0.00  0.00    +0.000 A 
ATOM      5  N   UNL     1       5.044   3.426  16.686  0.00  0.00    +0.000 NA
ATOM      6  C   UNL     1       5.232   4.463  15.893  0.00  0.00    +0.000 A 
ATOM      7  N   UNL     1       4.622   5.586  16.395  0.00  0.00    +0.000 N 
ATOM      8  C   UNL     1       4.016   5.232  17.562  0.00  0.00    +0.000 A 
ATOM      9  N   UNL     1       3.263   6.013  18.407  0.00  0.00    +0.000 N 
ATOM     10  C   UNL     1       2.907   7.397  18.164  0.00  0.00    +0.000 C 
ATOM     11  C   UNL     1       2.767   5.403  19.575  0.00  0.00    +0.000 A 
ATOM     12  O   UNL     1       2.074   6.046  20.372  0.00  0.00    +0.000 OA
ATOM     13  H   UNL     1       4.638   6.499  15.968  0.00  0.00    +0.000 HD
ENDROOT
BRANCH   6  14
ATOM     14  C   UNL     1       6.015   4.434  14.620  0.00  0.00    +0.000 A 
ATOM     15  C   UNL     1       5.697   3.659  13.465  0.00  0.00    +0.000 A 
ATOM     16  C   UNL     1       6.594   3.870  12.439  0.00  0.00    +0.000 A 
ATOM     17  S   UNL     1       7.826   4.975  12.878  0.00  0.00    +0.000 S 
ATOM     18  C   UNL     1       7.151   5.190  14.438  0.00  0.00    +0.000 A 
ENDBRANCH   6  14
BRANCH   1  19
ATOM     19  C   UNL     1       2.604   3.434  21.023  0.00  0.00    +0.000 C 
BRANCH  19  21
ATOM     20  C   UNL     1       0.728   2.777  19.474  0.00  0.00    +0.000 C 
ATOM     21  C   UNL     1       1.132   3.023  20.920  0.00  0.00    +0.000 C 
ENDBRANCH  19  21
ENDBRANCH   1  19
TORSDOF 3
ENDMDL
MODEL 5
REMARK VINA RESULT:      -6.3      1.734      2.423
REMARK  Name = 
REMARK  5 active torsions:
REMARK  status: ('A' for Active; 'I' for Inactive)
REMARK    1  A    between atoms: C_1  and  C_2
REMARK    2  A    between atoms: C_2  and  C_3
REMARK    3  A    between atoms: C_3  and  N_4
REMARK    4  A    between atoms: C_9  and  C_10
REMARK    5  A    between atoms: N_17  and  C_18
REMARK                            x       y       z     vdW  Elec       q    Type
REMARK                         _______ _______ _______ _____ _____    ______ ____
ROOT
ATOM      1  N   UNL     1       4.914   4.831  16.616  0.00  0.00    +0.000 N 
ATOM      2  C   UNL     1       4.758   6.232  16.595  0.00  0.00    +0.000 A 
ATOM      3  O   UNL     1       5.444   6.985  15.910  0.00  0.00    +0.000 OA
ATOM      4  C   UNL     1       3.707   6.701  17.472  0.00  0.00    +0.000 A 
ATOM      5  N   UNL     1       3.261   7.986  17.687  0.00  0.00    +0.000 NA
ATOM      6  C   UNL     1       2.323   7.875  18.610  0.00  0.00    +0.000 A 
ATOM      7  N   UNL     1       2.140   6.563  18.972  0.00  0.00    +0.000 N 
ATOM      8  C   UNL     1       3.004   5.814  18.233  0.00  0.00    +0.000 A 
ATOM      9  N   UNL     1       3.166   4.449  18.231  0.00  0.00    +0.000 N 
ATOM     10  C   UNL     1       2.365   3.514  18.998  0.00  0.00    +0.000 C 
ATOM     11  C   UNL     1       4.160   3.920  17.384  0.00  0.00    +0.000 A 
ATOM     12  O   UNL     1       4.350   2.700  17.326  0.00  0.00    +0.000 OA
ATOM     13  H   UNL     1       1.487   6.236  19.665  0.00  0.00    +0.000 HD
ENDROOT
BRANCH   6  14
ATOM     14  C   UNL     1       1.565   9.020  19.199  0.00  0.00    +0.000 A 
ATOM     15  C   UNL     1       1.243  10.238  18.528  0.00  0.00    +0.000 A 
ATOM     16  C   UNL     1       0.509  11.089  19.328  0.00  0.00    +0.000 A 
ATOM     17  S   UNL     1       0.234  10.432  20.884  0.00  0.00    +0.000 S 
ATOM     18  C   UNL     1       1.081   8.997  20.488  0.00  0.00    +0.000 A 
ENDBRANCH   6  14
BRANCH   1  19
ATOM     19  C   UNL     1       5.968   4.277  15.771  0.00  0.00    +0.000 C 
BRANCH  19  21
ATOM     20  C   UNL     1       6.695   4.041  13.369  0.00  0.00    +0.000 C 
ATOM     21  C   UNL     1       5.509   4.105  14.320  0.00  0.00    +0.000 C 
ENDBRANCH  19  21
ENDBRANCH   1  19
TORSDOF 3
ENDMDL
MODEL 6
REMARK VINA RESULT:      -6.3      3.355      6.475
REMARK  Name = 
REMARK  5 active torsions:
REMARK  status: ('A' for Active; 'I' for Inactive)
REMARK    1  A    between atoms: C_1  and  C_2
REMARK    2  A    between atoms: C_2  and  C_3
REMARK    3  A    between atoms: C_3  and  N_4
REMARK    4  A    between atoms: C_9  and  C_10
REMARK    5  A    between atoms: N_17  and  C_18
REMARK                            x       y       z     vdW  Elec       q    Type
REMARK                         _______ _______ _______ _____ _____    ______ ____
ROOT
ATOM      1  N   UNL     1       1.107  10.551  19.299  0.00  0.00    +0.000 N 
ATOM      2  C   UNL     1       1.682   9.465  18.606  0.00  0.00    +0.000 A 
ATOM      3  O   UNL     1       2.020   9.511  17.427  0.00  0.00    +0.000 OA
ATOM      4  C   UNL     1       1.831   8.282  19.425  0.00  0.00    +0.000 A 
ATOM      5  N   UNL     1       2.370   7.057  19.096  0.00  0.00    +0.000 NA
ATOM      6  C   UNL     1       2.224   6.316  20.179  0.00  0.00    +0.000 A 
ATOM      7  N   UNL     1       1.634   7.031  21.191  0.00  0.00    +0.000 N 
ATOM      8  C   UNL     1       1.403   8.287  20.720  0.00  0.00    +0.000 A 
ATOM      9  N   UNL     1       0.854   9.361  21.380  0.00  0.00    +0.000 N 
ATOM     10  C   UNL     1       0.465   9.370  22.777  0.00  0.00    +0.000 C 
ATOM     11  C   UNL     1       0.698  10.555  20.649  0.00  0.00    +0.000 A 
ATOM     12  O   UNL     1       0.220  11.561  21.185  0.00  0.00    +0.000 OA
ATOM     13  H   UNL     1       1.412   6.672  22.106  0.00  0.00    +0.000 HD
ENDROOT
BRANCH   6  14
ATOM     14  C   UNL     1       2.631   4.882  20.292  0.00  0.00    +0.000 A 
ATOM     15  C   UNL     1       2.115   3.943  21.236  0.00  0.00    +0.000 A 
ATOM     16  C   UNL     1       2.666   2.690  21.070  0.00  0.00    +0.000 A 
ATOM     17  S   UNL     1       3.815   2.655  19.802  0.00  0.00    +0.000 S 
ATOM     18  C   UNL     1       3.567   4.314  19.458  0.00  0.00    +0.000 A 
ENDBRANCH   6  14
BRANCH   1  19
ATOM     19  C   UNL     1       0.906  11.780  18.538  0.00  0.00    +0.000 C 
BRANCH  19  21
ATOM     20  C   UNL     1       1.767  14.149  18.562  0.00  0.00    +0.000 C 
ATOM     21  C   UNL     1       2.148  12.676  18.555  0.00  0.00    +0.000 C 
ENDBRANCH  19  21
ENDBRANCH   1  19
TORSDOF 3
ENDMDL
MODEL 7
REMARK VINA RESULT:      -6.2      1.501      1.986
REMARK  Name = 
REMARK  5 active torsions:
REMARK  status: ('A' for Active; 'I' for Inactive)
REMARK    1  A    between atoms: C_1  and  C_2
REMARK    2  A    between atoms: C_2  and  C_3
REMARK    3  A    between atoms: C_3  and  N_4
REMARK    4  A    between atoms: C_9  and  C_10
REMARK    5  A    between atoms: N_17  and  C_18
REMARK                            x       y       z     vdW  Elec       q    Type
REMARK                         _______ _______ _______ _____ _____    ______ ____
ROOT
ATOM      1  N   UNL     1       5.119   5.126  17.752  0.00  0.00    +0.000 N 
ATOM      2  C   UNL     1       4.667   6.365  17.254  0.00  0.00    +0.000 A 
ATOM      3  O   UNL     1       5.152   6.924  16.274  0.00  0.00    +0.000 OA
ATOM      4  C   UNL     1       3.573   6.921  18.020  0.00  0.00    +0.000 A 
ATOM      5  N   UNL     1       2.871   8.089  17.814  0.00  0.00    +0.000 NA
ATOM      6  C   UNL     1       2.013   8.155  18.815  0.00  0.00    +0.000 A 
ATOM      7  N   UNL     1       2.128   7.061  19.636  0.00  0.00    +0.000 N 
ATOM      8  C   UNL     1       3.104   6.266  19.119  0.00  0.00    +0.000 A 
ATOM      9  N   UNL     1       3.553   5.051  19.583  0.00  0.00    +0.000 N 
ATOM     10  C   UNL     1       2.999   4.335  20.715  0.00  0.00    +0.000 C 
ATOM     11  C   UNL     1       4.605   4.441  18.872  0.00  0.00    +0.000 A 
ATOM     12  O   UNL     1       5.049   3.344  19.229  0.00  0.00    +0.000 OA
ATOM     13  H   UNL     1       1.585   6.898  20.469  0.00  0.00    +0.000 HD
ENDROOT
BRANCH   6  14
ATOM     14  C   UNL     1       1.051   9.276  19.042  0.00  0.00    +0.000 A 
ATOM     15  C   UNL     1       0.273   9.921  18.035  0.00  0.00    +0.000 A 
ATOM     16  C   UNL     1      -0.545  10.899  18.562  0.00  0.00    +0.000 A 
ATOM     17  S   UNL     1      -0.355  11.053  20.256  0.00  0.00    +0.000 S 
ATOM     18  C   UNL     1       0.810   9.798  20.293  0.00  0.00    +0.000 A 
ENDBRANCH   6  14
BRANCH   1  19
ATOM     19  C   UNL     1       6.235   4.505  17.045  0.00  0.00    +0.000 C 
BRANCH  19  21
ATOM     20  C   UNL     1       7.693   6.054  18.398  0.00  0.00    +0.000 C 
ATOM     21  C   UNL     1       7.555   4.658  17.809  0.00  0.00    +0.000 C 
ENDBRANCH  19  21
ENDBRANCH   1  19
TORSDOF 3
ENDMDL
MODEL 8
REMARK VINA RESULT:      -6.2      1.460      1.758
REMARK  Name = 
REMARK  5 active torsions:
REMARK  status: ('A' for Active; 'I' for Inactive)
REMARK    1  A    between atoms: C_1  and  C_2
REMARK    2  A    between atoms: C_2  and  C_3
REMARK    3  A    between atoms: C_3  and  N_4
REMARK    4  A    between atoms: C_9  and  C_10
REMARK    5  A    between atoms: N_17  and  C_18
REMARK                            x       y       z     vdW  Elec       q    Type
REMARK                         _______ _______ _______ _____ _____    ______ ____
ROOT
ATOM      1  N   UNL     1       4.741   4.528  17.064  0.00  0.00    +0.000 N 
ATOM      2  C   UNL     1       4.574   5.926  17.155  0.00  0.00    +0.000 A 
ATOM      3  O   UNL     1       5.225   6.735  16.501  0.00  0.00    +0.000 OA
ATOM      4  C   UNL     1       3.556   6.316  18.106  0.00  0.00    +0.000 A 
ATOM      5  N   UNL     1       3.109   7.577  18.436  0.00  0.00    +0.000 NA
ATOM      6  C   UNL     1       2.211   7.386  19.385  0.00  0.00    +0.000 A 
ATOM      7  N   UNL     1       2.054   6.049  19.654  0.00  0.00    +0.000 N 
ATOM      8  C   UNL     1       2.892   5.367  18.827  0.00  0.00    +0.000 A 
ATOM      9  N   UNL     1       3.065   4.007  18.715  0.00  0.00    +0.000 N 
ATOM     10  C   UNL     1       2.304   3.009  19.441  0.00  0.00    +0.000 C 
ATOM     11  C   UNL     1       4.026   3.554  17.791  0.00  0.00    +0.000 A 
ATOM     12  O   UNL     1       4.224   2.345  17.634  0.00  0.00    +0.000 OA
ATOM     13  H   UNL     1       1.432   5.663  20.347  0.00  0.00    +0.000 HD
ENDROOT
BRANCH   6  14
ATOM     14  C   UNL     1       1.469   8.476  20.090  0.00  0.00    +0.000 A 
ATOM     15  C   UNL     1       1.158   8.505  21.482  0.00  0.00    +0.000 A 
ATOM     16  C   UNL     1       0.491   9.658  21.838  0.00  0.00    +0.000 A 
ATOM     17  S   UNL     1       0.221  10.685  20.496  0.00  0.00    +0.000 S 
ATOM     18  C   UNL     1       1.012   9.598  19.435  0.00  0.00    +0.000 A 
ENDBRANCH   6  14
BRANCH   1  19
ATOM     19  C   UNL     1       5.764   4.052  16.138  0.00  0.00    +0.000 C 
BRANCH  19  21
ATOM     20  C   UNL     1       6.510   4.278  13.741  0.00  0.00    +0.000 C 
ATOM     21  C   UNL     1       5.316   4.172  14.677  0.00  0.00    +0.000 C 
ENDBRANCH  19  21
ENDBRANCH   1  19
TORSDOF 3
ENDMDL
MODEL 9
REMARK VINA RESULT:      -6.2      1.510      2.934
REMARK  Name = 
REMARK  5 active torsions:
REMARK  status: ('A' for Active; 'I' for Inactive)
REMARK    1  A    between atoms: C_1  and  C_2
REMARK    2  A    between atoms: C_2  and  C_3
REMARK    3  A    between atoms: C_3  and  N_4
REMARK    4  A    between atoms: C_9  and  C_10
REMARK    5  A    between atoms: N_17  and  C_18
REMARK                            x       y       z     vdW  Elec       q    Type
REMARK                         _______ _______ _______ _____ _____    ______ ____
ROOT
ATOM      1  N   UNL     1       3.398   4.050  19.537  0.00  0.00    +0.000 N 
ATOM      2  C   UNL     1       2.514   4.517  20.531  0.00  0.00    +0.000 A 
ATOM      3  O   UNL     1       2.057   3.811  21.425  0.00  0.00    +0.000 OA
ATOM      4  C   UNL     1       2.191   5.921  20.391  0.00  0.00    +0.000 A 
ATOM      5  N   UNL     1       1.390   6.713  21.184  0.00  0.00    +0.000 NA
ATOM      6  C   UNL     1       1.389   7.896  20.598  0.00  0.00    +0.000 A 
ATOM      7  N   UNL     1       2.179   7.891  19.474  0.00  0.00    +0.000 N 
ATOM      8  C   UNL     1       2.706   6.641  19.354  0.00  0.00    +0.000 A 
ATOM      9  N   UNL     1       3.575   6.168  18.400  0.00  0.00    +0.000 N 
ATOM     10  C   UNL     1       4.166   6.965  17.342  0.00  0.00    +0.000 C 
ATOM     11  C   UNL     1       3.950   4.813  18.487  0.00  0.00    +0.000 A 
ATOM     12  O   UNL     1       4.736   4.326  17.667  0.00  0.00    +0.000 OA
ATOM     13  H   UNL     1       2.322   8.676  18.860  0.00  0.00    +0.000 HD
ENDROOT
BRANCH   6  14
ATOM     14  C   UNL     1       0.622   9.086  21.077  0.00  0.00    +0.000 A 
ATOM     15  C   UNL     1      -0.027   9.203  22.343  0.00  0.00    +0.000 A 
ATOM     16  C   UNL     1      -0.626  10.435  22.504  0.00  0.00    +0.000 A 
ATOM     17  S   UNL     1      -0.428  11.431  21.126  0.00  0.00    +0.000 S 
ATOM     18  C   UNL     1       0.477  10.224  20.315  0.00  0.00    +0.000 A 
ENDBRANCH   6  14
BRANCH   1  19
ATOM     19  C   UNL     1       3.761   2.637  19.596  0.00  0.00    +0.000 C 
BRANCH  19  21
ATOM     20  C   UNL     1       1.551   1.963  18.589  0.00  0.00    +0.000 C 
ATOM     21  C   UNL     1       3.063   1.819  18.505  0.00  0.00    +0.000 C 
ENDBRANCH  19  21
ENDBRANCH   1  19
TORSDOF 3
ENDMDL
