MODEL 1
REMARK VINA RESULT:      -7.7      0.000      0.000
REMARK  Name = 
REMARK  4 active torsions:
REMARK  status: ('A' for Active; 'I' for Inactive)
REMARK    1  A    between atoms: N_1  and  C_2
REMARK    2  A    between atoms: C_2  and  N_4
REMARK    3  A    between atoms: C_6  and  C_7
REMARK    4  A    between atoms: C_14  and  C_15
REMARK                            x       y       z     vdW  Elec       q    Type
REMARK                         _______ _______ _______ _____ _____    ______ ____
ROOT
ATOM      1  N   UNL     1       4.679   3.883  17.614  0.00  0.00    +0.000 N 
ATOM      2  N   UNL     1       5.012   3.514  16.319  0.00  0.00    +0.000 NA
ATOM      3  C   UNL     1       5.716   4.491  15.825  0.00  0.00    +0.000 C 
ATOM      4  C   UNL     1       5.946   5.665  16.735  0.00  0.00    +0.000 C 
ATOM      5  C   UNL     1       5.153   5.233  17.960  0.00  0.00    +0.000 C 
ENDROOT
BRANCH   3   6
ATOM      6  C   UNL     1       6.316   4.488  14.471  0.00  0.00    +0.000 A 
ATOM      7  C   UNL     1       5.806   3.665  13.477  0.00  0.00    +0.000 A 
ATOM      8  C   UNL     1       6.411   3.698  12.222  0.00  0.00    +0.000 A 
ATOM      9  C   UNL     1       7.495   4.542  12.008  0.00  0.00    +0.000 A 
ATOM     10  C   UNL     1       7.941   5.321  13.064  0.00  0.00    +0.000 A 
ATOM     11  N   UNL     1       7.378   5.313  14.292  0.00  0.00    +0.000 NA
ENDBRANCH   3   6
BRANCH   5  12
ATOM     12  C   UNL     1       4.041   6.218  18.280  0.00  0.00    +0.000 A 
ATOM     13  C   UNL     1       3.735   7.310  17.452  0.00  0.00    +0.000 A 
ATOM     14  C   UNL     1       2.704   8.194  17.789  0.00  0.00    +0.000 A 
ATOM     15  C   UNL     1       1.977   8.004  18.962  0.00  0.00    +0.000 A 
ATOM     16  C   UNL     1       2.277   6.935  19.798  0.00  0.00    +0.000 A 
ATOM     17  C   UNL     1       3.303   6.049  19.464  0.00  0.00    +0.000 A 
ENDBRANCH   5  12
BRANCH   1  18
ATOM     18  C   UNL     1       4.130   2.954  18.484  0.00  0.00    +0.000 C 
ATOM     19  S   UNL     1       2.638   2.221  18.367  0.00  0.00    +0.000 S 
BRANCH  18  20
ATOM     20  N   UNL     1       4.936   2.636  19.536  0.00  0.00    +0.000 N 
ATOM     21  H   UNL     1       5.024   3.263  20.323  0.00  0.00    +0.000 HD
ATOM     22  H   UNL     1       5.569   1.856  19.414  0.00  0.00    +0.000 HD
ENDBRANCH  18  20
ENDBRANCH   1  18
TORSDOF 4
ENDMDL
MODEL 2
REMARK VINA RESULT:      -7.7      0.063      1.079
REMARK  Name = 
REMARK  4 active torsions:
REMARK  status: ('A' for Active; 'I' for Inactive)
REMARK    1  A    between atoms: N_1  and  C_2
REMARK    2  A    between atoms: C_2  and  N_4
REMARK    3  A    between atoms: C_6  and  C_7
REMARK    4  A    between atoms: C_14  and  C_15
REMARK                            x       y       z     vdW  Elec       q    Type
REMARK                         _______ _______ _______ _____ _____    ______ ____
ROOT
ATOM      1  N   UNL     1       4.689   3.847  17.648  0.00  0.00    +0.000 N 
ATOM      2  N   UNL     1       5.015   3.492  16.348  0.00  0.00    +0.000 NA
ATOM      3  C   UNL     1       5.722   4.472  15.863  0.00  0.00    +0.000 C 
ATOM      4  C   UNL     1       5.960   5.634  16.787  0.00  0.00    +0.000 C 
ATOM      5  C   UNL     1       5.169   5.191  18.009  0.00  0.00    +0.000 C 
ENDROOT
BRANCH   3   6
ATOM      6  C   UNL     1       6.318   4.484  14.508  0.00  0.00    +0.000 A 
ATOM      7  C   UNL     1       5.806   3.670  13.507  0.00  0.00    +0.000 A 
ATOM      8  C   UNL     1       6.406   3.715  12.250  0.00  0.00    +0.000 A 
ATOM      9  C   UNL     1       7.489   4.563  12.041  0.00  0.00    +0.000 A 
ATOM     10  C   UNL     1       7.937   5.332  13.103  0.00  0.00    +0.000 A 
ATOM     11  N   UNL     1       7.378   5.312  14.333  0.00  0.00    +0.000 NA
ENDBRANCH   3   6
BRANCH   5  12
ATOM     12  C   UNL     1       4.063   6.176  18.345  0.00  0.00    +0.000 A 
ATOM     13  C   UNL     1       3.268   6.059  19.496  0.00  0.00    +0.000 A 
ATOM     14  C   UNL     1       2.257   6.988  19.765  0.00  0.00    +0.000 A 
ATOM     15  C   UNL     1       2.020   8.037  18.879  0.00  0.00    +0.000 A 
ATOM     16  C   UNL     1       2.790   8.159  17.728  0.00  0.00    +0.000 A 
ATOM     17  C   UNL     1       3.801   7.234  17.458  0.00  0.00    +0.000 A 
ENDBRANCH   5  12
BRANCH   1  18
ATOM     18  C   UNL     1       4.138   2.910  18.508  0.00  0.00    +0.000 C 
ATOM     19  S   UNL     1       2.666   2.142  18.357  0.00  0.00    +0.000 S 
BRANCH  18  20
ATOM     20  N   UNL     1       4.924   2.615  19.582  0.00  0.00    +0.000 N 
ATOM     21  H   UNL     1       5.865   2.975  19.643  0.00  0.00    +0.000 HD
ATOM     22  H   UNL     1       4.598   1.889  20.207  0.00  0.00    +0.000 HD
ENDBRANCH  18  20
ENDBRANCH   1  18
TORSDOF 4
ENDMDL
MODEL 3
REMARK VINA RESULT:      -7.2      0.656      1.081
REMARK  Name = 
REMARK  4 active torsions:
REMARK  status: ('A' for Active; 'I' for Inactive)
REMARK    1  A    between atoms: N_1  and  C_2
REMARK    2  A    between atoms: C_2  and  N_4
REMARK    3  A    between atoms: C_6  and  C_7
REMARK    4  A    between atoms: C_14  and  C_15
REMARK                            x       y       z     vdW  Elec       q    Type
REMARK                         _______ _______ _______ _____ _____    ______ ____
ROOT
ATOM      1  N   UNL     1       4.636   3.839  17.634  0.00  0.00    +0.000 N 
ATOM      2  N   UNL     1       4.950   3.448  16.341  0.00  0.00    +0.000 NA
ATOM      3  C   UNL     1       5.661   4.409  15.826  0.00  0.00    +0.000 C 
ATOM      4  C   UNL     1       5.914   5.593  16.717  0.00  0.00    +0.000 C 
ATOM      5  C   UNL     1       5.129   5.188  17.956  0.00  0.00    +0.000 C 
ENDROOT
BRANCH   3   6
ATOM      6  C   UNL     1       6.246   4.380  14.466  0.00  0.00    +0.000 A 
ATOM      7  C   UNL     1       7.316   5.203  14.142  0.00  0.00    +0.000 A 
ATOM      8  C   UNL     1       7.826   5.139  12.848  0.00  0.00    +0.000 A 
ATOM      9  C   UNL     1       7.252   4.267  11.929  0.00  0.00    +0.000 A 
ATOM     10  C   UNL     1       6.180   3.491  12.341  0.00  0.00    +0.000 A 
ATOM     11  N   UNL     1       5.661   3.528  13.588  0.00  0.00    +0.000 NA
ENDBRANCH   3   6
BRANCH   5  12
ATOM     12  C   UNL     1       4.033   6.190  18.274  0.00  0.00    +0.000 A 
ATOM     13  C   UNL     1       3.745   7.286  17.445  0.00  0.00    +0.000 A 
ATOM     14  C   UNL     1       2.728   8.186  17.780  0.00  0.00    +0.000 A 
ATOM     15  C   UNL     1       1.996   8.009  18.952  0.00  0.00    +0.000 A 
ATOM     16  C   UNL     1       2.278   6.936  19.789  0.00  0.00    +0.000 A 
ATOM     17  C   UNL     1       3.291   6.034  19.457  0.00  0.00    +0.000 A 
ENDBRANCH   5  12
BRANCH   1  18
ATOM     18  C   UNL     1       4.085   2.928  18.523  0.00  0.00    +0.000 C 
ATOM     19  S   UNL     1       2.580   2.215  18.434  0.00  0.00    +0.000 S 
BRANCH  18  20
ATOM     20  N   UNL     1       4.900   2.612  19.568  0.00  0.00    +0.000 N 
ATOM     21  H   UNL     1       5.852   2.319  19.406  0.00  0.00    +0.000 HD
ATOM     22  H   UNL     1       4.466   2.507  20.476  0.00  0.00    +0.000 HD
ENDBRANCH  18  20
ENDBRANCH   1  18
TORSDOF 4
ENDMDL
MODEL 4
REMARK VINA RESULT:      -7.2      0.673      1.533
REMARK  Name = 
REMARK  4 active torsions:
REMARK  status: ('A' for Active; 'I' for Inactive)
REMARK    1  A    between atoms: N_1  and  C_2
REMARK    2  A    between atoms: C_2  and  N_4
REMARK    3  A    between atoms: C_6  and  C_7
REMARK    4  A    between atoms: C_14  and  C_15
REMARK                            x       y       z     vdW  Elec       q    Type
REMARK                         _______ _______ _______ _____ _____    ______ ____
ROOT
ATOM      1  N   UNL     1       4.584   3.836  17.723  0.00  0.00    +0.000 N 
ATOM      2  N   UNL     1       4.891   3.447  16.428  0.00  0.00    +0.000 NA
ATOM      3  C   UNL     1       5.604   4.406  15.912  0.00  0.00    +0.000 C 
ATOM      4  C   UNL     1       5.866   5.586  16.805  0.00  0.00    +0.000 C 
ATOM      5  C   UNL     1       5.085   5.182  18.046  0.00  0.00    +0.000 C 
ENDROOT
BRANCH   3   6
ATOM      6  C   UNL     1       6.183   4.378  14.549  0.00  0.00    +0.000 A 
ATOM      7  C   UNL     1       7.257   5.194  14.224  0.00  0.00    +0.000 A 
ATOM      8  C   UNL     1       7.761   5.132  12.926  0.00  0.00    +0.000 A 
ATOM      9  C   UNL     1       7.177   4.266  12.008  0.00  0.00    +0.000 A 
ATOM     10  C   UNL     1       6.101   3.496  12.421  0.00  0.00    +0.000 A 
ATOM     11  N   UNL     1       5.588   3.533  13.670  0.00  0.00    +0.000 NA
ENDBRANCH   3   6
BRANCH   5  12
ATOM     12  C   UNL     1       3.994   6.188  18.371  0.00  0.00    +0.000 A 
ATOM     13  C   UNL     1       3.182   6.082  19.512  0.00  0.00    +0.000 A 
ATOM     14  C   UNL     1       2.187   7.031  19.770  0.00  0.00    +0.000 A 
ATOM     15  C   UNL     1       1.984   8.088  18.887  0.00  0.00    +0.000 A 
ATOM     16  C   UNL     1       2.772   8.199  17.747  0.00  0.00    +0.000 A 
ATOM     17  C   UNL     1       3.768   7.256  17.487  0.00  0.00    +0.000 A 
ENDBRANCH   5  12
BRANCH   1  18
ATOM     18  C   UNL     1       4.033   2.926  18.612  0.00  0.00    +0.000 C 
ATOM     19  S   UNL     1       2.462   2.368  18.641  0.00  0.00    +0.000 S 
BRANCH  18  20
ATOM     20  N   UNL     1       4.910   2.464  19.546  0.00  0.00    +0.000 N 
ATOM     21  H   UNL     1       5.903   2.612  19.436  0.00  0.00    +0.000 HD
ATOM     22  H   UNL     1       4.550   1.822  20.241  0.00  0.00    +0.000 HD
ENDBRANCH  18  20
ENDBRANCH   1  18
TORSDOF 4
ENDMDL
MODEL 5
REMARK VINA RESULT:      -7.2      2.323      3.107
REMARK  Name = 
REMARK  4 active torsions:
REMARK  status: ('A' for Active; 'I' for Inactive)
REMARK    1  A    between atoms: N_1  and  C_2
REMARK    2  A    between atoms: C_2  and  N_4
REMARK    3  A    between atoms: C_6  and  C_7
REMARK    4  A    between atoms: C_14  and  C_15
REMARK                            x       y       z     vdW  Elec       q    Type
REMARK                         _______ _______ _______ _____ _____    ______ ____
ROOT
ATOM      1  N   UNL     1       6.915   5.841  17.739  0.00  0.00    +0.000 N 
ATOM      2  N   UNL     1       7.463   5.306  16.584  0.00  0.00    +0.000 NA
ATOM      3  C   UNL     1       6.508   5.277  15.699  0.00  0.00    +0.000 C 
ATOM      4  C   UNL     1       5.172   5.791  16.154  0.00  0.00    +0.000 C 
ATOM      5  C   UNL     1       5.475   6.121  17.608  0.00  0.00    +0.000 C 
ENDROOT
BRANCH   3   6
ATOM      6  C   UNL     1       6.676   4.817  14.302  0.00  0.00    +0.000 A 
ATOM      7  C   UNL     1       5.866   3.813  13.789  0.00  0.00    +0.000 A 
ATOM      8  C   UNL     1       6.069   3.414  12.469  0.00  0.00    +0.000 A 
ATOM      9  C   UNL     1       7.067   4.024  11.717  0.00  0.00    +0.000 A 
ATOM     10  C   UNL     1       7.833   5.011  12.317  0.00  0.00    +0.000 A 
ATOM     11  N   UNL     1       7.663   5.421  13.593  0.00  0.00    +0.000 NA
ENDBRANCH   3   6
BRANCH   5  12
ATOM     12  C   UNL     1       4.599   5.321  18.557  0.00  0.00    +0.000 A 
ATOM     13  C   UNL     1       4.786   3.948  18.784  0.00  0.00    +0.000 A 
ATOM     14  C   UNL     1       3.952   3.250  19.664  0.00  0.00    +0.000 A 
ATOM     15  C   UNL     1       2.915   3.912  20.317  0.00  0.00    +0.000 A 
ATOM     16  C   UNL     1       2.709   5.269  20.092  0.00  0.00    +0.000 A 
ATOM     17  C   UNL     1       3.541   5.969  19.216  0.00  0.00    +0.000 A 
ENDBRANCH   5  12
BRANCH   1  18
ATOM     18  C   UNL     1       7.736   6.219  18.790  0.00  0.00    +0.000 C 
ATOM     19  S   UNL     1       8.090   5.339  20.161  0.00  0.00    +0.000 S 
BRANCH  18  20
ATOM     20  N   UNL     1       8.293   7.454  18.641  0.00  0.00    +0.000 N 
ATOM     21  H   UNL     1       8.892   7.656  17.854  0.00  0.00    +0.000 HD
ATOM     22  H   UNL     1       8.232   8.086  19.429  0.00  0.00    +0.000 HD
ENDBRANCH  18  20
ENDBRANCH   1  18
TORSDOF 4
ENDMDL
MODEL 6
REMARK VINA RESULT:      -7.1      2.321      3.085
REMARK  Name = 
REMARK  4 active torsions:
REMARK  status: ('A' for Active; 'I' for Inactive)
REMARK    1  A    between atoms: N_1  and  C_2
REMARK    2  A    between atoms: C_2  and  N_4
REMARK    3  A    between atoms: C_6  and  C_7
REMARK    4  A    between atoms: C_14  and  C_15
REMARK                            x       y       z     vdW  Elec       q    Type
REMARK                         _______ _______ _______ _____ _____    ______ ____
ROOT
ATOM      1  N   UNL     1       6.896   5.865  17.702  0.00  0.00    +0.000 N 
ATOM      2  N   UNL     1       7.442   5.314  16.553  0.00  0.00    +0.000 NA
ATOM      3  C   UNL     1       6.488   5.287  15.667  0.00  0.00    +0.000 C 
ATOM      4  C   UNL     1       5.155   5.817  16.115  0.00  0.00    +0.000 C 
ATOM      5  C   UNL     1       5.460   6.157  17.567  0.00  0.00    +0.000 C 
ENDROOT
BRANCH   3   6
ATOM      6  C   UNL     1       6.654   4.812  14.274  0.00  0.00    +0.000 A 
ATOM      7  C   UNL     1       5.865   3.781  13.783  0.00  0.00    +0.000 A 
ATOM      8  C   UNL     1       6.065   3.369  12.467  0.00  0.00    +0.000 A 
ATOM      9  C   UNL     1       7.040   3.995  11.696  0.00  0.00    +0.000 A 
ATOM     10  C   UNL     1       7.786   5.009  12.275  0.00  0.00    +0.000 A 
ATOM     11  N   UNL     1       7.617   5.432  13.548  0.00  0.00    +0.000 NA
ENDBRANCH   3   6
BRANCH   5  12
ATOM     12  C   UNL     1       4.574   5.374  18.521  0.00  0.00    +0.000 A 
ATOM     13  C   UNL     1       3.552   5.976  19.271  0.00  0.00    +0.000 A 
ATOM     14  C   UNL     1       2.763   5.215  20.141  0.00  0.00    +0.000 A 
ATOM     15  C   UNL     1       2.994   3.849  20.280  0.00  0.00    +0.000 A 
ATOM     16  C   UNL     1       4.012   3.241  19.552  0.00  0.00    +0.000 A 
ATOM     17  C   UNL     1       4.799   3.996  18.682  0.00  0.00    +0.000 A 
ENDBRANCH   5  12
BRANCH   1  18
ATOM     18  C   UNL     1       7.719   6.245  18.751  0.00  0.00    +0.000 C 
ATOM     19  S   UNL     1       8.083   5.364  20.119  0.00  0.00    +0.000 S 
BRANCH  18  20
ATOM     20  N   UNL     1       8.269   7.483  18.603  0.00  0.00    +0.000 N 
ATOM     21  H   UNL     1       7.978   8.248  19.196  0.00  0.00    +0.000 HD
ATOM     22  H   UNL     1       8.829   7.645  17.776  0.00  0.00    +0.000 HD
ENDBRANCH  18  20
ENDBRANCH   1  18
TORSDOF 4
ENDMDL
MODEL 7
REMARK VINA RESULT:      -7.1      2.658      5.645
REMARK  Name = 
REMARK  4 active torsions:
REMARK  status: ('A' for Active; 'I' for Inactive)
REMARK    1  A    between atoms: N_1  and  C_2
REMARK    2  A    between atoms: C_2  and  N_4
REMARK    3  A    between atoms: C_6  and  C_7
REMARK    4  A    between atoms: C_14  and  C_15
REMARK                            x       y       z     vdW  Elec       q    Type
REMARK                         _______ _______ _______ _____ _____    ______ ____
ROOT
ATOM      1  N   UNL     1       5.456   5.021  15.982  0.00  0.00    +0.000 N 
ATOM      2  N   UNL     1       4.629   4.037  16.503  0.00  0.00    +0.000 NA
ATOM      3  C   UNL     1       3.831   4.630  17.344  0.00  0.00    +0.000 C 
ATOM      4  C   UNL     1       4.027   6.112  17.505  0.00  0.00    +0.000 C 
ATOM      5  C   UNL     1       5.215   6.343  16.583  0.00  0.00    +0.000 C 
ENDROOT
BRANCH   3   6
ATOM      6  C   UNL     1       2.752   3.951  18.095  0.00  0.00    +0.000 A 
ATOM      7  C   UNL     1       2.048   4.625  19.084  0.00  0.00    +0.000 A 
ATOM      8  C   UNL     1       1.046   3.937  19.763  0.00  0.00    +0.000 A 
ATOM      9  C   UNL     1       0.785   2.611  19.436  0.00  0.00    +0.000 A 
ATOM     10  C   UNL     1       1.545   2.017  18.442  0.00  0.00    +0.000 A 
ATOM     11  N   UNL     1       2.525   2.655  17.764  0.00  0.00    +0.000 NA
ENDBRANCH   3   6
BRANCH   5  12
ATOM     12  C   UNL     1       6.406   6.908  17.337  0.00  0.00    +0.000 A 
ATOM     13  C   UNL     1       6.905   8.199  17.106  0.00  0.00    +0.000 A 
ATOM     14  C   UNL     1       8.008   8.678  17.822  0.00  0.00    +0.000 A 
ATOM     15  C   UNL     1       8.631   7.868  18.768  0.00  0.00    +0.000 A 
ATOM     16  C   UNL     1       8.155   6.582  19.000  0.00  0.00    +0.000 A 
ATOM     17  C   UNL     1       7.054   6.102  18.288  0.00  0.00    +0.000 A 
ENDBRANCH   5  12
BRANCH   1  18
ATOM     18  C   UNL     1       6.258   4.747  14.886  0.00  0.00    +0.000 C 
ATOM     19  S   UNL     1       5.875   3.806  13.564  0.00  0.00    +0.000 S 
BRANCH  18  20
ATOM     20  N   UNL     1       7.487   5.332  14.939  0.00  0.00    +0.000 N 
ATOM     21  H   UNL     1       8.210   4.955  15.535  0.00  0.00    +0.000 HD
ATOM     22  H   UNL     1       7.584   6.244  14.511  0.00  0.00    +0.000 HD
ENDBRANCH  18  20
ENDBRANCH   1  18
TORSDOF 4
ENDMDL
MODEL 8
REMARK VINA RESULT:      -7.1      2.690      5.608
REMARK  Name = 
REMARK  4 active torsions:
REMARK  status: ('A' for Active; 'I' for Inactive)
REMARK    1  A    between atoms: N_1  and  C_2
REMARK    2  A    between atoms: C_2  and  N_4
REMARK    3  A    between atoms: C_6  and  C_7
REMARK    4  A    between atoms: C_14  and  C_15
REMARK                            x       y       z     vdW  Elec       q    Type
REMARK                         _______ _______ _______ _____ _____    ______ ____
ROOT
ATOM      1  N   UNL     1       5.414   4.992  16.038  0.00  0.00    +0.000 N 
ATOM      2  N   UNL     1       4.584   4.024  16.581  0.00  0.00    +0.000 NA
ATOM      3  C   UNL     1       3.794   4.638  17.414  0.00  0.00    +0.000 C 
ATOM      4  C   UNL     1       3.999   6.122  17.545  0.00  0.00    +0.000 C 
ATOM      5  C   UNL     1       5.184   6.327  16.614  0.00  0.00    +0.000 C 
ENDROOT
BRANCH   3   6
ATOM      6  C   UNL     1       2.713   3.980  18.183  0.00  0.00    +0.000 A 
ATOM      7  C   UNL     1       2.253   2.722  17.816  0.00  0.00    +0.000 A 
ATOM      8  C   UNL     1       1.232   2.150  18.570  0.00  0.00    +0.000 A 
ATOM      9  C   UNL     1       0.709   2.848  19.653  0.00  0.00    +0.000 A 
ATOM     10  C   UNL     1       1.225   4.102  19.938  0.00  0.00    +0.000 A 
ATOM     11  N   UNL     1       2.214   4.686  19.228  0.00  0.00    +0.000 NA
ENDBRANCH   3   6
BRANCH   5  12
ATOM     12  C   UNL     1       6.381   6.900  17.352  0.00  0.00    +0.000 A 
ATOM     13  C   UNL     1       6.871   8.194  17.112  0.00  0.00    +0.000 A 
ATOM     14  C   UNL     1       7.980   8.679  17.814  0.00  0.00    +0.000 A 
ATOM     15  C   UNL     1       8.619   7.874  18.754  0.00  0.00    +0.000 A 
ATOM     16  C   UNL     1       8.153   6.586  18.993  0.00  0.00    +0.000 A 
ATOM     17  C   UNL     1       7.046   6.099  18.296  0.00  0.00    +0.000 A 
ENDBRANCH   5  12
BRANCH   1  18
ATOM     18  C   UNL     1       6.211   4.693  14.944  0.00  0.00    +0.000 C 
ATOM     19  S   UNL     1       5.779   3.821  13.590  0.00  0.00    +0.000 S 
BRANCH  18  20
ATOM     20  N   UNL     1       7.479   5.185  15.030  0.00  0.00    +0.000 N 
ATOM     21  H   UNL     1       8.263   4.642  14.699  0.00  0.00    +0.000 HD
ATOM     22  H   UNL     1       7.615   6.014  15.594  0.00  0.00    +0.000 HD
ENDBRANCH  18  20
ENDBRANCH   1  18
TORSDOF 4
ENDMDL
MODEL 9
REMARK VINA RESULT:      -7.1      2.681      5.792
REMARK  Name = 
REMARK  4 active torsions:
REMARK  status: ('A' for Active; 'I' for Inactive)
REMARK    1  A    between atoms: N_1  and  C_2
REMARK    2  A    between atoms: C_2  and  N_4
REMARK    3  A    between atoms: C_6  and  C_7
REMARK    4  A    between atoms: C_14  and  C_15
REMARK                            x       y       z     vdW  Elec       q    Type
REMARK                         _______ _______ _______ _____ _____    ______ ____
ROOT
ATOM      1  N   UNL     1       5.318   4.823  16.133  0.00  0.00    +0.000 N 
ATOM      2  N   UNL     1       4.452   3.902  16.703  0.00  0.00    +0.000 NA
ATOM      3  C   UNL     1       3.680   4.570  17.510  0.00  0.00    +0.000 C 
ATOM      4  C   UNL     1       3.936   6.049  17.594  0.00  0.00    +0.000 C 
ATOM      5  C   UNL     1       5.131   6.183  16.663  0.00  0.00    +0.000 C 
ENDROOT
BRANCH   3   6
ATOM      6  C   UNL     1       2.574   3.975  18.294  0.00  0.00    +0.000 A 
ATOM      7  C   UNL     1       2.158   4.559  19.483  0.00  0.00    +0.000 A 
ATOM      8  C   UNL     1       1.116   3.955  20.183  0.00  0.00    +0.000 A 
ATOM      9  C   UNL     1       0.533   2.798  19.677  0.00  0.00    +0.000 A 
ATOM     10  C   UNL     1       1.021   2.282  18.487  0.00  0.00    +0.000 A 
ATOM     11  N   UNL     1       2.029   2.842  17.783  0.00  0.00    +0.000 NA
ENDBRANCH   3   6
BRANCH   5  12
ATOM     12  C   UNL     1       6.344   6.738  17.390  0.00  0.00    +0.000 A 
ATOM     13  C   UNL     1       7.034   6.014  18.375  0.00  0.00    +0.000 A 
ATOM     14  C   UNL     1       8.145   6.567  19.021  0.00  0.00    +0.000 A 
ATOM     15  C   UNL     1       8.572   7.853  18.699  0.00  0.00    +0.000 A 
ATOM     16  C   UNL     1       7.891   8.587  17.734  0.00  0.00    +0.000 A 
ATOM     17  C   UNL     1       6.784   8.038  17.086  0.00  0.00    +0.000 A 
ENDBRANCH   5  12
BRANCH   1  18
ATOM     18  C   UNL     1       6.109   4.460  15.054  0.00  0.00    +0.000 C 
ATOM     19  S   UNL     1       5.602   3.812  13.604  0.00  0.00    +0.000 S 
BRANCH  18  20
ATOM     20  N   UNL     1       7.441   4.674  15.246  0.00  0.00    +0.000 N 
ATOM     21  H   UNL     1       7.770   5.550  15.625  0.00  0.00    +0.000 HD
ATOM     22  H   UNL     1       8.081   4.008  14.832  0.00  0.00    +0.000 HD
ENDBRANCH  18  20
ENDBRANCH   1  18
TORSDOF 4
ENDMDL
