MODEL 1
REMARK VINA RESULT:      -8.6      0.000      0.000
REMARK  Name = 
REMARK  10 active torsions:
REMARK  status: ('A' for Active; 'I' for Inactive)
REMARK    1  A    between atoms: C_1  and  C_2
REMARK    2  A    between atoms: C_2  and  C_3
REMARK    3  A    between atoms: C_3  and  O_4
REMARK    4  A    between atoms: O_4  and  C_5
REMARK    5  A    between atoms: C_8  and  C_9
REMARK    6  A    between atoms: N_11  and  C_12
REMARK    7  A    between atoms: C_12  and  C_13
REMARK    8  A    between atoms: C_13  and  C_14
REMARK    9  A    between atoms: C_14  and  C_15
REMARK   10  A    between atoms: N_23  and  C_24
REMARK                            x       y       z     vdW  Elec       q    Type
REMARK                         _______ _______ _______ _____ _____    ______ ____
ROOT
ATOM      1  C   UNL     1       5.023   6.266  16.770  0.00  0.00    +0.000 C 
ATOM      2  C   UNL     1       5.919   7.486  17.021  0.00  0.00    +0.000 C 
ATOM      3  N   UNL     1       6.854   7.011  18.016  0.00  0.00    +0.000 N 
ATOM      4  C   UNL     1       6.324   5.914  18.707  0.00  0.00    +0.000 C 
ATOM      5  O   UNL     1       6.864   5.359  19.649  0.00  0.00    +0.000 OA
ATOM      6  N   UNL     1       5.126   5.548  18.039  0.00  0.00    +0.000 N 
ENDROOT
BRANCH   6   7
ATOM      7  C   UNL     1       4.221   4.540  18.461  0.00  0.00    +0.000 A 
ATOM      8  C   UNL     1       4.206   3.294  17.814  0.00  0.00    +0.000 A 
ATOM      9  C   UNL     1       3.369   2.243  18.217  0.00  0.00    +0.000 A 
ATOM     10  C   UNL     1       2.517   2.504  19.285  0.00  0.00    +0.000 A 
ATOM     11  N   UNL     1       1.574   1.742  19.925  0.00  0.00    +0.000 N 
ATOM     12  C   UNL     1       1.006   2.510  20.902  0.00  0.00    +0.000 A 
ATOM     13  N   UNL     1       1.539   3.710  20.949  0.00  0.00    +0.000 NA
ATOM     14  C   UNL     1       2.483   3.724  19.949  0.00  0.00    +0.000 A 
ATOM     15  C   UNL     1       3.356   4.750  19.550  0.00  0.00    +0.000 A 
ATOM     16  H   UNL     1       1.336   0.786  19.707  0.00  0.00    +0.000 HD
ENDBRANCH   6   7
BRANCH   1  20
ATOM     17  C   UNL     1       6.533   4.085  13.319  0.00  0.00    +0.000 A 
ATOM     18  C   UNL     1       7.365   4.932  14.048  0.00  0.00    +0.000 A 
ATOM     19  C   UNL     1       6.885   5.624  15.154  0.00  0.00    +0.000 A 
ATOM     20  C   UNL     1       5.552   5.495  15.563  0.00  0.00    +0.000 A 
ATOM     21  C   UNL     1       4.702   4.672  14.807  0.00  0.00    +0.000 A 
ATOM     22  C   UNL     1       5.194   3.969  13.695  0.00  0.00    +0.000 A 
BRANCH  17  23
ATOM     23  O   UNL     1       6.938   3.337  12.238  0.00  0.00    +0.000 OA
BRANCH  23  24
ATOM     24  C   UNL     1       6.039   2.282  11.889  0.00  0.00    +0.000 C 
BRANCH  24  26
ATOM     25  C   UNL     1       6.087  -0.128  11.267  0.00  0.00    +0.000 C 
ATOM     26  C   UNL     1       6.726   1.233  11.028  0.00  0.00    +0.000 C 
ENDBRANCH  24  26
ENDBRANCH  23  24
ENDBRANCH  17  23
ENDBRANCH   1  20
BRANCH   3  27
ATOM     27  C   UNL     1       8.230   7.463  18.108  0.00  0.00    +0.000 C 
BRANCH  27  28
ATOM     28  C   UNL     1       8.329   8.978  18.035  0.00  0.00    +0.000 C 
BRANCH  28  29
ATOM     29  C   UNL     1       9.039   9.566  19.254  0.00  0.00    +0.000 C 
BRANCH  29  30
ATOM     30  C   UNL     1       9.589  10.925  18.898  0.00  0.00    +0.000 A 
ATOM     31  C   UNL     1      10.611  11.494  19.669  0.00  0.00    +0.000 A 
ATOM     32  C   UNL     1      11.036  12.798  19.421  0.00  0.00    +0.000 A 
ATOM     33  C   UNL     1      10.445  13.544  18.403  0.00  0.00    +0.000 A 
ATOM     34  C   UNL     1       9.439  12.980  17.620  0.00  0.00    +0.000 A 
ATOM     35  C   UNL     1       9.011  11.675  17.864  0.00  0.00    +0.000 A 
ENDBRANCH  29  30
ENDBRANCH  28  29
ENDBRANCH  27  28
ENDBRANCH   3  27
TORSDOF 9
ENDMDL
MODEL 2
REMARK VINA RESULT:      -8.4      1.036      1.669
REMARK  Name = 
REMARK  10 active torsions:
REMARK  status: ('A' for Active; 'I' for Inactive)
REMARK    1  A    between atoms: C_1  and  C_2
REMARK    2  A    between atoms: C_2  and  C_3
REMARK    3  A    between atoms: C_3  and  O_4
REMARK    4  A    between atoms: O_4  and  C_5
REMARK    5  A    between atoms: C_8  and  C_9
REMARK    6  A    between atoms: N_11  and  C_12
REMARK    7  A    between atoms: C_12  and  C_13
REMARK    8  A    between atoms: C_13  and  C_14
REMARK    9  A    between atoms: C_14  and  C_15
REMARK   10  A    between atoms: N_23  and  C_24
REMARK                            x       y       z     vdW  Elec       q    Type
REMARK                         _______ _______ _______ _____ _____    ______ ____
ROOT
ATOM      1  C   UNL     1       5.050   6.269  17.225  0.00  0.00    +0.000 C 
ATOM      2  C   UNL     1       5.925   7.530  17.268  0.00  0.00    +0.000 C 
ATOM      3  N   UNL     1       7.003   7.155  18.155  0.00  0.00    +0.000 N 
ATOM      4  C   UNL     1       6.613   6.095  18.984  0.00  0.00    +0.000 C 
ATOM      5  O   UNL     1       7.296   5.626  19.879  0.00  0.00    +0.000 OA
ATOM      6  N   UNL     1       5.350   5.648  18.514  0.00  0.00    +0.000 N 
ENDROOT
BRANCH   6   7
ATOM      7  C   UNL     1       4.550   4.649  19.123  0.00  0.00    +0.000 A 
ATOM      8  C   UNL     1       4.964   3.307  19.101  0.00  0.00    +0.000 A 
ATOM      9  C   UNL     1       4.240   2.281  19.728  0.00  0.00    +0.000 A 
ATOM     10  C   UNL     1       3.056   2.654  20.356  0.00  0.00    +0.000 A 
ATOM     11  N   UNL     1       2.107   1.940  21.040  0.00  0.00    +0.000 N 
ATOM     12  C   UNL     1       1.127   2.809  21.430  0.00  0.00    +0.000 A 
ATOM     13  N   UNL     1       1.397   4.042  21.063  0.00  0.00    +0.000 NA
ATOM     14  C   UNL     1       2.596   3.964  20.394  0.00  0.00    +0.000 A 
ATOM     15  C   UNL     1       3.356   4.979  19.789  0.00  0.00    +0.000 A 
ATOM     16  H   UNL     1       2.123   0.946  21.215  0.00  0.00    +0.000 HD
ENDBRANCH   6   7
BRANCH   1  20
ATOM     17  C   UNL     1       6.171   3.860  13.778  0.00  0.00    +0.000 A 
ATOM     18  C   UNL     1       5.141   3.458  14.626  0.00  0.00    +0.000 A 
ATOM     19  C   UNL     1       4.778   4.230  15.724  0.00  0.00    +0.000 A 
ATOM     20  C   UNL     1       5.440   5.429  16.012  0.00  0.00    +0.000 A 
ATOM     21  C   UNL     1       6.504   5.818  15.181  0.00  0.00    +0.000 A 
ATOM     22  C   UNL     1       6.862   5.038  14.069  0.00  0.00    +0.000 A 
BRANCH  17  23
ATOM     23  O   UNL     1       6.564   3.175  12.652  0.00  0.00    +0.000 OA
BRANCH  23  24
ATOM     24  C   UNL     1       5.485   2.601  11.912  0.00  0.00    +0.000 C 
BRANCH  24  26
ATOM     25  C   UNL     1       3.575   3.280  10.465  0.00  0.00    +0.000 C 
ATOM     26  C   UNL     1       4.342   3.591  11.743  0.00  0.00    +0.000 C 
ENDBRANCH  24  26
ENDBRANCH  23  24
ENDBRANCH  17  23
ENDBRANCH   1  20
BRANCH   3  27
ATOM     27  C   UNL     1       8.360   7.651  18.026  0.00  0.00    +0.000 C 
BRANCH  27  28
ATOM     28  C   UNL     1       8.407   9.170  18.049  0.00  0.00    +0.000 C 
BRANCH  28  29
ATOM     29  C   UNL     1       8.905   9.708  19.391  0.00  0.00    +0.000 C 
BRANCH  29  30
ATOM     30  C   UNL     1       9.887  10.826  19.141  0.00  0.00    +0.000 A 
ATOM     31  C   UNL     1      10.160  11.242  17.832  0.00  0.00    +0.000 A 
ATOM     32  C   UNL     1      11.156  12.186  17.587  0.00  0.00    +0.000 A 
ATOM     33  C   UNL     1      11.886  12.722  18.646  0.00  0.00    +0.000 A 
ATOM     34  C   UNL     1      11.609  12.326  19.954  0.00  0.00    +0.000 A 
ATOM     35  C   UNL     1      10.613  11.382  20.203  0.00  0.00    +0.000 A 
ENDBRANCH  29  30
ENDBRANCH  28  29
ENDBRANCH  27  28
ENDBRANCH   3  27
TORSDOF 9
ENDMDL
MODEL 3
REMARK VINA RESULT:      -8.4      8.444     11.247
REMARK  Name = 
REMARK  10 active torsions:
REMARK  status: ('A' for Active; 'I' for Inactive)
REMARK    1  A    between atoms: C_1  and  C_2
REMARK    2  A    between atoms: C_2  and  C_3
REMARK    3  A    between atoms: C_3  and  O_4
REMARK    4  A    between atoms: O_4  and  C_5
REMARK    5  A    between atoms: C_8  and  C_9
REMARK    6  A    between atoms: N_11  and  C_12
REMARK    7  A    between atoms: C_12  and  C_13
REMARK    8  A    between atoms: C_13  and  C_14
REMARK    9  A    between atoms: C_14  and  C_15
REMARK   10  A    between atoms: N_23  and  C_24
REMARK                            x       y       z     vdW  Elec       q    Type
REMARK                         _______ _______ _______ _____ _____    ______ ____
ROOT
ATOM      1  C   UNL     1       0.114  11.602  20.425  0.00  0.00    +0.000 C 
ATOM      2  C   UNL     1       1.265  10.587  20.420  0.00  0.00    +0.000 C 
ATOM      3  N   UNL     1       0.870   9.634  21.434  0.00  0.00    +0.000 N 
ATOM      4  C   UNL     1      -0.041  10.213  22.326  0.00  0.00    +0.000 C 
ATOM      5  O   UNL     1      -0.483   9.664  23.321  0.00  0.00    +0.000 OA
ATOM      6  N   UNL     1      -0.392  11.481  21.791  0.00  0.00    +0.000 N 
ENDROOT
BRANCH   6   7
ATOM      7  C   UNL     1      -1.222  12.442  22.423  0.00  0.00    +0.000 A 
ATOM      8  C   UNL     1      -0.696  13.691  22.791  0.00  0.00    +0.000 A 
ATOM      9  C   UNL     1      -1.479  14.699  23.374  0.00  0.00    +0.000 A 
ATOM     10  C   UNL     1      -2.816  14.389  23.604  0.00  0.00    +0.000 A 
ATOM     11  N   UNL     1      -3.849  15.101  24.155  0.00  0.00    +0.000 N 
ATOM     12  C   UNL     1      -4.956  14.300  24.160  0.00  0.00    +0.000 A 
ATOM     13  N   UNL     1      -4.708  13.126  23.624  0.00  0.00    +0.000 NA
ATOM     14  C   UNL     1      -3.380  13.164  23.271  0.00  0.00    +0.000 A 
ATOM     15  C   UNL     1      -2.584  12.184  22.656  0.00  0.00    +0.000 A 
ATOM     16  H   UNL     1      -3.799  16.046  24.505  0.00  0.00    +0.000 HD
ENDBRANCH   6   7
BRANCH   1  20
ATOM     17  C   UNL     1      -2.746  10.532  17.324  0.00  0.00    +0.000 A 
ATOM     18  C   UNL     1      -1.509   9.897  17.404  0.00  0.00    +0.000 A 
ATOM     19  C   UNL     1      -0.597  10.233  18.397  0.00  0.00    +0.000 A 
ATOM     20  C   UNL     1      -0.893  11.224  19.342  0.00  0.00    +0.000 A 
ATOM     21  C   UNL     1      -2.124  11.893  19.240  0.00  0.00    +0.000 A 
ATOM     22  C   UNL     1      -3.044  11.544  18.238  0.00  0.00    +0.000 A 
BRANCH  17  23
ATOM     23  O   UNL     1      -3.717  10.232  16.397  0.00  0.00    +0.000 OA
BRANCH  23  24
ATOM     24  C   UNL     1      -3.531  10.870  15.131  0.00  0.00    +0.000 C 
BRANCH  24  26
ATOM     25  C   UNL     1      -4.062   9.838  12.928  0.00  0.00    +0.000 C 
ATOM     26  C   UNL     1      -3.062   9.880  14.075  0.00  0.00    +0.000 C 
ENDBRANCH  24  26
ENDBRANCH  23  24
ENDBRANCH  17  23
ENDBRANCH   1  20
BRANCH   3  27
ATOM     27  C   UNL     1       1.193   8.221  21.378  0.00  0.00    +0.000 C 
BRANCH  27  28
ATOM     28  C   UNL     1       1.602   7.793  19.978  0.00  0.00    +0.000 C 
BRANCH  28  29
ATOM     29  C   UNL     1       2.648   6.678  20.002  0.00  0.00    +0.000 C 
BRANCH  29  30
ATOM     30  C   UNL     1       1.996   5.380  19.595  0.00  0.00    +0.000 A 
ATOM     31  C   UNL     1       1.382   4.569  20.558  0.00  0.00    +0.000 A 
ATOM     32  C   UNL     1       0.889   3.313  20.209  0.00  0.00    +0.000 A 
ATOM     33  C   UNL     1       1.004   2.857  18.898  0.00  0.00    +0.000 A 
ATOM     34  C   UNL     1       1.599   3.664  17.929  0.00  0.00    +0.000 A 
ATOM     35  C   UNL     1       2.093   4.922  18.274  0.00  0.00    +0.000 A 
ENDBRANCH  29  30
ENDBRANCH  28  29
ENDBRANCH  27  28
ENDBRANCH   3  27
TORSDOF 9
ENDMDL
MODEL 4
REMARK VINA RESULT:      -8.1      8.455     11.761
REMARK  Name = 
REMARK  10 active torsions:
REMARK  status: ('A' for Active; 'I' for Inactive)
REMARK    1  A    between atoms: C_1  and  C_2
REMARK    2  A    between atoms: C_2  and  C_3
REMARK    3  A    between atoms: C_3  and  O_4
REMARK    4  A    between atoms: O_4  and  C_5
REMARK    5  A    between atoms: C_8  and  C_9
REMARK    6  A    between atoms: N_11  and  C_12
REMARK    7  A    between atoms: C_12  and  C_13
REMARK    8  A    between atoms: C_13  and  C_14
REMARK    9  A    between atoms: C_14  and  C_15
REMARK   10  A    between atoms: N_23  and  C_24
REMARK                            x       y       z     vdW  Elec       q    Type
REMARK                         _______ _______ _______ _____ _____    ______ ____
ROOT
ATOM      1  C   UNL     1       0.274  11.698  19.288  0.00  0.00    +0.000 C 
ATOM      2  C   UNL     1       1.237  10.578  18.871  0.00  0.00    +0.000 C 
ATOM      3  N   UNL     1       1.274   9.723  20.036  0.00  0.00    +0.000 N 
ATOM      4  C   UNL     1       0.892  10.433  21.181  0.00  0.00    +0.000 C 
ATOM      5  O   UNL     1       0.903   9.981  22.314  0.00  0.00    +0.000 OA
ATOM      6  N   UNL     1       0.421  11.698  20.743  0.00  0.00    +0.000 N 
ENDROOT
BRANCH   6   7
ATOM      7  C   UNL     1       0.019  12.766  21.585  0.00  0.00    +0.000 A 
ATOM      8  C   UNL     1      -1.015  12.576  22.516  0.00  0.00    +0.000 A 
ATOM      9  C   UNL     1      -1.423  13.579  23.409  0.00  0.00    +0.000 A 
ATOM     10  C   UNL     1      -0.768  14.801  23.307  0.00  0.00    +0.000 A 
ATOM     11  N   UNL     1      -0.906  15.985  23.985  0.00  0.00    +0.000 N 
ATOM     12  C   UNL     1      -0.017  16.878  23.459  0.00  0.00    +0.000 A 
ATOM     13  N   UNL     1       0.704  16.338  22.501  0.00  0.00    +0.000 NA
ATOM     14  C   UNL     1       0.250  15.045  22.394  0.00  0.00    +0.000 A 
ATOM     15  C   UNL     1       0.665  14.014  21.535  0.00  0.00    +0.000 A 
ATOM     16  H   UNL     1      -1.558  16.167  24.734  0.00  0.00    +0.000 HD
ENDBRANCH   6   7
BRANCH   1  20
ATOM     17  C   UNL     1      -3.726  10.745  17.861  0.00  0.00    +0.000 A 
ATOM     18  C   UNL     1      -2.632   9.963  17.496  0.00  0.00    +0.000 A 
ATOM     19  C   UNL     1      -1.355  10.263  17.956  0.00  0.00    +0.000 A 
ATOM     20  C   UNL     1      -1.130  11.362  18.794  0.00  0.00    +0.000 A 
ATOM     21  C   UNL     1      -2.225  12.175  19.132  0.00  0.00    +0.000 A 
ATOM     22  C   UNL     1      -3.514  11.863  18.670  0.00  0.00    +0.000 A 
BRANCH  17  23
ATOM     23  O   UNL     1      -5.023  10.495  17.480  0.00  0.00    +0.000 OA
BRANCH  23  24
ATOM     24  C   UNL     1      -6.005  11.125  18.307  0.00  0.00    +0.000 C 
BRANCH  24  26
ATOM     25  C   UNL     1      -7.383  10.742  20.345  0.00  0.00    +0.000 C 
ATOM     26  C   UNL     1      -6.809  10.098  19.091  0.00  0.00    +0.000 C 
ENDBRANCH  24  26
ENDBRANCH  23  24
ENDBRANCH  17  23
ENDBRANCH   1  20
BRANCH   3  27
ATOM     27  C   UNL     1       1.449   8.284  19.972  0.00  0.00    +0.000 C 
BRANCH  27  28
ATOM     28  C   UNL     1       2.091   7.855  18.663  0.00  0.00    +0.000 C 
BRANCH  28  29
ATOM     29  C   UNL     1       3.128   6.750  18.868  0.00  0.00    +0.000 C 
BRANCH  29  30
ATOM     30  C   UNL     1       2.416   5.448  19.138  0.00  0.00    +0.000 A 
ATOM     31  C   UNL     1       1.988   4.646  18.072  0.00  0.00    +0.000 A 
ATOM     32  C   UNL     1       1.221   3.507  18.312  0.00  0.00    +0.000 A 
ATOM     33  C   UNL     1       0.876   3.159  19.617  0.00  0.00    +0.000 A 
ATOM     34  C   UNL     1       1.311   3.943  20.685  0.00  0.00    +0.000 A 
ATOM     35  C   UNL     1       2.079   5.083  20.449  0.00  0.00    +0.000 A 
ENDBRANCH  29  30
ENDBRANCH  28  29
ENDBRANCH  27  28
ENDBRANCH   3  27
TORSDOF 9
ENDMDL
MODEL 5
REMARK VINA RESULT:      -8.1      8.433     11.678
REMARK  Name = 
REMARK  10 active torsions:
REMARK  status: ('A' for Active; 'I' for Inactive)
REMARK    1  A    between atoms: C_1  and  C_2
REMARK    2  A    between atoms: C_2  and  C_3
REMARK    3  A    between atoms: C_3  and  O_4
REMARK    4  A    between atoms: O_4  and  C_5
REMARK    5  A    between atoms: C_8  and  C_9
REMARK    6  A    between atoms: N_11  and  C_12
REMARK    7  A    between atoms: C_12  and  C_13
REMARK    8  A    between atoms: C_13  and  C_14
REMARK    9  A    between atoms: C_14  and  C_15
REMARK   10  A    between atoms: N_23  and  C_24
REMARK                            x       y       z     vdW  Elec       q    Type
REMARK                         _______ _______ _______ _____ _____    ______ ____
ROOT
ATOM      1  C   UNL     1       0.394  11.648  19.106  0.00  0.00    +0.000 C 
ATOM      2  C   UNL     1       1.289  10.448  18.766  0.00  0.00    +0.000 C 
ATOM      3  N   UNL     1       1.299   9.685  19.994  0.00  0.00    +0.000 N 
ATOM      4  C   UNL     1       0.974  10.501  21.085  0.00  0.00    +0.000 C 
ATOM      5  O   UNL     1       0.979  10.139  22.249  0.00  0.00    +0.000 OA
ATOM      6  N   UNL     1       0.563  11.752  20.554  0.00  0.00    +0.000 N 
ENDROOT
BRANCH   6   7
ATOM      7  C   UNL     1       0.232  12.903  21.315  0.00  0.00    +0.000 A 
ATOM      8  C   UNL     1       0.773  14.152  20.971  0.00  0.00    +0.000 A 
ATOM      9  C   UNL     1       0.444  15.333  21.655  0.00  0.00    +0.000 A 
ATOM     10  C   UNL     1      -0.431  15.203  22.728  0.00  0.00    +0.000 A 
ATOM     11  N   UNL     1      -0.951  16.111  23.614  0.00  0.00    +0.000 N 
ATOM     12  C   UNL     1      -1.748  15.433  24.492  0.00  0.00    +0.000 A 
ATOM     13  N   UNL     1      -1.795  14.149  24.214  0.00  0.00    +0.000 NA
ATOM     14  C   UNL     1      -0.981  13.988  23.118  0.00  0.00    +0.000 A 
ATOM     15  C   UNL     1      -0.665  12.826  22.395  0.00  0.00    +0.000 A 
ATOM     16  H   UNL     1      -0.768  17.104  23.621  0.00  0.00    +0.000 HD
ENDBRANCH   6   7
BRANCH   1  20
ATOM     17  C   UNL     1      -3.682  10.795  17.840  0.00  0.00    +0.000 A 
ATOM     18  C   UNL     1      -3.411  11.846  18.713  0.00  0.00    +0.000 A 
ATOM     19  C   UNL     1      -2.109  12.123  19.113  0.00  0.00    +0.000 A 
ATOM     20  C   UNL     1      -1.034  11.351  18.656  0.00  0.00    +0.000 A 
ATOM     21  C   UNL     1      -1.309  10.267  17.806  0.00  0.00    +0.000 A 
ATOM     22  C   UNL     1      -2.626   9.996  17.400  0.00  0.00    +0.000 A 
BRANCH  17  23
ATOM     23  O   UNL     1      -4.935  10.479  17.368  0.00  0.00    +0.000 OA
BRANCH  23  24
ATOM     24  C   UNL     1      -5.991  11.233  17.968  0.00  0.00    +0.000 C 
BRANCH  24  26
ATOM     25  C   UNL     1      -6.967  11.040  20.250  0.00  0.00    +0.000 C 
ATOM     26  C   UNL     1      -6.833  10.366  18.892  0.00  0.00    +0.000 C 
ENDBRANCH  24  26
ENDBRANCH  23  24
ENDBRANCH  17  23
ENDBRANCH   1  20
BRANCH   3  27
ATOM     27  C   UNL     1       1.397   8.238  20.040  0.00  0.00    +0.000 C 
BRANCH  27  28
ATOM     28  C   UNL     1       2.205   7.692  18.875  0.00  0.00    +0.000 C 
BRANCH  28  29
ATOM     29  C   UNL     1       3.087   6.514  19.289  0.00  0.00    +0.000 C 
BRANCH  29  30
ATOM     30  C   UNL     1       2.248   5.261  19.335  0.00  0.00    +0.000 A 
ATOM     31  C   UNL     1       1.864   4.716  20.567  0.00  0.00    +0.000 A 
ATOM     32  C   UNL     1       1.197   3.494  20.619  0.00  0.00    +0.000 A 
ATOM     33  C   UNL     1       0.907   2.806  19.442  0.00  0.00    +0.000 A 
ATOM     34  C   UNL     1       1.271   3.348  18.210  0.00  0.00    +0.000 A 
ATOM     35  C   UNL     1       1.938   4.572  18.154  0.00  0.00    +0.000 A 
ENDBRANCH  29  30
ENDBRANCH  28  29
ENDBRANCH  27  28
ENDBRANCH   3  27
TORSDOF 9
ENDMDL
MODEL 6
REMARK VINA RESULT:      -7.8      8.632     11.856
REMARK  Name = 
REMARK  10 active torsions:
REMARK  status: ('A' for Active; 'I' for Inactive)
REMARK    1  A    between atoms: C_1  and  C_2
REMARK    2  A    between atoms: C_2  and  C_3
REMARK    3  A    between atoms: C_3  and  O_4
REMARK    4  A    between atoms: O_4  and  C_5
REMARK    5  A    between atoms: C_8  and  C_9
REMARK    6  A    between atoms: N_11  and  C_12
REMARK    7  A    between atoms: C_12  and  C_13
REMARK    8  A    between atoms: C_13  and  C_14
REMARK    9  A    between atoms: C_14  and  C_15
REMARK   10  A    between atoms: N_23  and  C_24
REMARK                            x       y       z     vdW  Elec       q    Type
REMARK                         _______ _______ _______ _____ _____    ______ ____
ROOT
ATOM      1  C   UNL     1       0.156  11.564  19.861  0.00  0.00    +0.000 C 
ATOM      2  C   UNL     1       0.971  10.275  19.692  0.00  0.00    +0.000 C 
ATOM      3  N   UNL     1       0.742   9.573  20.935  0.00  0.00    +0.000 N 
ATOM      4  C   UNL     1       0.350  10.466  21.940  0.00  0.00    +0.000 C 
ATOM      5  O   UNL     1       0.163  10.161  23.106  0.00  0.00    +0.000 OA
ATOM      6  N   UNL     1       0.136  11.722  21.314  0.00  0.00    +0.000 N 
ENDROOT
BRANCH   6   7
ATOM      7  C   UNL     1      -0.185  12.932  21.980  0.00  0.00    +0.000 A 
ATOM      8  C   UNL     1      -1.209  12.955  22.940  0.00  0.00    +0.000 A 
ATOM      9  C   UNL     1      -1.539  14.110  23.667  0.00  0.00    +0.000 A 
ATOM     10  C   UNL     1      -0.815  15.259  23.365  0.00  0.00    +0.000 A 
ATOM     11  N   UNL     1      -0.870  16.541  23.848  0.00  0.00    +0.000 N 
ATOM     12  C   UNL     1       0.061  17.283  23.177  0.00  0.00    +0.000 A 
ATOM     13  N   UNL     1       0.729  16.555  22.310  0.00  0.00    +0.000 NA
ATOM     14  C   UNL     1       0.197  15.292  22.414  0.00  0.00    +0.000 A 
ATOM     15  C   UNL     1       0.533  14.115  21.725  0.00  0.00    +0.000 A 
ATOM     16  H   UNL     1      -1.494  16.878  24.565  0.00  0.00    +0.000 HD
ENDBRANCH   6   7
BRANCH   1  20
ATOM     17  C   UNL     1      -3.772  11.016  18.068  0.00  0.00    +0.000 A 
ATOM     18  C   UNL     1      -3.550  12.021  19.007  0.00  0.00    +0.000 A 
ATOM     19  C   UNL     1      -2.294  12.200  19.576  0.00  0.00    +0.000 A 
ATOM     20  C   UNL     1      -1.219  11.374  19.226  0.00  0.00    +0.000 A 
ATOM     21  C   UNL     1      -1.450  10.336  18.308  0.00  0.00    +0.000 A 
ATOM     22  C   UNL     1      -2.719  10.164  17.732  0.00  0.00    +0.000 A 
BRANCH  17  23
ATOM     23  O   UNL     1      -4.972  10.797  17.433  0.00  0.00    +0.000 OA
BRANCH  23  24
ATOM     24  C   UNL     1      -6.099  11.371  18.100  0.00  0.00    +0.000 C 
BRANCH  24  26
ATOM     25  C   UNL     1      -7.150  10.825  20.289  0.00  0.00    +0.000 C 
ATOM     26  C   UNL     1      -6.874  10.320  18.880  0.00  0.00    +0.000 C 
ENDBRANCH  24  26
ENDBRANCH  23  24
ENDBRANCH  17  23
ENDBRANCH   1  20
BRANCH   3  27
ATOM     27  C   UNL     1       0.695   8.127  21.046  0.00  0.00    +0.000 C 
BRANCH  27  28
ATOM     28  C   UNL     1       1.852   7.470  20.312  0.00  0.00    +0.000 C 
BRANCH  28  29
ATOM     29  C   UNL     1       1.904   5.962  20.556  0.00  0.00    +0.000 C 
BRANCH  29  30
ATOM     30  C   UNL     1       2.321   5.269  19.282  0.00  0.00    +0.000 A 
ATOM     31  C   UNL     1       1.632   4.132  18.842  0.00  0.00    +0.000 A 
ATOM     32  C   UNL     1       2.088   3.416  17.736  0.00  0.00    +0.000 A 
ATOM     33  C   UNL     1       3.234   3.831  17.061  0.00  0.00    +0.000 A 
ATOM     34  C   UNL     1       3.917   4.972  17.481  0.00  0.00    +0.000 A 
ATOM     35  C   UNL     1       3.463   5.690  18.587  0.00  0.00    +0.000 A 
ENDBRANCH  29  30
ENDBRANCH  28  29
ENDBRANCH  27  28
ENDBRANCH   3  27
TORSDOF 9
ENDMDL
MODEL 7
REMARK VINA RESULT:      -7.8      8.713     12.049
REMARK  Name = 
REMARK  10 active torsions:
REMARK  status: ('A' for Active; 'I' for Inactive)
REMARK    1  A    between atoms: C_1  and  C_2
REMARK    2  A    between atoms: C_2  and  C_3
REMARK    3  A    between atoms: C_3  and  O_4
REMARK    4  A    between atoms: O_4  and  C_5
REMARK    5  A    between atoms: C_8  and  C_9
REMARK    6  A    between atoms: N_11  and  C_12
REMARK    7  A    between atoms: C_12  and  C_13
REMARK    8  A    between atoms: C_13  and  C_14
REMARK    9  A    between atoms: C_14  and  C_15
REMARK   10  A    between atoms: N_23  and  C_24
REMARK                            x       y       z     vdW  Elec       q    Type
REMARK                         _______ _______ _______ _____ _____    ______ ____
ROOT
ATOM      1  C   UNL     1       0.098  11.496  19.802  0.00  0.00    +0.000 C 
ATOM      2  C   UNL     1       0.853  10.174  19.603  0.00  0.00    +0.000 C 
ATOM      3  N   UNL     1       0.650   9.485  20.857  0.00  0.00    +0.000 N 
ATOM      4  C   UNL     1       0.339  10.395  21.875  0.00  0.00    +0.000 C 
ATOM      5  O   UNL     1       0.191  10.100  23.049  0.00  0.00    +0.000 OA
ATOM      6  N   UNL     1       0.149  11.657  21.254  0.00  0.00    +0.000 N 
ENDROOT
BRANCH   6   7
ATOM      7  C   UNL     1      -0.093  12.881  21.929  0.00  0.00    +0.000 A 
ATOM      8  C   UNL     1       0.667  14.019  21.616  0.00  0.00    +0.000 A 
ATOM      9  C   UNL     1       0.442  15.268  22.214  0.00  0.00    +0.000 A 
ATOM     10  C   UNL     1      -0.566  15.322  23.172  0.00  0.00    +0.000 A 
ATOM     11  N   UNL     1      -1.044  16.341  23.955  0.00  0.00    +0.000 N 
ATOM     12  C   UNL     1      -2.034  15.832  24.747  0.00  0.00    +0.000 A 
ATOM     13  N   UNL     1      -2.241  14.556  24.507  0.00  0.00    +0.000 NA
ATOM     14  C   UNL     1      -1.336  14.223  23.528  0.00  0.00    +0.000 A 
ATOM     15  C   UNL     1      -1.115  12.991  22.889  0.00  0.00    +0.000 A 
ATOM     16  H   UNL     1      -0.716  17.295  23.953  0.00  0.00    +0.000 HD
ENDBRANCH   6   7
BRANCH   1  20
ATOM     17  C   UNL     1      -3.910  11.117  18.151  0.00  0.00    +0.000 A 
ATOM     18  C   UNL     1      -2.898  10.236  17.777  0.00  0.00    +0.000 A 
ATOM     19  C   UNL     1      -1.619  10.352  18.308  0.00  0.00    +0.000 A 
ATOM     20  C   UNL     1      -1.309  11.361  19.229  0.00  0.00    +0.000 A 
ATOM     21  C   UNL     1      -2.318  12.273  19.579  0.00  0.00    +0.000 A 
ATOM     22  C   UNL     1      -3.611  12.147  19.044  0.00  0.00    +0.000 A 
BRANCH  17  23
ATOM     23  O   UNL     1      -5.208  11.047  17.701  0.00  0.00    +0.000 OA
BRANCH  23  24
ATOM     24  C   UNL     1      -6.106  10.402  18.609  0.00  0.00    +0.000 C 
BRANCH  24  26
ATOM     25  C   UNL     1      -6.913  11.611  20.631  0.00  0.00    +0.000 C 
ATOM     26  C   UNL     1      -7.144  11.376  19.144  0.00  0.00    +0.000 C 
ENDBRANCH  24  26
ENDBRANCH  23  24
ENDBRANCH  17  23
ENDBRANCH   1  20
BRANCH   3  27
ATOM     27  C   UNL     1       0.549   8.042  20.975  0.00  0.00    +0.000 C 
BRANCH  27  28
ATOM     28  C   UNL     1       1.919   7.384  20.996  0.00  0.00    +0.000 C 
BRANCH  28  29
ATOM     29  C   UNL     1       2.314   6.838  19.623  0.00  0.00    +0.000 C 
BRANCH  29  30
ATOM     30  C   UNL     1       1.851   5.406  19.509  0.00  0.00    +0.000 A 
ATOM     31  C   UNL     1       1.457   4.701  20.654  0.00  0.00    +0.000 A 
ATOM     32  C   UNL     1       1.148   3.345  20.573  0.00  0.00    +0.000 A 
ATOM     33  C   UNL     1       1.229   2.681  19.350  0.00  0.00    +0.000 A 
ATOM     34  C   UNL     1       1.604   3.379  18.202  0.00  0.00    +0.000 A 
ATOM     35  C   UNL     1       1.913   4.737  18.279  0.00  0.00    +0.000 A 
ENDBRANCH  29  30
ENDBRANCH  28  29
ENDBRANCH  27  28
ENDBRANCH   3  27
TORSDOF 9
ENDMDL
MODEL 8
REMARK VINA RESULT:      -7.8      8.497     11.545
REMARK  Name = 
REMARK  10 active torsions:
REMARK  status: ('A' for Active; 'I' for Inactive)
REMARK    1  A    between atoms: C_1  and  C_2
REMARK    2  A    between atoms: C_2  and  C_3
REMARK    3  A    between atoms: C_3  and  O_4
REMARK    4  A    between atoms: O_4  and  C_5
REMARK    5  A    between atoms: C_8  and  C_9
REMARK    6  A    between atoms: N_11  and  C_12
REMARK    7  A    between atoms: C_12  and  C_13
REMARK    8  A    between atoms: C_13  and  C_14
REMARK    9  A    between atoms: C_14  and  C_15
REMARK   10  A    between atoms: N_23  and  C_24
REMARK                            x       y       z     vdW  Elec       q    Type
REMARK                         _______ _______ _______ _____ _____    ______ ____
ROOT
ATOM      1  C   UNL     1       0.039  11.851  19.127  0.00  0.00    +0.000 C 
ATOM      2  C   UNL     1       1.024  10.818  18.563  0.00  0.00    +0.000 C 
ATOM      3  N   UNL     1       1.237   9.922  19.678  0.00  0.00    +0.000 N 
ATOM      4  C   UNL     1       0.930  10.557  20.887  0.00  0.00    +0.000 C 
ATOM      5  O   UNL     1       1.088  10.063  21.991  0.00  0.00    +0.000 OA
ATOM      6  N   UNL     1       0.335  11.803  20.558  0.00  0.00    +0.000 N 
ENDROOT
BRANCH   6   7
ATOM      7  C   UNL     1      -0.047  12.806  21.485  0.00  0.00    +0.000 A 
ATOM      8  C   UNL     1      -1.061  12.548  22.422  0.00  0.00    +0.000 A 
ATOM      9  C   UNL     1      -1.447  13.482  23.395  0.00  0.00    +0.000 A 
ATOM     10  C   UNL     1      -0.792  14.709  23.369  0.00  0.00    +0.000 A 
ATOM     11  N   UNL     1      -0.914  15.839  24.136  0.00  0.00    +0.000 N 
ATOM     12  C   UNL     1      -0.034  16.768  23.657  0.00  0.00    +0.000 A 
ATOM     13  N   UNL     1       0.665  16.300  22.647  0.00  0.00    +0.000 NA
ATOM     14  C   UNL     1       0.206  15.019  22.455  0.00  0.00    +0.000 A 
ATOM     15  C   UNL     1       0.601  14.054  21.513  0.00  0.00    +0.000 A 
ATOM     16  H   UNL     1      -1.548  15.965  24.910  0.00  0.00    +0.000 HD
ENDBRANCH   6   7
BRANCH   1  20
ATOM     17  C   UNL     1      -4.016  10.677  18.065  0.00  0.00    +0.000 A 
ATOM     18  C   UNL     1      -2.924   9.905  17.675  0.00  0.00    +0.000 A 
ATOM     19  C   UNL     1      -1.629  10.276  18.019  0.00  0.00    +0.000 A 
ATOM     20  C   UNL     1      -1.384  11.438  18.761  0.00  0.00    +0.000 A 
ATOM     21  C   UNL     1      -2.480  12.238  19.123  0.00  0.00    +0.000 A 
ATOM     22  C   UNL     1      -3.787  11.855  18.779  0.00  0.00    +0.000 A 
BRANCH  17  23
ATOM     23  O   UNL     1      -5.327  10.361  17.799  0.00  0.00    +0.000 OA
BRANCH  23  24
ATOM     24  C   UNL     1      -6.275  11.249  18.398  0.00  0.00    +0.000 C 
BRANCH  24  26
ATOM     25  C   UNL     1      -7.050   9.141  19.472  0.00  0.00    +0.000 C 
ATOM     26  C   UNL     1      -6.882  10.643  19.654  0.00  0.00    +0.000 C 
ENDBRANCH  24  26
ENDBRANCH  23  24
ENDBRANCH  17  23
ENDBRANCH   1  20
BRANCH   3  27
ATOM     27  C   UNL     1       1.498   8.502  19.529  0.00  0.00    +0.000 C 
BRANCH  27  28
ATOM     28  C   UNL     1       1.874   8.147  18.100  0.00  0.00    +0.000 C 
BRANCH  28  29
ATOM     29  C   UNL     1       3.287   7.571  18.004  0.00  0.00    +0.000 C 
BRANCH  29  30
ATOM     30  C   UNL     1       3.199   6.079  17.800  0.00  0.00    +0.000 A 
ATOM     31  C   UNL     1       4.263   5.387  17.207  0.00  0.00    +0.000 A 
ATOM     32  C   UNL     1       4.139   4.032  16.903  0.00  0.00    +0.000 A 
ATOM     33  C   UNL     1       2.953   3.358  17.188  0.00  0.00    +0.000 A 
ATOM     34  C   UNL     1       1.895   4.035  17.793  0.00  0.00    +0.000 A 
ATOM     35  C   UNL     1       2.016   5.391  18.099  0.00  0.00    +0.000 A 
ENDBRANCH  29  30
ENDBRANCH  28  29
ENDBRANCH  27  28
ENDBRANCH   3  27
TORSDOF 9
ENDMDL
MODEL 9
REMARK VINA RESULT:      -7.7      8.573     11.116
REMARK  Name = 
REMARK  10 active torsions:
REMARK  status: ('A' for Active; 'I' for Inactive)
REMARK    1  A    between atoms: C_1  and  C_2
REMARK    2  A    between atoms: C_2  and  C_3
REMARK    3  A    between atoms: C_3  and  O_4
REMARK    4  A    between atoms: O_4  and  C_5
REMARK    5  A    between atoms: C_8  and  C_9
REMARK    6  A    between atoms: N_11  and  C_12
REMARK    7  A    between atoms: C_12  and  C_13
REMARK    8  A    between atoms: C_13  and  C_14
REMARK    9  A    between atoms: C_14  and  C_15
REMARK   10  A    between atoms: N_23  and  C_24
REMARK                            x       y       z     vdW  Elec       q    Type
REMARK                         _______ _______ _______ _____ _____    ______ ____
ROOT
ATOM      1  C   UNL     1      -0.074  11.623  20.707  0.00  0.00    +0.000 C 
ATOM      2  C   UNL     1       1.061  10.597  20.590  0.00  0.00    +0.000 C 
ATOM      3  N   UNL     1       0.636   9.532  21.471  0.00  0.00    +0.000 N 
ATOM      4  C   UNL     1      -0.279  10.010  22.416  0.00  0.00    +0.000 C 
ATOM      5  O   UNL     1      -0.745   9.348  23.329  0.00  0.00    +0.000 OA
ATOM      6  N   UNL     1      -0.602  11.341  22.040  0.00  0.00    +0.000 N 
ENDROOT
BRANCH   6   7
ATOM      7  C   UNL     1      -1.427  12.229  22.776  0.00  0.00    +0.000 A 
ATOM      8  C   UNL     1      -2.715  11.830  23.167  0.00  0.00    +0.000 A 
ATOM      9  C   UNL     1      -3.558  12.646  23.938  0.00  0.00    +0.000 A 
ATOM     10  C   UNL     1      -3.064  13.902  24.276  0.00  0.00    +0.000 A 
ATOM     11  N   UNL     1      -3.598  14.945  24.987  0.00  0.00    +0.000 N 
ATOM     12  C   UNL     1      -2.683  15.960  24.995  0.00  0.00    +0.000 A 
ATOM     13  N   UNL     1      -1.584  15.628  24.356  0.00  0.00    +0.000 NA
ATOM     14  C   UNL     1      -1.803  14.349  23.902  0.00  0.00    +0.000 A 
ATOM     15  C   UNL     1      -0.964  13.500  23.161  0.00  0.00    +0.000 A 
ATOM     16  H   UNL     1      -4.509  14.964  25.420  0.00  0.00    +0.000 HD
ENDBRANCH   6   7
BRANCH   1  20
ATOM     17  C   UNL     1      -2.925  10.983  17.482  0.00  0.00    +0.000 A 
ATOM     18  C   UNL     1      -3.189  11.901  18.496  0.00  0.00    +0.000 A 
ATOM     19  C   UNL     1      -2.276  12.111  19.524  0.00  0.00    +0.000 A 
ATOM     20  C   UNL     1      -1.069  11.402  19.572  0.00  0.00    +0.000 A 
ATOM     21  C   UNL     1      -0.819  10.448  18.572  0.00  0.00    +0.000 A 
ATOM     22  C   UNL     1      -1.741  10.245  17.533  0.00  0.00    +0.000 A 
BRANCH  17  23
ATOM     23  O   UNL     1      -3.757  10.744  16.413  0.00  0.00    +0.000 OA
BRANCH  23  24
ATOM     24  C   UNL     1      -3.324   9.678  15.564  0.00  0.00    +0.000 C 
BRANCH  24  26
ATOM     25  C   UNL     1      -4.255   9.850  13.262  0.00  0.00    +0.000 C 
ATOM     26  C   UNL     1      -3.061  10.171  14.149  0.00  0.00    +0.000 C 
ENDBRANCH  24  26
ENDBRANCH  23  24
ENDBRANCH  17  23
ENDBRANCH   1  20
BRANCH   3  27
ATOM     27  C   UNL     1       0.938   8.131  21.242  0.00  0.00    +0.000 C 
BRANCH  27  28
ATOM     28  C   UNL     1       2.180   7.957  20.384  0.00  0.00    +0.000 C 
BRANCH  28  29
ATOM     29  C   UNL     1       1.845   7.427  18.990  0.00  0.00    +0.000 C 
BRANCH  29  30
ATOM     30  C   UNL     1       2.459   6.060  18.820  0.00  0.00    +0.000 A 
ATOM     31  C   UNL     1       3.676   5.753  19.444  0.00  0.00    +0.000 A 
ATOM     32  C   UNL     1       4.310   4.538  19.191  0.00  0.00    +0.000 A 
ATOM     33  C   UNL     1       3.734   3.619  18.315  0.00  0.00    +0.000 A 
ATOM     34  C   UNL     1       2.516   3.909  17.703  0.00  0.00    +0.000 A 
ATOM     35  C   UNL     1       1.878   5.124  17.954  0.00  0.00    +0.000 A 
ENDBRANCH  29  30
ENDBRANCH  28  29
ENDBRANCH  27  28
ENDBRANCH   3  27
TORSDOF 9
ENDMDL
