MODEL 1
REMARK VINA RESULT:      -7.2      0.000      0.000
REMARK  Name = 
REMARK  7 active torsions:
REMARK  status: ('A' for Active; 'I' for Inactive)
REMARK    1  A    between atoms: C_1  and  C_2
REMARK    2  A    between atoms: C_2  and  C_4
REMARK    3  A    between atoms: C_5  and  N_6
REMARK    4  A    between atoms: N_11  and  C1*_12
REMARK    5  A    between atoms: C3*_14  and  O3*_15
REMARK    6  A    between atoms: C4*_16  and  C5*_17
REMARK    7  A    between atoms: C5*_17  and  O5*_18
REMARK                            x       y       z     vdW  Elec       q    Type
REMARK                         _______ _______ _______ _____ _____    ______ ____
ROOT
ATOM      1  N   UNL     1       6.079   4.611  16.930  0.00  0.00    +0.000 N 
ATOM      2  C   UNL     1       6.720   5.135  18.056  0.00  0.00    +0.000 A 
ATOM      3  O   UNL     1       7.886   5.520  18.138  0.00  0.00    +0.000 OA
ATOM      4  C   UNL     1       5.927   5.230  19.288  0.00  0.00    +0.000 A 
ATOM      5  C   UNL     1       4.676   4.791  19.306  0.00  0.00    +0.000 A 
ATOM      6  N   UNL     1       4.078   4.256  18.190  0.00  0.00    +0.000 N 
ATOM      7  C   UNL     1       4.745   4.120  16.972  0.00  0.00    +0.000 A 
ATOM      8  O   UNL     1       4.189   3.589  16.007  0.00  0.00    +0.000 OA
ENDROOT
BRANCH   6   9
ATOM      9  C1* UNL     1       2.715   3.731  18.266  0.00  0.00    +0.000 C 
ATOM     10  C2* UNL     1       2.658   2.261  18.669  0.00  0.00    +0.000 C 
ATOM     11  C3* UNL     1       1.341   2.169  19.405  0.00  0.00    +0.000 C 
ATOM     12  C4* UNL     1       1.188   3.544  20.048  0.00  0.00    +0.000 C 
ATOM     13  O4* UNL     1       1.942   4.471  19.232  0.00  0.00    +0.000 OA
BRANCH  11  14
ATOM     14  O3* UNL     1       0.293   1.915  18.470  0.00  0.00    +0.000 OA
ATOM     15  H3* UNL     1      -0.532   2.321  18.788  0.00  0.00    +0.000 HD
ENDBRANCH  11  14
BRANCH  12  16
ATOM     16  C5* UNL     1       1.742   3.593  21.476  0.00  0.00    +0.000 C 
BRANCH  16  17
ATOM     17  O5* UNL     1       1.556   2.341  22.134  0.00  0.00    +0.000 OA
ATOM     18  H5* UNL     1       0.972   1.806  21.566  0.00  0.00    +0.000 HD
ENDBRANCH  16  17
ENDBRANCH  12  16
ENDBRANCH   6   9
BRANCH   1  20
ATOM     19  C   UNL     1       6.628   5.318  14.627  0.00  0.00    +0.000 C 
ATOM     20  C   UNL     1       6.741   4.514  15.693  0.00  0.00    +0.000 C 
BRANCH  19  22
ATOM     21  C   UNL     1       6.913   3.977  12.486  0.00  0.00    +0.000 C 
ATOM     22  C   UNL     1       7.433   5.050  13.402  0.00  0.00    +0.000 C 
ATOM     23  O   UNL     1       8.459   5.677  13.153  0.00  0.00    +0.000 OA
ENDBRANCH  19  22
ENDBRANCH   1  20
TORSDOF 6
ENDMDL
MODEL 2
REMARK VINA RESULT:      -7.0      1.449      1.958
REMARK  Name = 
REMARK  7 active torsions:
REMARK  status: ('A' for Active; 'I' for Inactive)
REMARK    1  A    between atoms: C_1  and  C_2
REMARK    2  A    between atoms: C_2  and  C_4
REMARK    3  A    between atoms: C_5  and  N_6
REMARK    4  A    between atoms: N_11  and  C1*_12
REMARK    5  A    between atoms: C3*_14  and  O3*_15
REMARK    6  A    between atoms: C4*_16  and  C5*_17
REMARK    7  A    between atoms: C5*_17  and  O5*_18
REMARK                            x       y       z     vdW  Elec       q    Type
REMARK                         _______ _______ _______ _____ _____    ______ ____
ROOT
ATOM      1  N   UNL     1       5.546   4.937  16.177  0.00  0.00    +0.000 N 
ATOM      2  C   UNL     1       6.506   5.677  16.873  0.00  0.00    +0.000 A 
ATOM      3  O   UNL     1       7.523   6.197  16.413  0.00  0.00    +0.000 OA
ATOM      4  C   UNL     1       6.295   5.849  18.316  0.00  0.00    +0.000 A 
ATOM      5  C   UNL     1       5.253   5.280  18.904  0.00  0.00    +0.000 A 
ATOM      6  N   UNL     1       4.337   4.536  18.200  0.00  0.00    +0.000 N 
ATOM      7  C   UNL     1       4.447   4.312  16.827  0.00  0.00    +0.000 A 
ATOM      8  O   UNL     1       3.630   3.597  16.241  0.00  0.00    +0.000 OA
ENDROOT
BRANCH   6   9
ATOM      9  C1* UNL     1       3.232   3.878  18.897  0.00  0.00    +0.000 C 
ATOM     10  C2* UNL     1       3.571   3.492  20.333  0.00  0.00    +0.000 C 
ATOM     11  C3* UNL     1       2.232   3.589  21.028  0.00  0.00    +0.000 C 
ATOM     12  C4* UNL     1       1.512   4.705  20.276  0.00  0.00    +0.000 C 
ATOM     13  O4* UNL     1       2.079   4.742  18.945  0.00  0.00    +0.000 OA
BRANCH  11  14
ATOM     14  O3* UNL     1       1.539   2.347  20.897  0.00  0.00    +0.000 OA
ATOM     15  H3* UNL     1       1.368   2.168  19.956  0.00  0.00    +0.000 HD
ENDBRANCH  11  14
BRANCH  12  16
ATOM     16  C5* UNL     1       1.712   6.078  20.925  0.00  0.00    +0.000 C 
BRANCH  16  17
ATOM     17  O5* UNL     1       2.384   6.967  20.034  0.00  0.00    +0.000 OA
ATOM     18  H5* UNL     1       3.321   6.699  20.020  0.00  0.00    +0.000 HD
ENDBRANCH  16  17
ENDBRANCH  12  16
ENDBRANCH   6   9
BRANCH   1  20
ATOM     19  C   UNL     1       6.327   3.810  14.121  0.00  0.00    +0.000 C 
ATOM     20  C   UNL     1       5.638   4.748  14.786  0.00  0.00    +0.000 C 
BRANCH  19  22
ATOM     21  C   UNL     1       5.035   3.205  12.017  0.00  0.00    +0.000 C 
ATOM     22  C   UNL     1       6.286   3.770  12.633  0.00  0.00    +0.000 C 
ATOM     23  O   UNL     1       7.218   4.183  11.948  0.00  0.00    +0.000 OA
ENDBRANCH  19  22
ENDBRANCH   1  20
TORSDOF 6
ENDMDL
MODEL 3
REMARK VINA RESULT:      -6.9      1.531      2.057
REMARK  Name = 
REMARK  7 active torsions:
REMARK  status: ('A' for Active; 'I' for Inactive)
REMARK    1  A    between atoms: C_1  and  C_2
REMARK    2  A    between atoms: C_2  and  C_4
REMARK    3  A    between atoms: C_5  and  N_6
REMARK    4  A    between atoms: N_11  and  C1*_12
REMARK    5  A    between atoms: C3*_14  and  O3*_15
REMARK    6  A    between atoms: C4*_16  and  C5*_17
REMARK    7  A    between atoms: C5*_17  and  O5*_18
REMARK                            x       y       z     vdW  Elec       q    Type
REMARK                         _______ _______ _______ _____ _____    ______ ____
ROOT
ATOM      1  N   UNL     1       5.685   4.045  16.633  0.00  0.00    +0.000 N 
ATOM      2  C   UNL     1       6.672   4.704  17.370  0.00  0.00    +0.000 A 
ATOM      3  O   UNL     1       7.818   4.973  17.008  0.00  0.00    +0.000 OA
ATOM      4  C   UNL     1       6.320   5.116  18.735  0.00  0.00    +0.000 A 
ATOM      5  C   UNL     1       5.124   4.823  19.225  0.00  0.00    +0.000 A 
ATOM      6  N   UNL     1       4.180   4.151  18.487  0.00  0.00    +0.000 N 
ATOM      7  C   UNL     1       4.416   3.715  17.183  0.00  0.00    +0.000 A 
ATOM      8  O   UNL     1       3.560   3.071  16.571  0.00  0.00    +0.000 OA
ENDROOT
BRANCH   6   9
ATOM      9  C1* UNL     1       2.893   3.797  19.085  0.00  0.00    +0.000 C 
ATOM     10  C2* UNL     1       3.000   3.405  20.556  0.00  0.00    +0.000 C 
ATOM     11  C3* UNL     1       1.664   3.838  21.113  0.00  0.00    +0.000 C 
ATOM     12  C4* UNL     1       1.298   5.058  20.271  0.00  0.00    +0.000 C 
ATOM     13  O4* UNL     1       1.975   4.905  19.002  0.00  0.00    +0.000 OA
BRANCH  11  14
ATOM     14  O3* UNL     1       0.715   2.786  20.941  0.00  0.00    +0.000 OA
ATOM     15  H3* UNL     1      -0.160   3.085  21.242  0.00  0.00    +0.000 HD
ENDBRANCH  11  14
BRANCH  12  16
ATOM     16  C5* UNL     1       1.754   6.374  20.909  0.00  0.00    +0.000 C 
BRANCH  16  17
ATOM     17  O5* UNL     1       2.495   7.158  19.976  0.00  0.00    +0.000 OA
ATOM     18  H5* UNL     1       2.085   8.042  19.960  0.00  0.00    +0.000 HD
ENDBRANCH  16  17
ENDBRANCH  12  16
ENDBRANCH   6   9
BRANCH   1  20
ATOM     19  C   UNL     1       5.730   4.353  14.181  0.00  0.00    +0.000 C 
ATOM     20  C   UNL     1       5.913   3.644  15.304  0.00  0.00    +0.000 C 
BRANCH  19  22
ATOM     21  C   UNL     1       7.277   4.263  12.165  0.00  0.00    +0.000 C 
ATOM     22  C   UNL     1       6.045   3.747  12.857  0.00  0.00    +0.000 C 
ATOM     23  O   UNL     1       5.342   2.869  12.364  0.00  0.00    +0.000 OA
ENDBRANCH  19  22
ENDBRANCH   1  20
TORSDOF 6
ENDMDL
MODEL 4
REMARK VINA RESULT:      -6.8      4.559      7.020
REMARK  Name = 
REMARK  7 active torsions:
REMARK  status: ('A' for Active; 'I' for Inactive)
REMARK    1  A    between atoms: C_1  and  C_2
REMARK    2  A    between atoms: C_2  and  C_4
REMARK    3  A    between atoms: C_5  and  N_6
REMARK    4  A    between atoms: N_11  and  C1*_12
REMARK    5  A    between atoms: C3*_14  and  O3*_15
REMARK    6  A    between atoms: C4*_16  and  C5*_17
REMARK    7  A    between atoms: C5*_17  and  O5*_18
REMARK                            x       y       z     vdW  Elec       q    Type
REMARK                         _______ _______ _______ _____ _____    ______ ____
ROOT
ATOM      1  N   UNL     1       1.583   8.571  19.482  0.00  0.00    +0.000 N 
ATOM      2  C   UNL     1       2.125   8.589  18.194  0.00  0.00    +0.000 A 
ATOM      3  O   UNL     1       2.085   9.513  17.382  0.00  0.00    +0.000 OA
ATOM      4  C   UNL     1       2.811   7.371  17.744  0.00  0.00    +0.000 A 
ATOM      5  C   UNL     1       2.858   6.308  18.535  0.00  0.00    +0.000 A 
ATOM      6  N   UNL     1       2.294   6.309  19.788  0.00  0.00    +0.000 N 
ATOM      7  C   UNL     1       1.619   7.414  20.308  0.00  0.00    +0.000 A 
ATOM      8  O   UNL     1       1.083   7.357  21.417  0.00  0.00    +0.000 OA
ENDROOT
BRANCH   6   9
ATOM      9  C1* UNL     1       2.318   5.097  20.606  0.00  0.00    +0.000 C 
ATOM     10  C2* UNL     1       1.070   4.235  20.443  0.00  0.00    +0.000 C 
ATOM     11  C3* UNL     1       1.597   2.839  20.681  0.00  0.00    +0.000 C 
ATOM     12  C4* UNL     1       3.030   2.898  20.158  0.00  0.00    +0.000 C 
ATOM     13  O4* UNL     1       3.454   4.277  20.262  0.00  0.00    +0.000 OA
BRANCH  11  14
ATOM     14  O3* UNL     1       1.568   2.552  22.078  0.00  0.00    +0.000 OA
ATOM     15  H3* UNL     1       0.727   2.118  22.304  0.00  0.00    +0.000 HD
ENDBRANCH  11  14
BRANCH  12  16
ATOM     16  C5* UNL     1       3.142   2.465  18.693  0.00  0.00    +0.000 C 
BRANCH  16  17
ATOM     17  O5* UNL     1       2.059   1.609  18.333  0.00  0.00    +0.000 OA
ATOM     18  H5* UNL     1       1.641   1.997  17.542  0.00  0.00    +0.000 HD
ENDBRANCH  16  17
ENDBRANCH  12  16
ENDBRANCH   6   9
BRANCH   1  20
ATOM     19  C   UNL     1      -0.336  10.083  19.857  0.00  0.00    +0.000 C 
ATOM     20  C   UNL     1       0.939   9.701  20.018  0.00  0.00    +0.000 C 
BRANCH  19  22
ATOM     21  C   UNL     1      -0.549  11.438  21.998  0.00  0.00    +0.000 C 
ATOM     22  C   UNL     1      -0.834  11.317  20.525  0.00  0.00    +0.000 C 
ATOM     23  O   UNL     1      -1.436  12.190  19.906  0.00  0.00    +0.000 OA
ENDBRANCH  19  22
ENDBRANCH   1  20
TORSDOF 6
ENDMDL
MODEL 5
REMARK VINA RESULT:      -6.8      1.625      2.348
REMARK  Name = 
REMARK  7 active torsions:
REMARK  status: ('A' for Active; 'I' for Inactive)
REMARK    1  A    between atoms: C_1  and  C_2
REMARK    2  A    between atoms: C_2  and  C_4
REMARK    3  A    between atoms: C_5  and  N_6
REMARK    4  A    between atoms: N_11  and  C1*_12
REMARK    5  A    between atoms: C3*_14  and  O3*_15
REMARK    6  A    between atoms: C4*_16  and  C5*_17
REMARK    7  A    between atoms: C5*_17  and  O5*_18
REMARK                            x       y       z     vdW  Elec       q    Type
REMARK                         _______ _______ _______ _____ _____    ______ ____
ROOT
ATOM      1  N   UNL     1       5.676   5.151  16.243  0.00  0.00    +0.000 N 
ATOM      2  C   UNL     1       6.802   5.848  16.689  0.00  0.00    +0.000 A 
ATOM      3  O   UNL     1       7.773   6.202  16.019  0.00  0.00    +0.000 OA
ATOM      4  C   UNL     1       6.848   6.193  18.115  0.00  0.00    +0.000 A 
ATOM      5  C   UNL     1       5.869   5.809  18.921  0.00  0.00    +0.000 A 
ATOM      6  N   UNL     1       4.784   5.101  18.460  0.00  0.00    +0.000 N 
ATOM      7  C   UNL     1       4.646   4.723  17.125  0.00  0.00    +0.000 A 
ATOM      8  O   UNL     1       3.682   4.044  16.761  0.00  0.00    +0.000 OA
ENDROOT
BRANCH   6   9
ATOM      9  C1* UNL     1       3.754   4.646  19.392  0.00  0.00    +0.000 C 
ATOM     10  C2* UNL     1       2.339   4.771  18.835  0.00  0.00    +0.000 C 
ATOM     11  C3* UNL     1       1.613   3.633  19.513  0.00  0.00    +0.000 C 
ATOM     12  C4* UNL     1       2.690   2.566  19.686  0.00  0.00    +0.000 C 
ATOM     13  O4* UNL     1       3.959   3.260  19.736  0.00  0.00    +0.000 OA
BRANCH  11  14
ATOM     14  O3* UNL     1       1.114   4.074  20.776  0.00  0.00    +0.000 OA
ATOM     15  H3* UNL     1       1.815   4.550  21.254  0.00  0.00    +0.000 HD
ENDBRANCH  11  14
BRANCH  12  16
ATOM     16  C5* UNL     1       2.728   1.571  18.521  0.00  0.00    +0.000 C 
BRANCH  16  17
ATOM     17  O5* UNL     1       4.068   1.355  18.083  0.00  0.00    +0.000 OA
ATOM     18  H5* UNL     1       4.168   0.396  17.938  0.00  0.00    +0.000 HD
ENDBRANCH  16  17
ENDBRANCH  12  16
ENDBRANCH   6   9
BRANCH   1  20
ATOM     19  C   UNL     1       6.162   3.856  14.194  0.00  0.00    +0.000 C 
ATOM     20  C   UNL     1       5.521   4.807  14.887  0.00  0.00    +0.000 C 
BRANCH  19  22
ATOM     21  C   UNL     1       7.014   3.606  11.812  0.00  0.00    +0.000 C 
ATOM     22  C   UNL     1       5.843   3.638  12.756  0.00  0.00    +0.000 C 
ATOM     23  O   UNL     1       4.689   3.485  12.365  0.00  0.00    +0.000 OA
ENDBRANCH  19  22
ENDBRANCH   1  20
TORSDOF 6
ENDMDL
MODEL 6
REMARK VINA RESULT:      -6.7      4.259      7.472
REMARK  Name = 
REMARK  7 active torsions:
REMARK  status: ('A' for Active; 'I' for Inactive)
REMARK    1  A    between atoms: C_1  and  C_2
REMARK    2  A    between atoms: C_2  and  C_4
REMARK    3  A    between atoms: C_5  and  N_6
REMARK    4  A    between atoms: N_11  and  C1*_12
REMARK    5  A    between atoms: C3*_14  and  O3*_15
REMARK    6  A    between atoms: C4*_16  and  C5*_17
REMARK    7  A    between atoms: C5*_17  and  O5*_18
REMARK                            x       y       z     vdW  Elec       q    Type
REMARK                         _______ _______ _______ _____ _____    ______ ____
ROOT
ATOM      1  N   UNL     1       1.543   8.300  19.833  0.00  0.00    +0.000 N 
ATOM      2  C   UNL     1       1.806   9.146  18.754  0.00  0.00    +0.000 A 
ATOM      3  O   UNL     1       1.404  10.299  18.596  0.00  0.00    +0.000 OA
ATOM      4  C   UNL     1       2.644   8.608  17.675  0.00  0.00    +0.000 A 
ATOM      5  C   UNL     1       3.080   7.358  17.737  0.00  0.00    +0.000 A 
ATOM      6  N   UNL     1       2.785   6.537  18.800  0.00  0.00    +0.000 N 
ATOM      7  C   UNL     1       1.996   6.952  19.873  0.00  0.00    +0.000 A 
ATOM      8  O   UNL     1       1.713   6.170  20.784  0.00  0.00    +0.000 OA
ENDROOT
BRANCH   6   9
ATOM      9  C1* UNL     1       3.237   5.147  18.803  0.00  0.00    +0.000 C 
ATOM     10  C2* UNL     1       3.541   4.609  17.408  0.00  0.00    +0.000 C 
ATOM     11  C3* UNL     1       4.634   3.599  17.672  0.00  0.00    +0.000 C 
ATOM     12  C4* UNL     1       5.382   4.179  18.870  0.00  0.00    +0.000 C 
ATOM     13  O4* UNL     1       4.438   5.008  19.588  0.00  0.00    +0.000 OA
BRANCH  11  14
ATOM     14  O3* UNL     1       4.047   2.338  17.990  0.00  0.00    +0.000 OA
ATOM     15  H3* UNL     1       4.584   1.623  17.606  0.00  0.00    +0.000 HD
ENDBRANCH  11  14
BRANCH  12  16
ATOM     16  C5* UNL     1       6.574   5.048  18.456  0.00  0.00    +0.000 C 
BRANCH  16  17
ATOM     17  O5* UNL     1       7.616   4.248  17.899  0.00  0.00    +0.000 OA
ATOM     18  H5* UNL     1       7.457   3.332  18.193  0.00  0.00    +0.000 HD
ENDBRANCH  16  17
ENDBRANCH  12  16
ENDBRANCH   6   9
BRANCH   1  20
ATOM     19  C   UNL     1       1.200   9.398  22.021  0.00  0.00    +0.000 C 
ATOM     20  C   UNL     1       0.782   8.735  20.933  0.00  0.00    +0.000 C 
BRANCH  19  22
ATOM     21  C   UNL     1      -0.959  10.595  22.629  0.00  0.00    +0.000 C 
ATOM     22  C   UNL     1       0.226   9.784  23.079  0.00  0.00    +0.000 C 
ATOM     23  O   UNL     1       0.378   9.450  24.251  0.00  0.00    +0.000 OA
ENDBRANCH  19  22
ENDBRANCH   1  20
TORSDOF 6
ENDMDL
MODEL 7
REMARK VINA RESULT:      -6.7      1.808      2.793
REMARK  Name = 
REMARK  7 active torsions:
REMARK  status: ('A' for Active; 'I' for Inactive)
REMARK    1  A    between atoms: C_1  and  C_2
REMARK    2  A    between atoms: C_2  and  C_4
REMARK    3  A    between atoms: C_5  and  N_6
REMARK    4  A    between atoms: N_11  and  C1*_12
REMARK    5  A    between atoms: C3*_14  and  O3*_15
REMARK    6  A    between atoms: C4*_16  and  C5*_17
REMARK    7  A    between atoms: C5*_17  and  O5*_18
REMARK                            x       y       z     vdW  Elec       q    Type
REMARK                         _______ _______ _______ _____ _____    ______ ____
ROOT
ATOM      1  N   UNL     1       5.831   4.665  15.557  0.00  0.00    +0.000 N 
ATOM      2  C   UNL     1       7.008   5.412  15.653  0.00  0.00    +0.000 A 
ATOM      3  O   UNL     1       7.801   5.673  14.748  0.00  0.00    +0.000 OA
ATOM      4  C   UNL     1       7.354   5.941  16.978  0.00  0.00    +0.000 A 
ATOM      5  C   UNL     1       6.584   5.667  18.021  0.00  0.00    +0.000 A 
ATOM      6  N   UNL     1       5.444   4.908  17.904  0.00  0.00    +0.000 N 
ATOM      7  C   UNL     1       5.029   4.359  16.691  0.00  0.00    +0.000 A 
ATOM      8  O   UNL     1       4.027   3.641  16.637  0.00  0.00    +0.000 OA
ENDROOT
BRANCH   6   9
ATOM      9  C1* UNL     1       4.653   4.581  19.090  0.00  0.00    +0.000 C 
ATOM     10  C2* UNL     1       3.149   4.669  18.853  0.00  0.00    +0.000 C 
ATOM     11  C3* UNL     1       2.602   3.629  19.803  0.00  0.00    +0.000 C 
ATOM     12  C4* UNL     1       3.698   2.569  19.852  0.00  0.00    +0.000 C 
ATOM     13  O4* UNL     1       4.940   3.240  19.535  0.00  0.00    +0.000 OA
BRANCH  11  14
ATOM     14  O3* UNL     1       2.397   4.220  21.086  0.00  0.00    +0.000 OA
ATOM     15  H3* UNL     1       1.443   4.299  21.260  0.00  0.00    +0.000 HD
ENDBRANCH  11  14
BRANCH  12  16
ATOM     16  C5* UNL     1       3.480   1.447  18.831  0.00  0.00    +0.000 C 
BRANCH  16  17
ATOM     17  O5* UNL     1       2.237   1.617  18.150  0.00  0.00    +0.000 OA
ATOM     18  H5* UNL     1       2.136   2.571  17.979  0.00  0.00    +0.000 HD
ENDBRANCH  16  17
ENDBRANCH  12  16
ENDBRANCH   6   9
BRANCH   1  20
ATOM     19  C   UNL     1       6.131   3.609  13.343  0.00  0.00    +0.000 C 
ATOM     20  C   UNL     1       5.393   4.148  14.325  0.00  0.00    +0.000 C 
BRANCH  19  22
ATOM     21  C   UNL     1       6.111   1.909  11.453  0.00  0.00    +0.000 C 
ATOM     22  C   UNL     1       5.471   3.102  12.108  0.00  0.00    +0.000 C 
ATOM     23  O   UNL     1       4.457   3.626  11.655  0.00  0.00    +0.000 OA
ENDBRANCH  19  22
ENDBRANCH   1  20
TORSDOF 6
ENDMDL
MODEL 8
REMARK VINA RESULT:      -6.6      2.589      3.772
REMARK  Name = 
REMARK  7 active torsions:
REMARK  status: ('A' for Active; 'I' for Inactive)
REMARK    1  A    between atoms: C_1  and  C_2
REMARK    2  A    between atoms: C_2  and  C_4
REMARK    3  A    between atoms: C_5  and  N_6
REMARK    4  A    between atoms: N_11  and  C1*_12
REMARK    5  A    between atoms: C3*_14  and  O3*_15
REMARK    6  A    between atoms: C4*_16  and  C5*_17
REMARK    7  A    between atoms: C5*_17  and  O5*_18
REMARK                            x       y       z     vdW  Elec       q    Type
REMARK                         _______ _______ _______ _____ _____    ______ ____
ROOT
ATOM      1  N   UNL     1       6.230   6.291  16.811  0.00  0.00    +0.000 N 
ATOM      2  C   UNL     1       6.805   5.486  15.824  0.00  0.00    +0.000 A 
ATOM      3  O   UNL     1       7.757   5.766  15.095  0.00  0.00    +0.000 OA
ATOM      4  C   UNL     1       6.208   4.161  15.614  0.00  0.00    +0.000 A 
ATOM      5  C   UNL     1       5.147   3.795  16.320  0.00  0.00    +0.000 A 
ATOM      6  N   UNL     1       4.586   4.617  17.268  0.00  0.00    +0.000 N 
ATOM      7  C   UNL     1       5.077   5.894  17.541  0.00  0.00    +0.000 A 
ATOM      8  O   UNL     1       4.514   6.620  18.364  0.00  0.00    +0.000 OA
ENDROOT
BRANCH   6   9
ATOM      9  C1* UNL     1       3.381   4.198  17.984  0.00  0.00    +0.000 C 
ATOM     10  C2* UNL     1       2.574   3.141  17.238  0.00  0.00    +0.000 C 
ATOM     11  C3* UNL     1       1.938   2.354  18.361  0.00  0.00    +0.000 C 
ATOM     12  C4* UNL     1       2.965   2.433  19.486  0.00  0.00    +0.000 C 
ATOM     13  O4* UNL     1       3.725   3.646  19.271  0.00  0.00    +0.000 OA
BRANCH  11  14
ATOM     14  O3* UNL     1       0.709   2.974  18.737  0.00  0.00    +0.000 OA
ATOM     15  H3* UNL     1       0.099   2.975  17.979  0.00  0.00    +0.000 HD
ENDBRANCH  11  14
BRANCH  12  16
ATOM     16  C5* UNL     1       3.935   1.247  19.485  0.00  0.00    +0.000 C 
BRANCH  16  17
ATOM     17  O5* UNL     1       5.215   1.639  19.981  0.00  0.00    +0.000 OA
ATOM     18  H5* UNL     1       5.506   2.398  19.443  0.00  0.00    +0.000 HD
ENDBRANCH  16  17
ENDBRANCH  12  16
ENDBRANCH   6   9
BRANCH   1  20
ATOM     19  C   UNL     1       7.818   7.861  17.870  0.00  0.00    +0.000 C 
ATOM     20  C   UNL     1       6.753   7.561  17.112  0.00  0.00    +0.000 C 
BRANCH  19  22
ATOM     21  C   UNL     1       9.192   9.555  19.176  0.00  0.00    +0.000 C 
ATOM     22  C   UNL     1       8.221   9.282  18.059  0.00  0.00    +0.000 C 
ATOM     23  O   UNL     1       7.791  10.179  17.338  0.00  0.00    +0.000 OA
ENDBRANCH  19  22
ENDBRANCH   1  20
TORSDOF 6
ENDMDL
MODEL 9
REMARK VINA RESULT:      -6.6      1.836      2.519
REMARK  Name = 
REMARK  7 active torsions:
REMARK  status: ('A' for Active; 'I' for Inactive)
REMARK    1  A    between atoms: C_1  and  C_2
REMARK    2  A    between atoms: C_2  and  C_4
REMARK    3  A    between atoms: C_5  and  N_6
REMARK    4  A    between atoms: N_11  and  C1*_12
REMARK    5  A    between atoms: C3*_14  and  O3*_15
REMARK    6  A    between atoms: C4*_16  and  C5*_17
REMARK    7  A    between atoms: C5*_17  and  O5*_18
REMARK                            x       y       z     vdW  Elec       q    Type
REMARK                         _______ _______ _______ _____ _____    ______ ____
ROOT
ATOM      1  N   UNL     1       5.188   5.009  16.023  0.00  0.00    +0.000 N 
ATOM      2  C   UNL     1       4.958   6.383  16.130  0.00  0.00    +0.000 A 
ATOM      3  O   UNL     1       5.278   7.257  15.325  0.00  0.00    +0.000 OA
ATOM      4  C   UNL     1       4.269   6.850  17.340  0.00  0.00    +0.000 A 
ATOM      5  C   UNL     1       3.933   5.983  18.285  0.00  0.00    +0.000 A 
ATOM      6  N   UNL     1       4.194   4.639  18.166  0.00  0.00    +0.000 N 
ATOM      7  C   UNL     1       4.844   4.096  17.057  0.00  0.00    +0.000 A 
ATOM      8  O   UNL     1       5.105   2.891  17.010  0.00  0.00    +0.000 OA
ENDROOT
BRANCH   6   9
ATOM      9  C1* UNL     1       3.858   3.724  19.256  0.00  0.00    +0.000 C 
ATOM     10  C2* UNL     1       3.003   4.370  20.342  0.00  0.00    +0.000 C 
ATOM     11  C3* UNL     1       2.186   3.207  20.856  0.00  0.00    +0.000 C 
ATOM     12  C4* UNL     1       2.009   2.317  19.630  0.00  0.00    +0.000 C 
ATOM     13  O4* UNL     1       3.129   2.586  18.755  0.00  0.00    +0.000 OA
BRANCH  11  14
ATOM     14  O3* UNL     1       2.915   2.534  21.883  0.00  0.00    +0.000 OA
ATOM     15  H3* UNL     1       3.806   2.917  21.955  0.00  0.00    +0.000 HD
ENDBRANCH  11  14
BRANCH  12  16
ATOM     16  C5* UNL     1       0.714   2.616  18.866  0.00  0.00    +0.000 C 
BRANCH  16  17
ATOM     17  O5* UNL     1       0.981   3.403  17.706  0.00  0.00    +0.000 OA
ATOM     18  H5* UNL     1       0.646   4.300  17.889  0.00  0.00    +0.000 HD
ENDBRANCH  16  17
ENDBRANCH  12  16
ENDBRANCH   6   9
BRANCH   1  20
ATOM     19  C   UNL     1       5.234   4.068  13.738  0.00  0.00    +0.000 C 
ATOM     20  C   UNL     1       5.807   4.460  14.885  0.00  0.00    +0.000 C 
BRANCH  19  22
ATOM     21  C   UNL     1       5.429   2.469  11.772  0.00  0.00    +0.000 C 
ATOM     22  C   UNL     1       6.073   3.518  12.637  0.00  0.00    +0.000 C 
ATOM     23  O   UNL     1       7.221   3.906  12.442  0.00  0.00    +0.000 OA
ENDBRANCH  19  22
ENDBRANCH   1  20
TORSDOF 6
ENDMDL
