MODEL 1
REMARK VINA RESULT:      -8.0      0.000      0.000
REMARK  Name = 
REMARK  16 active torsions:
REMARK  status: ('A' for Active; 'I' for Inactive)
REMARK    1  A    between atoms: C_1  and  C_2
REMARK    2  A    between atoms: C_2  and  C_3
REMARK    3  A    between atoms: C_3  and  C_4
REMARK    4  A    between atoms: C_3  and  C_5
REMARK    5  A    between atoms: C_5  and  N_6
REMARK    6  A    between atoms: C_5  and  C_26
REMARK    7  A    between atoms: C_7  and  C_9
REMARK    8  A    between atoms: C_9  and  C_11
REMARK    9  A    between atoms: C_12  and  C_13
REMARK   10  A    between atoms: N_28  and  C_29
REMARK   11  A    between atoms: C_29  and  C_30
REMARK   12  A    between atoms: C_29  and  C_34
REMARK   13  A    between atoms: C_30  and  O_32
REMARK   14  A    between atoms: O_32  and  C_33
REMARK   15  A    between atoms: C_34  and  C_35
REMARK   16  A    between atoms: C_34  and  C_36
REMARK                            x       y       z     vdW  Elec       q    Type
REMARK                         _______ _______ _______ _____ _____    ______ ____
ROOT
ATOM      1  N   UNL     1       2.309   7.622  18.434  0.00  0.00    +0.000 N 
ATOM      2  C   UNL     1       1.677   8.688  19.042  0.00  0.00    +0.000 C 
ATOM      3  O   UNL     1       1.203   8.749  20.161  0.00  0.00    +0.000 OA
ATOM      4  H   UNL     1       2.804   7.836  17.574  0.00  0.00    +0.000 HD
ENDROOT
BRANCH   2   5
ATOM      5  C   UNL     1       1.574   9.938  18.171  0.00  0.00    +0.000 C 
ATOM      6  O   UNL     1       2.420  10.091  17.295  0.00  0.00    +0.000 OA
BRANCH   5   7
ATOM      7  C   UNL     1       0.490  10.871  18.432  0.00  0.00    +0.000 A 
ATOM      8  C   UNL     1       0.637  12.175  18.918  0.00  0.00    +0.000 A 
ATOM      9  N   UNL     1      -0.633  12.717  18.946  0.00  0.00    +0.000 N 
ATOM     10  C   UNL     1      -1.578  11.813  18.512  0.00  0.00    +0.000 A 
ATOM     11  C   UNL     1      -2.962  11.944  18.352  0.00  0.00    +0.000 A 
ATOM     12  C   UNL     1      -3.679  10.831  17.894  0.00  0.00    +0.000 A 
ATOM     13  C   UNL     1      -3.038   9.631  17.618  0.00  0.00    +0.000 A 
ATOM     14  C   UNL     1      -1.653   9.524  17.771  0.00  0.00    +0.000 A 
ATOM     15  C   UNL     1      -0.903  10.629  18.223  0.00  0.00    +0.000 A 
ATOM     16  H   UNL     1      -0.850  13.657  19.247  0.00  0.00    +0.000 HD
BRANCH   8  17
ATOM     17  C   UNL     1       1.839  12.910  19.336  0.00  0.00    +0.000 A 
ATOM     18  C   UNL     1       2.108  13.156  20.689  0.00  0.00    +0.000 A 
ATOM     19  C   UNL     1       3.165  13.993  21.068  0.00  0.00    +0.000 A 
ATOM     20  C   UNL     1       3.967  14.594  20.099  0.00  0.00    +0.000 A 
ATOM     21  C   UNL     1       3.752  14.312  18.755  0.00  0.00    +0.000 A 
ATOM     22  C   UNL     1       2.713  13.456  18.381  0.00  0.00    +0.000 A 
ENDBRANCH   8  17
ENDBRANCH   5   7
ENDBRANCH   2   5
BRANCH   1  23
ATOM     23  C   UNL     1       2.623   6.322  19.032  0.00  0.00    +0.000 C 
BRANCH  23  24
ATOM     24  C   UNL     1       4.137   5.924  18.929  0.00  0.00    +0.000 C 
ATOM     25  O   UNL     1       4.674   5.306  19.849  0.00  0.00    +0.000 OA
ATOM     26  N   UNL     1       4.847   6.316  17.818  0.00  0.00    +0.000 N 
ATOM     27  H   UNL     1       4.441   7.007  17.202  0.00  0.00    +0.000 HD
BRANCH  26  28
ATOM     28  C   UNL     1       6.195   5.780  17.480  0.00  0.00    +0.000 C 
BRANCH  28  29
ATOM     29  C   UNL     1       6.231   5.341  15.986  0.00  0.00    +0.000 C 
ATOM     30  C   UNL     1       6.076   3.835  15.768  0.00  0.00    +0.000 C 
ATOM     31  C   UNL     1       5.237   6.105  15.101  0.00  0.00    +0.000 C 
ENDBRANCH  28  29
BRANCH  28  32
ATOM     32  C   UNL     1       7.405   6.650  17.938  0.00  0.00    +0.000 C 
ATOM     33  O   UNL     1       8.104   6.428  18.920  0.00  0.00    +0.000 OA
BRANCH  32  34
ATOM     34  O   UNL     1       7.467   7.800  17.203  0.00  0.00    +0.000 OA
ATOM     35  C   UNL     1       8.057   8.939  17.839  0.00  0.00    +0.000 C 
ENDBRANCH  32  34
ENDBRANCH  28  32
ENDBRANCH  26  28
ENDBRANCH  23  24
BRANCH  23  36
ATOM     36  C   UNL     1       1.580   5.182  18.880  0.00  0.00    +0.000 C 
ATOM     37  C   UNL     1       1.407   4.469  20.227  0.00  0.00    +0.000 C 
BRANCH  36  39
ATOM     38  C   UNL     1       1.869   2.717  18.327  0.00  0.00    +0.000 C 
ATOM     39  C   UNL     1       1.816   4.139  17.764  0.00  0.00    +0.000 C 
ENDBRANCH  36  39
ENDBRANCH  23  36
ENDBRANCH   1  23
TORSDOF 11
ENDMDL
MODEL 2
REMARK VINA RESULT:      -7.6      0.650      1.080
REMARK  Name = 
REMARK  16 active torsions:
REMARK  status: ('A' for Active; 'I' for Inactive)
REMARK    1  A    between atoms: C_1  and  C_2
REMARK    2  A    between atoms: C_2  and  C_3
REMARK    3  A    between atoms: C_3  and  C_4
REMARK    4  A    between atoms: C_3  and  C_5
REMARK    5  A    between atoms: C_5  and  N_6
REMARK    6  A    between atoms: C_5  and  C_26
REMARK    7  A    between atoms: C_7  and  C_9
REMARK    8  A    between atoms: C_9  and  C_11
REMARK    9  A    between atoms: C_12  and  C_13
REMARK   10  A    between atoms: N_28  and  C_29
REMARK   11  A    between atoms: C_29  and  C_30
REMARK   12  A    between atoms: C_29  and  C_34
REMARK   13  A    between atoms: C_30  and  O_32
REMARK   14  A    between atoms: O_32  and  C_33
REMARK   15  A    between atoms: C_34  and  C_35
REMARK   16  A    between atoms: C_34  and  C_36
REMARK                            x       y       z     vdW  Elec       q    Type
REMARK                         _______ _______ _______ _____ _____    ______ ____
ROOT
ATOM      1  N   UNL     1       2.246   7.605  18.490  0.00  0.00    +0.000 N 
ATOM      2  C   UNL     1       1.638   8.684  19.098  0.00  0.00    +0.000 C 
ATOM      3  O   UNL     1       1.181   8.761  20.223  0.00  0.00    +0.000 OA
ATOM      4  H   UNL     1       2.730   7.805  17.621  0.00  0.00    +0.000 HD
ENDROOT
BRANCH   2   5
ATOM      5  C   UNL     1       1.538   9.929  18.217  0.00  0.00    +0.000 C 
ATOM      6  O   UNL     1       2.391  10.078  17.349  0.00  0.00    +0.000 OA
BRANCH   5   7
ATOM      7  C   UNL     1       0.448  10.859  18.463  0.00  0.00    +0.000 A 
ATOM      8  C   UNL     1       0.586  12.167  18.939  0.00  0.00    +0.000 A 
ATOM      9  N   UNL     1      -0.687  12.705  18.953  0.00  0.00    +0.000 N 
ATOM     10  C   UNL     1      -1.624  11.793  18.518  0.00  0.00    +0.000 A 
ATOM     11  C   UNL     1      -3.008  11.917  18.347  0.00  0.00    +0.000 A 
ATOM     12  C   UNL     1      -3.717  10.797  17.893  0.00  0.00    +0.000 A 
ATOM     13  C   UNL     1      -3.069   9.598  17.632  0.00  0.00    +0.000 A 
ATOM     14  C   UNL     1      -1.684   9.498  17.796  0.00  0.00    +0.000 A 
ATOM     15  C   UNL     1      -0.943  10.610  18.245  0.00  0.00    +0.000 A 
ATOM     16  H   UNL     1      -0.909  13.647  19.244  0.00  0.00    +0.000 HD
BRANCH   8  17
ATOM     17  C   UNL     1       1.781  12.911  19.360  0.00  0.00    +0.000 A 
ATOM     18  C   UNL     1       2.057  13.140  20.714  0.00  0.00    +0.000 A 
ATOM     19  C   UNL     1       3.106  13.985  21.099  0.00  0.00    +0.000 A 
ATOM     20  C   UNL     1       3.894  14.609  20.134  0.00  0.00    +0.000 A 
ATOM     21  C   UNL     1       3.673  14.345  18.788  0.00  0.00    +0.000 A 
ATOM     22  C   UNL     1       2.642  13.482  18.407  0.00  0.00    +0.000 A 
ENDBRANCH   8  17
ENDBRANCH   5   7
ENDBRANCH   2   5
BRANCH   1  23
ATOM     23  C   UNL     1       2.551   6.306  19.095  0.00  0.00    +0.000 C 
BRANCH  23  24
ATOM     24  C   UNL     1       4.006   5.795  18.802  0.00  0.00    +0.000 C 
ATOM     25  O   UNL     1       4.619   5.159  19.661  0.00  0.00    +0.000 OA
ATOM     26  N   UNL     1       4.583   6.109  17.593  0.00  0.00    +0.000 N 
ATOM     27  H   UNL     1       4.147   6.814  17.016  0.00  0.00    +0.000 HD
BRANCH  26  28
ATOM     28  C   UNL     1       5.832   5.468  17.095  0.00  0.00    +0.000 C 
BRANCH  28  29
ATOM     29  C   UNL     1       5.692   5.144  15.578  0.00  0.00    +0.000 C 
ATOM     30  C   UNL     1       5.194   6.314  14.727  0.00  0.00    +0.000 C 
ATOM     31  C   UNL     1       6.965   4.550  14.960  0.00  0.00    +0.000 C 
ENDBRANCH  28  29
BRANCH  28  32
ATOM     32  C   UNL     1       7.163   6.174  17.495  0.00  0.00    +0.000 C 
ATOM     33  O   UNL     1       7.557   7.246  17.049  0.00  0.00    +0.000 OA
BRANCH  32  34
ATOM     34  O   UNL     1       7.923   5.347  18.272  0.00  0.00    +0.000 OA
ATOM     35  C   UNL     1       7.983   5.654  19.670  0.00  0.00    +0.000 C 
ENDBRANCH  32  34
ENDBRANCH  28  32
ENDBRANCH  26  28
ENDBRANCH  23  24
BRANCH  23  36
ATOM     36  C   UNL     1       1.423   5.241  19.136  0.00  0.00    +0.000 C 
ATOM     37  C   UNL     1       1.303   4.683  20.560  0.00  0.00    +0.000 C 
BRANCH  36  39
ATOM     38  C   UNL     1       1.486   2.718  18.829  0.00  0.00    +0.000 C 
ATOM     39  C   UNL     1       1.500   4.075  18.124  0.00  0.00    +0.000 C 
ENDBRANCH  36  39
ENDBRANCH  23  36
ENDBRANCH   1  23
TORSDOF 11
ENDMDL
MODEL 3
REMARK VINA RESULT:      -7.3      1.126      1.891
REMARK  Name = 
REMARK  16 active torsions:
REMARK  status: ('A' for Active; 'I' for Inactive)
REMARK    1  A    between atoms: C_1  and  C_2
REMARK    2  A    between atoms: C_2  and  C_3
REMARK    3  A    between atoms: C_3  and  C_4
REMARK    4  A    between atoms: C_3  and  C_5
REMARK    5  A    between atoms: C_5  and  N_6
REMARK    6  A    between atoms: C_5  and  C_26
REMARK    7  A    between atoms: C_7  and  C_9
REMARK    8  A    between atoms: C_9  and  C_11
REMARK    9  A    between atoms: C_12  and  C_13
REMARK   10  A    between atoms: N_28  and  C_29
REMARK   11  A    between atoms: C_29  and  C_30
REMARK   12  A    between atoms: C_29  and  C_34
REMARK   13  A    between atoms: C_30  and  O_32
REMARK   14  A    between atoms: O_32  and  C_33
REMARK   15  A    between atoms: C_34  and  C_35
REMARK   16  A    between atoms: C_34  and  C_36
REMARK                            x       y       z     vdW  Elec       q    Type
REMARK                         _______ _______ _______ _____ _____    ______ ____
ROOT
ATOM      1  N   UNL     1       2.267   7.903  18.417  0.00  0.00    +0.000 N 
ATOM      2  C   UNL     1       1.601   8.930  19.055  0.00  0.00    +0.000 C 
ATOM      3  O   UNL     1       1.128   8.943  20.176  0.00  0.00    +0.000 OA
ATOM      4  H   UNL     1       2.751   8.157  17.562  0.00  0.00    +0.000 HD
ENDROOT
BRANCH   2   5
ATOM      5  C   UNL     1       1.452  10.199  18.218  0.00  0.00    +0.000 C 
ATOM      6  O   UNL     1       2.311  10.423  17.371  0.00  0.00    +0.000 OA
BRANCH   5   7
ATOM      7  C   UNL     1       0.313  11.064  18.477  0.00  0.00    +0.000 A 
ATOM      8  C   UNL     1       0.378  12.370  18.977  0.00  0.00    +0.000 A 
ATOM      9  N   UNL     1      -0.922  12.836  18.997  0.00  0.00    +0.000 N 
ATOM     10  C   UNL     1      -1.808  11.882  18.546  0.00  0.00    +0.000 A 
ATOM     11  C   UNL     1      -3.196  11.933  18.374  0.00  0.00    +0.000 A 
ATOM     12  C   UNL     1      -3.842  10.784  17.900  0.00  0.00    +0.000 A 
ATOM     13  C   UNL     1      -3.129   9.626  17.619  0.00  0.00    +0.000 A 
ATOM     14  C   UNL     1      -1.741   9.599  17.785  0.00  0.00    +0.000 A 
ATOM     15  C   UNL     1      -1.062  10.742  18.253  0.00  0.00    +0.000 A 
ATOM     16  H   UNL     1      -1.196  13.759  19.304  0.00  0.00    +0.000 HD
BRANCH   8  17
ATOM     17  C   UNL     1       1.531  13.170  19.412  0.00  0.00    +0.000 A 
ATOM     18  C   UNL     1       2.079  13.022  20.693  0.00  0.00    +0.000 A 
ATOM     19  C   UNL     1       3.068  13.898  21.155  0.00  0.00    +0.000 A 
ATOM     20  C   UNL     1       3.526  14.933  20.341  0.00  0.00    +0.000 A 
ATOM     21  C   UNL     1       3.037  15.057  19.046  0.00  0.00    +0.000 A 
ATOM     22  C   UNL     1       2.068  14.166  18.578  0.00  0.00    +0.000 A 
ENDBRANCH   8  17
ENDBRANCH   5   7
ENDBRANCH   2   5
BRANCH   1  23
ATOM     23  C   UNL     1       2.627   6.598  18.979  0.00  0.00    +0.000 C 
BRANCH  23  24
ATOM     24  C   UNL     1       4.076   6.126  18.610  0.00  0.00    +0.000 C 
ATOM     25  O   UNL     1       4.682   5.358  19.359  0.00  0.00    +0.000 OA
ATOM     26  N   UNL     1       4.659   6.619  17.465  0.00  0.00    +0.000 N 
ATOM     27  H   UNL     1       4.230   7.410  17.004  0.00  0.00    +0.000 HD
BRANCH  26  28
ATOM     28  C   UNL     1       5.902   6.052  16.873  0.00  0.00    +0.000 C 
BRANCH  28  29
ATOM     29  C   UNL     1       6.999   5.920  17.971  0.00  0.00    +0.000 C 
ATOM     30  C   UNL     1       7.854   4.656  17.859  0.00  0.00    +0.000 C 
ATOM     31  C   UNL     1       7.903   7.156  18.084  0.00  0.00    +0.000 C 
ENDBRANCH  28  29
BRANCH  28  32
ATOM     32  C   UNL     1       5.714   4.789  15.979  0.00  0.00    +0.000 C 
ATOM     33  O   UNL     1       5.061   3.798  16.284  0.00  0.00    +0.000 OA
BRANCH  32  34
ATOM     34  O   UNL     1       6.527   4.859  14.883  0.00  0.00    +0.000 OA
ATOM     35  C   UNL     1       6.276   3.915  13.836  0.00  0.00    +0.000 C 
ENDBRANCH  32  34
ENDBRANCH  28  32
ENDBRANCH  26  28
ENDBRANCH  23  24
BRANCH  23  36
ATOM     36  C   UNL     1       1.524   5.508  19.047  0.00  0.00    +0.000 C 
ATOM     37  C   UNL     1       1.470   4.930  20.467  0.00  0.00    +0.000 C 
BRANCH  36  39
ATOM     38  C   UNL     1       1.359   2.998  18.680  0.00  0.00    +0.000 C 
ATOM     39  C   UNL     1       1.588   4.358  18.017  0.00  0.00    +0.000 C 
ENDBRANCH  36  39
ENDBRANCH  23  36
ENDBRANCH   1  23
TORSDOF 11
ENDMDL
MODEL 4
REMARK VINA RESULT:      -7.3      2.644      8.715
REMARK  Name = 
REMARK  16 active torsions:
REMARK  status: ('A' for Active; 'I' for Inactive)
REMARK    1  A    between atoms: C_1  and  C_2
REMARK    2  A    between atoms: C_2  and  C_3
REMARK    3  A    between atoms: C_3  and  C_4
REMARK    4  A    between atoms: C_3  and  C_5
REMARK    5  A    between atoms: C_5  and  N_6
REMARK    6  A    between atoms: C_5  and  C_26
REMARK    7  A    between atoms: C_7  and  C_9
REMARK    8  A    between atoms: C_9  and  C_11
REMARK    9  A    between atoms: C_12  and  C_13
REMARK   10  A    between atoms: N_28  and  C_29
REMARK   11  A    between atoms: C_29  and  C_30
REMARK   12  A    between atoms: C_29  and  C_34
REMARK   13  A    between atoms: C_30  and  O_32
REMARK   14  A    between atoms: O_32  and  C_33
REMARK   15  A    between atoms: C_34  and  C_35
REMARK   16  A    between atoms: C_34  and  C_36
REMARK                            x       y       z     vdW  Elec       q    Type
REMARK                         _______ _______ _______ _____ _____    ______ ____
ROOT
ATOM      1  N   UNL     1       2.276   7.766  19.492  0.00  0.00    +0.000 N 
ATOM      2  C   UNL     1       2.396   7.057  18.313  0.00  0.00    +0.000 C 
ATOM      3  O   UNL     1       1.559   6.879  17.448  0.00  0.00    +0.000 OA
ATOM      4  H   UNL     1       3.144   7.957  19.981  0.00  0.00    +0.000 HD
ENDROOT
BRANCH   2   5
ATOM      5  C   UNL     1       3.769   6.423  18.097  0.00  0.00    +0.000 C 
ATOM      6  O   UNL     1       4.650   7.130  17.618  0.00  0.00    +0.000 OA
BRANCH   5   7
ATOM      7  C   UNL     1       3.948   5.028  18.465  0.00  0.00    +0.000 A 
ATOM      8  C   UNL     1       4.761   4.107  17.795  0.00  0.00    +0.000 A 
ATOM      9  N   UNL     1       4.689   2.934  18.521  0.00  0.00    +0.000 N 
ATOM     10  C   UNL     1       3.857   3.067  19.612  0.00  0.00    +0.000 A 
ATOM     11  C   UNL     1       3.519   2.156  20.619  0.00  0.00    +0.000 A 
ATOM     12  C   UNL     1       2.624   2.575  21.612  0.00  0.00    +0.000 A 
ATOM     13  C   UNL     1       2.080   3.852  21.592  0.00  0.00    +0.000 A 
ATOM     14  C   UNL     1       2.440   4.752  20.585  0.00  0.00    +0.000 A 
ATOM     15  C   UNL     1       3.344   4.362  19.576  0.00  0.00    +0.000 A 
ATOM     16  H   UNL     1       5.179   2.083  18.286  0.00  0.00    +0.000 HD
BRANCH   8  17
ATOM     17  C   UNL     1       5.567   4.254  16.575  0.00  0.00    +0.000 A 
ATOM     18  C   UNL     1       6.894   4.700  16.629  0.00  0.00    +0.000 A 
ATOM     19  C   UNL     1       7.601   4.991  15.455  0.00  0.00    +0.000 A 
ATOM     20  C   UNL     1       6.990   4.837  14.212  0.00  0.00    +0.000 A 
ATOM     21  C   UNL     1       5.695   4.337  14.138  0.00  0.00    +0.000 A 
ATOM     22  C   UNL     1       5.001   4.023  15.309  0.00  0.00    +0.000 A 
ENDBRANCH   8  17
ENDBRANCH   5   7
ENDBRANCH   2   5
BRANCH   1  23
ATOM     23  C   UNL     1       1.116   8.540  19.943  0.00  0.00    +0.000 C 
BRANCH  23  24
ATOM     24  C   UNL     1       0.730   9.722  18.987  0.00  0.00    +0.000 C 
ATOM     25  O   UNL     1       1.611  10.433  18.502  0.00  0.00    +0.000 OA
ATOM     26  N   UNL     1      -0.602   9.963  18.743  0.00  0.00    +0.000 N 
ATOM     27  H   UNL     1      -1.292   9.513  19.329  0.00  0.00    +0.000 HD
BRANCH  26  28
ATOM     28  C   UNL     1      -1.083  10.867  17.661  0.00  0.00    +0.000 C 
BRANCH  28  29
ATOM     29  C   UNL     1      -2.201  10.161  16.838  0.00  0.00    +0.000 C 
ATOM     30  C   UNL     1      -3.320   9.554  17.687  0.00  0.00    +0.000 C 
ATOM     31  C   UNL     1      -2.800  11.046  15.737  0.00  0.00    +0.000 C 
ENDBRANCH  28  29
BRANCH  28  32
ATOM     32  C   UNL     1      -1.410  12.328  18.094  0.00  0.00    +0.000 C 
ATOM     33  O   UNL     1      -0.700  13.305  17.885  0.00  0.00    +0.000 OA
BRANCH  32  34
ATOM     34  O   UNL     1      -2.511  12.347  18.903  0.00  0.00    +0.000 OA
ATOM     35  C   UNL     1      -2.337  12.898  20.213  0.00  0.00    +0.000 C 
ENDBRANCH  32  34
ENDBRANCH  28  32
ENDBRANCH  26  28
ENDBRANCH  23  24
BRANCH  23  36
ATOM     36  C   UNL     1       0.955   8.782  21.468  0.00  0.00    +0.000 C 
ATOM     37  C   UNL     1      -0.342   8.121  21.952  0.00  0.00    +0.000 C 
BRANCH  36  39
ATOM     38  C   UNL     1      -0.349  10.721  22.470  0.00  0.00    +0.000 C 
ATOM     39  C   UNL     1       1.016  10.242  21.972  0.00  0.00    +0.000 C 
ENDBRANCH  36  39
ENDBRANCH  23  36
ENDBRANCH   1  23
TORSDOF 11
ENDMDL
MODEL 5
REMARK VINA RESULT:      -7.3      2.530      3.973
REMARK  Name = 
REMARK  16 active torsions:
REMARK  status: ('A' for Active; 'I' for Inactive)
REMARK    1  A    between atoms: C_1  and  C_2
REMARK    2  A    between atoms: C_2  and  C_3
REMARK    3  A    between atoms: C_3  and  C_4
REMARK    4  A    between atoms: C_3  and  C_5
REMARK    5  A    between atoms: C_5  and  N_6
REMARK    6  A    between atoms: C_5  and  C_26
REMARK    7  A    between atoms: C_7  and  C_9
REMARK    8  A    between atoms: C_9  and  C_11
REMARK    9  A    between atoms: C_12  and  C_13
REMARK   10  A    between atoms: N_28  and  C_29
REMARK   11  A    between atoms: C_29  and  C_30
REMARK   12  A    between atoms: C_29  and  C_34
REMARK   13  A    between atoms: C_30  and  O_32
REMARK   14  A    between atoms: O_32  and  C_33
REMARK   15  A    between atoms: C_34  and  C_35
REMARK   16  A    between atoms: C_34  and  C_36
REMARK                            x       y       z     vdW  Elec       q    Type
REMARK                         _______ _______ _______ _____ _____    ______ ____
ROOT
ATOM      1  N   UNL     1       0.917   9.816  19.524  0.00  0.00    +0.000 N 
ATOM      2  C   UNL     1       0.875  11.147  19.887  0.00  0.00    +0.000 C 
ATOM      3  O   UNL     1       1.323  11.673  20.888  0.00  0.00    +0.000 OA
ATOM      4  H   UNL     1       0.659   9.612  18.564  0.00  0.00    +0.000 HD
ENDROOT
BRANCH   2   5
ATOM      5  C   UNL     1       0.165  12.051  18.881  0.00  0.00    +0.000 C 
ATOM      6  O   UNL     1       0.865  12.759  18.163  0.00  0.00    +0.000 OA
BRANCH   5   7
ATOM      7  C   UNL     1      -1.288  12.024  18.837  0.00  0.00    +0.000 A 
ATOM      8  C   UNL     1      -2.142  12.638  19.758  0.00  0.00    +0.000 A 
ATOM      9  N   UNL     1      -3.425  12.419  19.295  0.00  0.00    +0.000 N 
ATOM     10  C   UNL     1      -3.422  11.683  18.129  0.00  0.00    +0.000 A 
ATOM     11  C   UNL     1      -4.477  11.261  17.313  0.00  0.00    +0.000 A 
ATOM     12  C   UNL     1      -4.167  10.503  16.176  0.00  0.00    +0.000 A 
ATOM     13  C   UNL     1      -2.853  10.172  15.875  0.00  0.00    +0.000 A 
ATOM     14  C   UNL     1      -1.811  10.614  16.696  0.00  0.00    +0.000 A 
ATOM     15  C   UNL     1      -2.092  11.385  17.842  0.00  0.00    +0.000 A 
ATOM     16  H   UNL     1      -4.264  12.752  19.749  0.00  0.00    +0.000 HD
BRANCH   8  17
ATOM     17  C   UNL     1      -1.844  13.386  20.987  0.00  0.00    +0.000 A 
ATOM     18  C   UNL     1      -1.480  14.739  20.946  0.00  0.00    +0.000 A 
ATOM     19  C   UNL     1      -1.042  15.398  22.101  0.00  0.00    +0.000 A 
ATOM     20  C   UNL     1      -0.964  14.715  23.313  0.00  0.00    +0.000 A 
ATOM     21  C   UNL     1      -1.380  13.391  23.385  0.00  0.00    +0.000 A 
ATOM     22  C   UNL     1      -1.841  12.742  22.236  0.00  0.00    +0.000 A 
ENDBRANCH   8  17
ENDBRANCH   5   7
ENDBRANCH   2   5
BRANCH   1  23
ATOM     23  C   UNL     1       1.585   8.725  20.239  0.00  0.00    +0.000 C 
BRANCH  23  24
ATOM     24  C   UNL     1       2.190   7.626  19.298  0.00  0.00    +0.000 C 
ATOM     25  O   UNL     1       2.203   7.799  18.078  0.00  0.00    +0.000 OA
ATOM     26  N   UNL     1       2.662   6.462  19.862  0.00  0.00    +0.000 N 
ATOM     27  H   UNL     1       2.430   6.261  20.824  0.00  0.00    +0.000 HD
BRANCH  26  28
ATOM     28  C   UNL     1       3.491   5.474  19.118  0.00  0.00    +0.000 C 
BRANCH  28  29
ATOM     29  C   UNL     1       2.628   4.774  18.026  0.00  0.00    +0.000 C 
ATOM     30  C   UNL     1       3.409   3.813  17.127  0.00  0.00    +0.000 C 
ATOM     31  C   UNL     1       1.384   4.072  18.587  0.00  0.00    +0.000 C 
ENDBRANCH  28  29
BRANCH  28  32
ATOM     32  C   UNL     1       4.880   5.984  18.629  0.00  0.00    +0.000 C 
ATOM     33  O   UNL     1       5.075   6.641  17.613  0.00  0.00    +0.000 OA
BRANCH  32  34
ATOM     34  O   UNL     1       5.878   5.442  19.389  0.00  0.00    +0.000 OA
ATOM     35  C   UNL     1       7.220   5.665  18.941  0.00  0.00    +0.000 C 
ENDBRANCH  32  34
ENDBRANCH  28  32
ENDBRANCH  26  28
ENDBRANCH  23  24
BRANCH  23  36
ATOM     36  C   UNL     1       0.962   8.245  21.577  0.00  0.00    +0.000 C 
ATOM     37  C   UNL     1      -0.550   8.060  21.397  0.00  0.00    +0.000 C 
BRANCH  36  39
ATOM     38  C   UNL     1      -0.059   9.644  23.439  0.00  0.00    +0.000 C 
ATOM     39  C   UNL     1       1.237   9.093  22.840  0.00  0.00    +0.000 C 
ENDBRANCH  36  39
ENDBRANCH  23  36
ENDBRANCH   1  23
TORSDOF 11
ENDMDL
MODEL 6
REMARK VINA RESULT:      -7.2      2.697      5.501
REMARK  Name = 
REMARK  16 active torsions:
REMARK  status: ('A' for Active; 'I' for Inactive)
REMARK    1  A    between atoms: C_1  and  C_2
REMARK    2  A    between atoms: C_2  and  C_3
REMARK    3  A    between atoms: C_3  and  C_4
REMARK    4  A    between atoms: C_3  and  C_5
REMARK    5  A    between atoms: C_5  and  N_6
REMARK    6  A    between atoms: C_5  and  C_26
REMARK    7  A    between atoms: C_7  and  C_9
REMARK    8  A    between atoms: C_9  and  C_11
REMARK    9  A    between atoms: C_12  and  C_13
REMARK   10  A    between atoms: N_28  and  C_29
REMARK   11  A    between atoms: C_29  and  C_30
REMARK   12  A    between atoms: C_29  and  C_34
REMARK   13  A    between atoms: C_30  and  O_32
REMARK   14  A    between atoms: O_32  and  C_33
REMARK   15  A    between atoms: C_34  and  C_35
REMARK   16  A    between atoms: C_34  and  C_36
REMARK                            x       y       z     vdW  Elec       q    Type
REMARK                         _______ _______ _______ _____ _____    ______ ____
ROOT
ATOM      1  N   UNL     1       0.567  10.347  19.744  0.00  0.00    +0.000 N 
ATOM      2  C   UNL     1       0.938  11.676  19.759  0.00  0.00    +0.000 C 
ATOM      3  O   UNL     1       1.991  12.164  20.125  0.00  0.00    +0.000 OA
ATOM      4  H   UNL     1      -0.275  10.131  19.222  0.00  0.00    +0.000 HD
ENDROOT
BRANCH   2   5
ATOM      5  C   UNL     1      -0.135  12.635  19.246  0.00  0.00    +0.000 C 
ATOM      6  O   UNL     1       0.159  13.361  18.302  0.00  0.00    +0.000 OA
BRANCH   5   7
ATOM      7  C   UNL     1      -1.431  12.634  19.906  0.00  0.00    +0.000 A 
ATOM      8  C   UNL     1      -2.617  12.119  19.371  0.00  0.00    +0.000 A 
ATOM      9  N   UNL     1      -3.574  12.262  20.356  0.00  0.00    +0.000 N 
ATOM     10  C   UNL     1      -3.051  12.856  21.485  0.00  0.00    +0.000 A 
ATOM     11  C   UNL     1      -3.645  13.162  22.715  0.00  0.00    +0.000 A 
ATOM     12  C   UNL     1      -2.856  13.786  23.690  0.00  0.00    +0.000 A 
ATOM     13  C   UNL     1      -1.527  14.100  23.440  0.00  0.00    +0.000 A 
ATOM     14  C   UNL     1      -0.947  13.773  22.210  0.00  0.00    +0.000 A 
ATOM     15  C   UNL     1      -1.715  13.139  21.212  0.00  0.00    +0.000 A 
ATOM     16  H   UNL     1      -4.538  11.973  20.267  0.00  0.00    +0.000 HD
BRANCH   8  17
ATOM     17  C   UNL     1      -2.894  11.525  18.056  0.00  0.00    +0.000 A 
ATOM     18  C   UNL     1      -4.099  11.774  17.384  0.00  0.00    +0.000 A 
ATOM     19  C   UNL     1      -4.422  11.079  16.212  0.00  0.00    +0.000 A 
ATOM     20  C   UNL     1      -3.545  10.128  15.695  0.00  0.00    +0.000 A 
ATOM     21  C   UNL     1      -2.319   9.913  16.315  0.00  0.00    +0.000 A 
ATOM     22  C   UNL     1      -1.987  10.626  17.470  0.00  0.00    +0.000 A 
ENDBRANCH   8  17
ENDBRANCH   5   7
ENDBRANCH   2   5
BRANCH   1  23
ATOM     23  C   UNL     1       1.397   9.193  20.103  0.00  0.00    +0.000 C 
BRANCH  23  24
ATOM     24  C   UNL     1       1.809   8.302  18.879  0.00  0.00    +0.000 C 
ATOM     25  O   UNL     1       1.763   8.765  17.739  0.00  0.00    +0.000 OA
ATOM     26  N   UNL     1       2.178   6.997  19.110  0.00  0.00    +0.000 N 
ATOM     27  H   UNL     1       1.986   6.591  20.015  0.00  0.00    +0.000 HD
BRANCH  26  28
ATOM     28  C   UNL     1       2.838   6.143  18.083  0.00  0.00    +0.000 C 
BRANCH  28  29
ATOM     29  C   UNL     1       4.356   6.485  18.006  0.00  0.00    +0.000 C 
ATOM     30  C   UNL     1       5.261   5.508  18.759  0.00  0.00    +0.000 C 
ATOM     31  C   UNL     1       4.867   6.674  16.571  0.00  0.00    +0.000 C 
ENDBRANCH  28  29
BRANCH  28  32
ATOM     32  C   UNL     1       2.512   4.620  18.156  0.00  0.00    +0.000 C 
ATOM     33  O   UNL     1       2.536   3.845  17.207  0.00  0.00    +0.000 OA
BRANCH  32  34
ATOM     34  O   UNL     1       2.013   4.301  19.387  0.00  0.00    +0.000 OA
ATOM     35  C   UNL     1       1.032   3.258  19.432  0.00  0.00    +0.000 C 
ENDBRANCH  32  34
ENDBRANCH  28  32
ENDBRANCH  26  28
ENDBRANCH  23  24
BRANCH  23  36
ATOM     36  C   UNL     1       1.087   8.463  21.437  0.00  0.00    +0.000 C 
ATOM     37  C   UNL     1      -0.322   7.859  21.370  0.00  0.00    +0.000 C 
BRANCH  36  39
ATOM     38  C   UNL     1      -0.104   9.726  23.294  0.00  0.00    +0.000 C 
ATOM     39  C   UNL     1       1.248   9.265  22.748  0.00  0.00    +0.000 C 
ENDBRANCH  36  39
ENDBRANCH  23  36
ENDBRANCH   1  23
TORSDOF 11
ENDMDL
MODEL 7
REMARK VINA RESULT:      -7.2      2.733      4.482
REMARK  Name = 
REMARK  16 active torsions:
REMARK  status: ('A' for Active; 'I' for Inactive)
REMARK    1  A    between atoms: C_1  and  C_2
REMARK    2  A    between atoms: C_2  and  C_3
REMARK    3  A    between atoms: C_3  and  C_4
REMARK    4  A    between atoms: C_3  and  C_5
REMARK    5  A    between atoms: C_5  and  N_6
REMARK    6  A    between atoms: C_5  and  C_26
REMARK    7  A    between atoms: C_7  and  C_9
REMARK    8  A    between atoms: C_9  and  C_11
REMARK    9  A    between atoms: C_12  and  C_13
REMARK   10  A    between atoms: N_28  and  C_29
REMARK   11  A    between atoms: C_29  and  C_30
REMARK   12  A    between atoms: C_29  and  C_34
REMARK   13  A    between atoms: C_30  and  O_32
REMARK   14  A    between atoms: O_32  and  C_33
REMARK   15  A    between atoms: C_34  and  C_35
REMARK   16  A    between atoms: C_34  and  C_36
REMARK                            x       y       z     vdW  Elec       q    Type
REMARK                         _______ _______ _______ _____ _____    ______ ____
ROOT
ATOM      1  N   UNL     1       0.877   9.772  19.575  0.00  0.00    +0.000 N 
ATOM      2  C   UNL     1       0.821  11.115  19.889  0.00  0.00    +0.000 C 
ATOM      3  O   UNL     1       1.239  11.678  20.883  0.00  0.00    +0.000 OA
ATOM      4  H   UNL     1       0.648   9.535  18.615  0.00  0.00    +0.000 HD
ENDROOT
BRANCH   2   5
ATOM      5  C   UNL     1       0.138  11.981  18.832  0.00  0.00    +0.000 C 
ATOM      6  O   UNL     1       0.858  12.613  18.066  0.00  0.00    +0.000 OA
BRANCH   5   7
ATOM      7  C   UNL     1      -1.316  12.009  18.800  0.00  0.00    +0.000 A 
ATOM      8  C   UNL     1      -2.140  12.612  19.756  0.00  0.00    +0.000 A 
ATOM      9  N   UNL     1      -3.433  12.461  19.295  0.00  0.00    +0.000 N 
ATOM     10  C   UNL     1      -3.466  11.778  18.097  0.00  0.00    +0.000 A 
ATOM     11  C   UNL     1      -4.542  11.432  17.273  0.00  0.00    +0.000 A 
ATOM     12  C   UNL     1      -4.268  10.714  16.101  0.00  0.00    +0.000 A 
ATOM     13  C   UNL     1      -2.970  10.349  15.773  0.00  0.00    +0.000 A 
ATOM     14  C   UNL     1      -1.906  10.716  16.603  0.00  0.00    +0.000 A 
ATOM     15  C   UNL     1      -2.150  11.444  17.786  0.00  0.00    +0.000 A 
ATOM     16  H   UNL     1      -4.256  12.803  19.770  0.00  0.00    +0.000 HD
BRANCH   8  17
ATOM     17  C   UNL     1      -1.805  13.293  21.014  0.00  0.00    +0.000 A 
ATOM     18  C   UNL     1      -1.920  12.640  22.248  0.00  0.00    +0.000 A 
ATOM     19  C   UNL     1      -1.756  13.343  23.448  0.00  0.00    +0.000 A 
ATOM     20  C   UNL     1      -1.473  14.707  23.430  0.00  0.00    +0.000 A 
ATOM     21  C   UNL     1      -1.295  15.358  22.214  0.00  0.00    +0.000 A 
ATOM     22  C   UNL     1      -1.434  14.649  21.018  0.00  0.00    +0.000 A 
ENDBRANCH   8  17
ENDBRANCH   5   7
ENDBRANCH   2   5
BRANCH   1  23
ATOM     23  C   UNL     1       1.528   8.710  20.347  0.00  0.00    +0.000 C 
BRANCH  23  24
ATOM     24  C   UNL     1       2.133   7.563  19.464  0.00  0.00    +0.000 C 
ATOM     25  O   UNL     1       2.646   7.830  18.376  0.00  0.00    +0.000 OA
ATOM     26  N   UNL     1       2.038   6.266  19.913  0.00  0.00    +0.000 N 
ATOM     27  H   UNL     1       1.418   6.064  20.686  0.00  0.00    +0.000 HD
BRANCH  26  28
ATOM     28  C   UNL     1       2.796   5.136  19.309  0.00  0.00    +0.000 C 
BRANCH  28  29
ATOM     29  C   UNL     1       2.829   3.932  20.297  0.00  0.00    +0.000 C 
ATOM     30  C   UNL     1       1.452   3.487  20.793  0.00  0.00    +0.000 C 
ATOM     31  C   UNL     1       3.610   2.724  19.761  0.00  0.00    +0.000 C 
ENDBRANCH  28  29
BRANCH  28  32
ATOM     32  C   UNL     1       2.416   4.771  17.842  0.00  0.00    +0.000 C 
ATOM     33  O   UNL     1       1.297   4.445  17.461  0.00  0.00    +0.000 OA
BRANCH  32  34
ATOM     34  O   UNL     1       3.539   4.682  17.069  0.00  0.00    +0.000 OA
ATOM     35  C   UNL     1       4.679   5.432  17.505  0.00  0.00    +0.000 C 
ENDBRANCH  32  34
ENDBRANCH  28  32
ENDBRANCH  26  28
ENDBRANCH  23  24
BRANCH  23  36
ATOM     36  C   UNL     1       0.887   8.299  21.699  0.00  0.00    +0.000 C 
ATOM     37  C   UNL     1      -0.631   8.172  21.524  0.00  0.00    +0.000 C 
BRANCH  36  39
ATOM     38  C   UNL     1      -0.083   9.663  23.613  0.00  0.00    +0.000 C 
ATOM     39  C   UNL     1       1.198   9.173  22.935  0.00  0.00    +0.000 C 
ENDBRANCH  36  39
ENDBRANCH  23  36
ENDBRANCH   1  23
TORSDOF 11
ENDMDL
MODEL 8
REMARK VINA RESULT:      -7.2      1.316      2.270
REMARK  Name = 
REMARK  16 active torsions:
REMARK  status: ('A' for Active; 'I' for Inactive)
REMARK    1  A    between atoms: C_1  and  C_2
REMARK    2  A    between atoms: C_2  and  C_3
REMARK    3  A    between atoms: C_3  and  C_4
REMARK    4  A    between atoms: C_3  and  C_5
REMARK    5  A    between atoms: C_5  and  N_6
REMARK    6  A    between atoms: C_5  and  C_26
REMARK    7  A    between atoms: C_7  and  C_9
REMARK    8  A    between atoms: C_9  and  C_11
REMARK    9  A    between atoms: C_12  and  C_13
REMARK   10  A    between atoms: N_28  and  C_29
REMARK   11  A    between atoms: C_29  and  C_30
REMARK   12  A    between atoms: C_29  and  C_34
REMARK   13  A    between atoms: C_30  and  O_32
REMARK   14  A    between atoms: O_32  and  C_33
REMARK   15  A    between atoms: C_34  and  C_35
REMARK   16  A    between atoms: C_34  and  C_36
REMARK                            x       y       z     vdW  Elec       q    Type
REMARK                         _______ _______ _______ _____ _____    ______ ____
ROOT
ATOM      1  N   UNL     1       2.321   7.665  19.315  0.00  0.00    +0.000 N 
ATOM      2  C   UNL     1       1.558   8.601  18.648  0.00  0.00    +0.000 C 
ATOM      3  O   UNL     1       1.278   8.645  17.465  0.00  0.00    +0.000 OA
ATOM      4  H   UNL     1       2.274   7.699  20.328  0.00  0.00    +0.000 HD
ENDROOT
BRANCH   2   5
ATOM      5  C   UNL     1       1.011   9.716  19.537  0.00  0.00    +0.000 C 
ATOM      6  O   UNL     1       1.326   9.701  20.723  0.00  0.00    +0.000 OA
BRANCH   5   7
ATOM      7  C   UNL     1       0.150  10.719  18.932  0.00  0.00    +0.000 A 
ATOM      8  C   UNL     1       0.480  12.065  18.737  0.00  0.00    +0.000 A 
ATOM      9  N   UNL     1      -0.592  12.628  18.072  0.00  0.00    +0.000 N 
ATOM     10  C   UNL     1      -1.590  11.703  17.849  0.00  0.00    +0.000 A 
ATOM     11  C   UNL     1      -2.822  11.829  17.197  0.00  0.00    +0.000 A 
ATOM     12  C   UNL     1      -3.650  10.700  17.133  0.00  0.00    +0.000 A 
ATOM     13  C   UNL     1      -3.265   9.497  17.709  0.00  0.00    +0.000 A 
ATOM     14  C   UNL     1      -2.025   9.389  18.345  0.00  0.00    +0.000 A 
ATOM     15  C   UNL     1      -1.167  10.505  18.419  0.00  0.00    +0.000 A 
ATOM     16  H   UNL     1      -0.646  13.595  17.784  0.00  0.00    +0.000 HD
BRANCH   8  17
ATOM     17  C   UNL     1       1.683  12.819  19.114  0.00  0.00    +0.000 A 
ATOM     18  C   UNL     1       1.957  13.132  20.452  0.00  0.00    +0.000 A 
ATOM     19  C   UNL     1       3.015  13.986  20.786  0.00  0.00    +0.000 A 
ATOM     20  C   UNL     1       3.815  14.537  19.787  0.00  0.00    +0.000 A 
ATOM     21  C   UNL     1       3.595  14.189  18.459  0.00  0.00    +0.000 A 
ATOM     22  C   UNL     1       2.555  13.317  18.130  0.00  0.00    +0.000 A 
ENDBRANCH   8  17
ENDBRANCH   5   7
ENDBRANCH   2   5
BRANCH   1  23
ATOM     23  C   UNL     1       2.918   6.449  18.755  0.00  0.00    +0.000 C 
BRANCH  23  24
ATOM     24  C   UNL     1       4.044   6.723  17.698  0.00  0.00    +0.000 C 
ATOM     25  O   UNL     1       3.855   7.541  16.796  0.00  0.00    +0.000 OA
ATOM     26  N   UNL     1       5.215   6.005  17.781  0.00  0.00    +0.000 N 
ATOM     27  H   UNL     1       5.245   5.194  18.383  0.00  0.00    +0.000 HD
BRANCH  26  28
ATOM     28  C   UNL     1       6.443   6.356  17.015  0.00  0.00    +0.000 C 
BRANCH  28  29
ATOM     29  C   UNL     1       7.649   6.507  17.989  0.00  0.00    +0.000 C 
ATOM     30  C   UNL     1       8.113   7.950  18.200  0.00  0.00    +0.000 C 
ATOM     31  C   UNL     1       7.427   5.825  19.346  0.00  0.00    +0.000 C 
ENDBRANCH  28  29
BRANCH  28  32
ATOM     32  C   UNL     1       6.726   5.490  15.751  0.00  0.00    +0.000 C 
ATOM     33  O   UNL     1       7.747   5.536  15.075  0.00  0.00    +0.000 OA
BRANCH  32  34
ATOM     34  O   UNL     1       5.603   4.801  15.387  0.00  0.00    +0.000 OA
ATOM     35  C   UNL     1       5.632   3.381  15.570  0.00  0.00    +0.000 C 
ENDBRANCH  32  34
ENDBRANCH  28  32
ENDBRANCH  26  28
ENDBRANCH  23  24
BRANCH  23  36
ATOM     36  C   UNL     1       1.986   5.235  18.497  0.00  0.00    +0.000 C 
ATOM     37  C   UNL     1       1.741   4.494  19.817  0.00  0.00    +0.000 C 
BRANCH  36  39
ATOM     38  C   UNL     1       2.379   2.790  17.924  0.00  0.00    +0.000 C 
ATOM     39  C   UNL     1       2.408   4.228  17.403  0.00  0.00    +0.000 C 
ENDBRANCH  36  39
ENDBRANCH  23  36
ENDBRANCH   1  23
TORSDOF 11
ENDMDL
MODEL 9
REMARK VINA RESULT:      -7.1      1.222      1.980
REMARK  Name = 
REMARK  16 active torsions:
REMARK  status: ('A' for Active; 'I' for Inactive)
REMARK    1  A    between atoms: C_1  and  C_2
REMARK    2  A    between atoms: C_2  and  C_3
REMARK    3  A    between atoms: C_3  and  C_4
REMARK    4  A    between atoms: C_3  and  C_5
REMARK    5  A    between atoms: C_5  and  N_6
REMARK    6  A    between atoms: C_5  and  C_26
REMARK    7  A    between atoms: C_7  and  C_9
REMARK    8  A    between atoms: C_9  and  C_11
REMARK    9  A    between atoms: C_12  and  C_13
REMARK   10  A    between atoms: N_28  and  C_29
REMARK   11  A    between atoms: C_29  and  C_30
REMARK   12  A    between atoms: C_29  and  C_34
REMARK   13  A    between atoms: C_30  and  O_32
REMARK   14  A    between atoms: O_32  and  C_33
REMARK   15  A    between atoms: C_34  and  C_35
REMARK   16  A    between atoms: C_34  and  C_36
REMARK                            x       y       z     vdW  Elec       q    Type
REMARK                         _______ _______ _______ _____ _____    ______ ____
ROOT
ATOM      1  N   UNL     1       2.027   7.521  19.985  0.00  0.00    +0.000 N 
ATOM      2  C   UNL     1       1.606   8.519  19.130  0.00  0.00    +0.000 C 
ATOM      3  O   UNL     1       1.588   8.516  17.913  0.00  0.00    +0.000 OA
ATOM      4  H   UNL     1       1.779   7.644  20.961  0.00  0.00    +0.000 HD
ENDROOT
BRANCH   2   5
ATOM      5  C   UNL     1       1.104   9.779  19.832  0.00  0.00    +0.000 C 
ATOM      6  O   UNL     1       1.388   9.918  21.018  0.00  0.00    +0.000 OA
BRANCH   5   7
ATOM      7  C   UNL     1       0.320  10.731  19.061  0.00  0.00    +0.000 A 
ATOM      8  C   UNL     1       0.705  12.038  18.746  0.00  0.00    +0.000 A 
ATOM      9  N   UNL     1      -0.299  12.551  17.949  0.00  0.00    +0.000 N 
ATOM     10  C   UNL     1      -1.309  11.632  17.756  0.00  0.00    +0.000 A 
ATOM     11  C   UNL     1      -2.488  11.715  17.007  0.00  0.00    +0.000 A 
ATOM     12  C   UNL     1      -3.346  10.608  17.006  0.00  0.00    +0.000 A 
ATOM     13  C   UNL     1      -3.040   9.466  17.734  0.00  0.00    +0.000 A 
ATOM     14  C   UNL     1      -1.851   9.398  18.466  0.00  0.00    +0.000 A 
ATOM     15  C   UNL     1      -0.965  10.494  18.481  0.00  0.00    +0.000 A 
ATOM     16  H   UNL     1      -0.301  13.482  17.555  0.00  0.00    +0.000 HD
BRANCH   8  17
ATOM     17  C   UNL     1       1.904  12.799  19.125  0.00  0.00    +0.000 A 
ATOM     18  C   UNL     1       2.121  13.204  20.450  0.00  0.00    +0.000 A 
ATOM     19  C   UNL     1       3.178  14.063  20.772  0.00  0.00    +0.000 A 
ATOM     20  C   UNL     1       4.033  14.529  19.775  0.00  0.00    +0.000 A 
ATOM     21  C   UNL     1       3.869  14.090  18.466  0.00  0.00    +0.000 A 
ATOM     22  C   UNL     1       2.829  13.211  18.151  0.00  0.00    +0.000 A 
ENDBRANCH   8  17
ENDBRANCH   5   7
ENDBRANCH   2   5
BRANCH   1  23
ATOM     23  C   UNL     1       2.490   6.180  19.619  0.00  0.00    +0.000 C 
BRANCH  23  24
ATOM     24  C   UNL     1       3.916   6.156  18.967  0.00  0.00    +0.000 C 
ATOM     25  O   UNL     1       4.831   5.537  19.512  0.00  0.00    +0.000 OA
ATOM     26  N   UNL     1       4.123   6.870  17.809  0.00  0.00    +0.000 N 
ATOM     27  H   UNL     1       3.424   7.540  17.520  0.00  0.00    +0.000 HD
BRANCH  26  28
ATOM     28  C   UNL     1       5.337   6.713  16.960  0.00  0.00    +0.000 C 
BRANCH  28  29
ATOM     29  C   UNL     1       6.617   6.837  17.839  0.00  0.00    +0.000 C 
ATOM     30  C   UNL     1       7.488   5.579  17.865  0.00  0.00    +0.000 C 
ATOM     31  C   UNL     1       7.476   8.062  17.498  0.00  0.00    +0.000 C 
ENDBRANCH  28  29
BRANCH  28  32
ATOM     32  C   UNL     1       5.329   5.500  15.981  0.00  0.00    +0.000 C 
ATOM     33  O   UNL     1       4.886   4.387  16.237  0.00  0.00    +0.000 OA
BRANCH  32  34
ATOM     34  O   UNL     1       6.051   5.793  14.859  0.00  0.00    +0.000 OA
ATOM     35  C   UNL     1       6.784   4.714  14.267  0.00  0.00    +0.000 C 
ENDBRANCH  32  34
ENDBRANCH  28  32
ENDBRANCH  26  28
ENDBRANCH  23  24
BRANCH  23  36
ATOM     36  C   UNL     1       1.442   5.176  19.066  0.00  0.00    +0.000 C 
ATOM     37  C   UNL     1       1.084   4.163  20.160  0.00  0.00    +0.000 C 
BRANCH  36  39
ATOM     38  C   UNL     1       2.052   2.946  18.009  0.00  0.00    +0.000 C 
ATOM     39  C   UNL     1       1.786   4.431  17.756  0.00  0.00    +0.000 C 
ENDBRANCH  36  39
ENDBRANCH  23  36
ENDBRANCH   1  23
TORSDOF 11
ENDMDL
