MODEL 1
REMARK VINA RESULT:      -7.5      0.000      0.000
REMARK  Name = 
REMARK  5 active torsions:
REMARK  status: ('A' for Active; 'I' for Inactive)
REMARK    1  A    between atoms: C_2  and  C_3
REMARK    2  A    between atoms: C_3  and  C_4
REMARK    3  A    between atoms: C_12  and  O_13
REMARK    4  A    between atoms: O_13  and  C_14
REMARK    5  A    between atoms: C_14  and  C_15
REMARK                            x       y       z     vdW  Elec       q    Type
REMARK                         _______ _______ _______ _____ _____    ______ ____
ROOT
ATOM      1  O   UNL     1       0.898   4.357  17.015  0.00  0.00    +0.000 OA
ATOM      2  C   UNL     1       1.687   3.631  17.622  0.00  0.00    +0.000 C 
ATOM      3  N   UNL     1       3.060   3.789  17.538  0.00  0.00    +0.000 N 
ATOM      4  C   UNL     1       4.062   2.921  18.158  0.00  0.00    +0.000 C 
ATOM      5  C   UNL     1       5.016   3.745  19.018  0.00  0.00    +0.000 C 
ATOM      6  C   UNL     1       5.646   4.887  18.206  0.00  0.00    +0.000 C 
ATOM      7  C   UNL     1       4.531   5.743  17.585  0.00  0.00    +0.000 C 
ATOM      8  C   UNL     1       3.604   4.878  16.733  0.00  0.00    +0.000 C 
ENDROOT
BRANCH   2   9
ATOM      9  C   UNL     1       1.187   2.517  18.533  0.00  0.00    +0.000 C 
BRANCH   9  10
ATOM     10  C   UNL     1       1.074   2.940  19.991  0.00  0.00    +0.000 C 
ATOM     11  C   UNL     1       2.084   2.251  20.887  0.00  0.00    +0.000 C 
ATOM     12  C   UNL     1       2.161   3.196  22.068  0.00  0.00    +0.000 C 
ATOM     13  O   UNL     1       1.915   4.513  21.562  0.00  0.00    +0.000 OA
ATOM     14  C   UNL     1       1.414   4.406  20.222  0.00  0.00    +0.000 C 
ENDBRANCH   9  10
ENDBRANCH   2   9
BRANCH   6  15
ATOM     15  O   UNL     1       6.500   4.305  17.210  0.00  0.00    +0.000 OA
BRANCH  15  16
ATOM     16  C   UNL     1       7.106   5.274  16.345  0.00  0.00    +0.000 C 
BRANCH  16  17
ATOM     17  C   UNL     1       6.997   4.898  14.887  0.00  0.00    +0.000 A 
ATOM     18  C   UNL     1       6.094   3.935  14.453  0.00  0.00    +0.000 A 
ATOM     19  C   UNL     1       6.082   3.593  13.103  0.00  0.00    +0.000 A 
ATOM     20  C   UNL     1       6.966   4.213  12.231  0.00  0.00    +0.000 A 
ATOM     21  C   UNL     1       7.834   5.162  12.743  0.00  0.00    +0.000 A 
ATOM     22  N   UNL     1       7.874   5.511  14.046  0.00  0.00    +0.000 NA
ENDBRANCH  16  17
ENDBRANCH  15  16
ENDBRANCH   6  15
TORSDOF 5
ENDMDL
MODEL 2
REMARK VINA RESULT:      -6.7      4.159      5.816
REMARK  Name = 
REMARK  5 active torsions:
REMARK  status: ('A' for Active; 'I' for Inactive)
REMARK    1  A    between atoms: C_2  and  C_3
REMARK    2  A    between atoms: C_3  and  C_4
REMARK    3  A    between atoms: C_12  and  O_13
REMARK    4  A    between atoms: O_13  and  C_14
REMARK    5  A    between atoms: C_14  and  C_15
REMARK                            x       y       z     vdW  Elec       q    Type
REMARK                         _______ _______ _______ _____ _____    ______ ____
ROOT
ATOM      1  O   UNL     1       0.714   8.013  21.550  0.00  0.00    +0.000 OA
ATOM      2  C   UNL     1       1.307   7.979  20.470  0.00  0.00    +0.000 C 
ATOM      3  N   UNL     1       2.007   6.864  20.041  0.00  0.00    +0.000 N 
ATOM      4  C   UNL     1       2.804   6.772  18.817  0.00  0.00    +0.000 C 
ATOM      5  C   UNL     1       2.348   5.583  17.976  0.00  0.00    +0.000 C 
ATOM      6  C   UNL     1       2.374   4.284  18.797  0.00  0.00    +0.000 C 
ATOM      7  C   UNL     1       1.523   4.466  20.063  0.00  0.00    +0.000 C 
ATOM      8  C   UNL     1       2.017   5.665  20.872  0.00  0.00    +0.000 C 
ENDROOT
BRANCH   2   9
ATOM      9  C   UNL     1       1.283   9.171  19.523  0.00  0.00    +0.000 C 
BRANCH   9  10
ATOM     10  C   UNL     1       0.063  10.063  19.712  0.00  0.00    +0.000 C 
ATOM     11  C   UNL     1       0.412  11.442  20.235  0.00  0.00    +0.000 C 
ATOM     12  C   UNL     1      -0.788  12.259  19.808  0.00  0.00    +0.000 C 
ATOM     13  O   UNL     1      -1.277  11.676  18.594  0.00  0.00    +0.000 OA
ATOM     14  C   UNL     1      -0.644  10.402  18.408  0.00  0.00    +0.000 C 
ENDBRANCH   9  10
ENDBRANCH   2   9
BRANCH   6  15
ATOM     15  O   UNL     1       3.743   3.980  19.104  0.00  0.00    +0.000 OA
BRANCH  15  16
ATOM     16  C   UNL     1       4.603   4.017  17.957  0.00  0.00    +0.000 C 
BRANCH  16  17
ATOM     17  C   UNL     1       5.755   4.977  18.128  0.00  0.00    +0.000 A 
ATOM     18  C   UNL     1       6.111   5.867  17.123  0.00  0.00    +0.000 A 
ATOM     19  C   UNL     1       7.219   6.688  17.321  0.00  0.00    +0.000 A 
ATOM     20  C   UNL     1       7.937   6.596  18.505  0.00  0.00    +0.000 A 
ATOM     21  C   UNL     1       7.518   5.683  19.457  0.00  0.00    +0.000 A 
ATOM     22  N   UNL     1       6.452   4.870  19.292  0.00  0.00    +0.000 NA
ENDBRANCH  16  17
ENDBRANCH  15  16
ENDBRANCH   6  15
TORSDOF 5
ENDMDL
MODEL 3
REMARK VINA RESULT:      -6.7      2.122      7.252
REMARK  Name = 
REMARK  5 active torsions:
REMARK  status: ('A' for Active; 'I' for Inactive)
REMARK    1  A    between atoms: C_2  and  C_3
REMARK    2  A    between atoms: C_3  and  C_4
REMARK    3  A    between atoms: C_12  and  O_13
REMARK    4  A    between atoms: O_13  and  C_14
REMARK    5  A    between atoms: C_14  and  C_15
REMARK                            x       y       z     vdW  Elec       q    Type
REMARK                         _______ _______ _______ _____ _____    ______ ____
ROOT
ATOM      1  O   UNL     1       8.097   5.411  14.321  0.00  0.00    +0.000 OA
ATOM      2  C   UNL     1       6.922   5.091  14.513  0.00  0.00    +0.000 C 
ATOM      3  N   UNL     1       6.364   5.029  15.779  0.00  0.00    +0.000 N 
ATOM      4  C   UNL     1       5.009   4.579  16.096  0.00  0.00    +0.000 C 
ATOM      5  C   UNL     1       4.272   5.645  16.903  0.00  0.00    +0.000 C 
ATOM      6  C   UNL     1       5.072   6.040  18.155  0.00  0.00    +0.000 C 
ATOM      7  C   UNL     1       6.480   6.492  17.736  0.00  0.00    +0.000 C 
ATOM      8  C   UNL     1       7.177   5.394  16.934  0.00  0.00    +0.000 C 
ENDROOT
BRANCH   2   9
ATOM      9  C   UNL     1       5.999   4.762  13.347  0.00  0.00    +0.000 C 
BRANCH   9  10
ATOM     10  C   UNL     1       6.138   3.326  12.859  0.00  0.00    +0.000 C 
ATOM     11  C   UNL     1       4.994   2.890  11.966  0.00  0.00    +0.000 C 
ATOM     12  C   UNL     1       5.607   1.740  11.198  0.00  0.00    +0.000 C 
ATOM     13  O   UNL     1       7.005   2.025  11.068  0.00  0.00    +0.000 OA
ATOM     14  C   UNL     1       7.335   3.114  11.943  0.00  0.00    +0.000 C 
ENDBRANCH   9  10
ENDBRANCH   2   9
BRANCH   6  15
ATOM     15  O   UNL     1       5.106   4.907  19.035  0.00  0.00    +0.000 OA
BRANCH  15  16
ATOM     16  C   UNL     1       4.047   4.907  20.001  0.00  0.00    +0.000 C 
BRANCH  16  17
ATOM     17  C   UNL     1       2.927   3.965  19.631  0.00  0.00    +0.000 A 
ATOM     18  C   UNL     1       1.615   4.213  20.016  0.00  0.00    +0.000 A 
ATOM     19  C   UNL     1       0.636   3.278  19.691  0.00  0.00    +0.000 A 
ATOM     20  C   UNL     1       0.990   2.128  19.000  0.00  0.00    +0.000 A 
ATOM     21  C   UNL     1       2.319   1.955  18.652  0.00  0.00    +0.000 A 
ATOM     22  N   UNL     1       3.291   2.841  18.957  0.00  0.00    +0.000 NA
ENDBRANCH  16  17
ENDBRANCH  15  16
ENDBRANCH   6  15
TORSDOF 5
ENDMDL
MODEL 4
REMARK VINA RESULT:      -6.6      4.206      5.593
REMARK  Name = 
REMARK  5 active torsions:
REMARK  status: ('A' for Active; 'I' for Inactive)
REMARK    1  A    between atoms: C_2  and  C_3
REMARK    2  A    between atoms: C_3  and  C_4
REMARK    3  A    between atoms: C_12  and  O_13
REMARK    4  A    between atoms: O_13  and  C_14
REMARK    5  A    between atoms: C_14  and  C_15
REMARK                            x       y       z     vdW  Elec       q    Type
REMARK                         _______ _______ _______ _____ _____    ______ ____
ROOT
ATOM      1  O   UNL     1       4.778   3.447  19.320  0.00  0.00    +0.000 OA
ATOM      2  C   UNL     1       4.585   4.422  18.592  0.00  0.00    +0.000 C 
ATOM      3  N   UNL     1       5.471   5.485  18.521  0.00  0.00    +0.000 N 
ATOM      4  C   UNL     1       5.275   6.712  17.749  0.00  0.00    +0.000 C 
ATOM      5  C   UNL     1       6.463   6.948  16.820  0.00  0.00    +0.000 C 
ATOM      6  C   UNL     1       7.785   6.946  17.602  0.00  0.00    +0.000 C 
ATOM      7  C   UNL     1       7.909   5.631  18.388  0.00  0.00    +0.000 C 
ATOM      8  C   UNL     1       6.701   5.440  19.304  0.00  0.00    +0.000 C 
ENDROOT
BRANCH   2   9
ATOM      9  C   UNL     1       3.354   4.504  17.698  0.00  0.00    +0.000 C 
BRANCH   9  10
ATOM     10  C   UNL     1       2.051   4.597  18.480  0.00  0.00    +0.000 C 
ATOM     11  C   UNL     1       1.575   3.255  19.000  0.00  0.00    +0.000 C 
ATOM     12  C   UNL     1       0.669   3.658  20.143  0.00  0.00    +0.000 C 
ATOM     13  O   UNL     1       1.195   4.878  20.680  0.00  0.00    +0.000 OA
ATOM     14  C   UNL     1       2.178   5.395  19.771  0.00  0.00    +0.000 C 
ENDBRANCH   9  10
ENDBRANCH   2   9
BRANCH   6  15
ATOM     15  O   UNL     1       7.792   8.094  18.464  0.00  0.00    +0.000 OA
BRANCH  15  16
ATOM     16  C   UNL     1       8.069   9.319  17.774  0.00  0.00    +0.000 C 
BRANCH  16  17
ATOM     17  C   UNL     1       9.073  10.180  18.502  0.00  0.00    +0.000 A 
ATOM     18  C   UNL     1       9.074  10.277  19.888  0.00  0.00    +0.000 A 
ATOM     19  C   UNL     1       9.990  11.131  20.497  0.00  0.00    +0.000 A 
ATOM     20  C   UNL     1      10.870  11.863  19.712  0.00  0.00    +0.000 A 
ATOM     21  C   UNL     1      10.806  11.710  18.338  0.00  0.00    +0.000 A 
ATOM     22  N   UNL     1       9.926  10.894  17.719  0.00  0.00    +0.000 NA
ENDBRANCH  16  17
ENDBRANCH  15  16
ENDBRANCH   6  15
TORSDOF 5
ENDMDL
MODEL 5
REMARK VINA RESULT:      -6.6      1.604      2.274
REMARK  Name = 
REMARK  5 active torsions:
REMARK  status: ('A' for Active; 'I' for Inactive)
REMARK    1  A    between atoms: C_2  and  C_3
REMARK    2  A    between atoms: C_3  and  C_4
REMARK    3  A    between atoms: C_12  and  O_13
REMARK    4  A    between atoms: O_13  and  C_14
REMARK    5  A    between atoms: C_14  and  C_15
REMARK                            x       y       z     vdW  Elec       q    Type
REMARK                         _______ _______ _______ _____ _____    ______ ____
ROOT
ATOM      1  O   UNL     1       2.587   7.483  17.913  0.00  0.00    +0.000 OA
ATOM      2  C   UNL     1       3.156   6.517  18.424  0.00  0.00    +0.000 C 
ATOM      3  N   UNL     1       4.366   6.032  17.956  0.00  0.00    +0.000 N 
ATOM      4  C   UNL     1       5.062   4.844  18.452  0.00  0.00    +0.000 C 
ATOM      5  C   UNL     1       6.491   5.199  18.856  0.00  0.00    +0.000 C 
ATOM      6  C   UNL     1       7.238   5.883  17.701  0.00  0.00    +0.000 C 
ATOM      7  C   UNL     1       6.440   7.111  17.236  0.00  0.00    +0.000 C 
ATOM      8  C   UNL     1       5.021   6.708  16.840  0.00  0.00    +0.000 C 
ENDROOT
BRANCH   2   9
ATOM      9  C   UNL     1       2.562   5.806  19.633  0.00  0.00    +0.000 C 
BRANCH   9  10
ATOM     10  C   UNL     1       2.237   4.342  19.367  0.00  0.00    +0.000 C 
ATOM     11  C   UNL     1       1.266   3.758  20.373  0.00  0.00    +0.000 C 
ATOM     12  C   UNL     1       0.691   2.580  19.616  0.00  0.00    +0.000 C 
ATOM     13  O   UNL     1       0.695   2.935  18.229  0.00  0.00    +0.000 OA
ATOM     14  C   UNL     1       1.491   4.118  18.059  0.00  0.00    +0.000 C 
ENDBRANCH   9  10
ENDBRANCH   2   9
BRANCH   6  15
ATOM     15  O   UNL     1       7.409   4.919  16.650  0.00  0.00    +0.000 OA
BRANCH  15  16
ATOM     16  C   UNL     1       7.719   5.511  15.383  0.00  0.00    +0.000 C 
BRANCH  16  17
ATOM     17  C   UNL     1       7.031   4.814  14.234  0.00  0.00    +0.000 A 
ATOM     18  C   UNL     1       5.859   4.092  14.423  0.00  0.00    +0.000 A 
ATOM     19  C   UNL     1       5.303   3.426  13.333  0.00  0.00    +0.000 A 
ATOM     20  C   UNL     1       5.930   3.494  12.097  0.00  0.00    +0.000 A 
ATOM     21  C   UNL     1       7.095   4.234  11.991  0.00  0.00    +0.000 A 
ATOM     22  N   UNL     1       7.660   4.886  13.030  0.00  0.00    +0.000 NA
ENDBRANCH  16  17
ENDBRANCH  15  16
ENDBRANCH   6  15
TORSDOF 5
ENDMDL
MODEL 6
REMARK VINA RESULT:      -6.6      3.909      5.564
REMARK  Name = 
REMARK  5 active torsions:
REMARK  status: ('A' for Active; 'I' for Inactive)
REMARK    1  A    between atoms: C_2  and  C_3
REMARK    2  A    between atoms: C_3  and  C_4
REMARK    3  A    between atoms: C_12  and  O_13
REMARK    4  A    between atoms: O_13  and  C_14
REMARK    5  A    between atoms: C_14  and  C_15
REMARK                            x       y       z     vdW  Elec       q    Type
REMARK                         _______ _______ _______ _____ _____    ______ ____
ROOT
ATOM      1  O   UNL     1       1.387   8.201  21.221  0.00  0.00    +0.000 OA
ATOM      2  C   UNL     1       1.694   7.909  20.063  0.00  0.00    +0.000 C 
ATOM      3  N   UNL     1       2.099   6.636  19.699  0.00  0.00    +0.000 N 
ATOM      4  C   UNL     1       2.558   6.230  18.370  0.00  0.00    +0.000 C 
ATOM      5  C   UNL     1       1.745   5.040  17.870  0.00  0.00    +0.000 C 
ATOM      6  C   UNL     1       1.775   3.885  18.883  0.00  0.00    +0.000 C 
ATOM      7  C   UNL     1       1.287   4.395  20.248  0.00  0.00    +0.000 C 
ATOM      8  C   UNL     1       2.131   5.582  20.708  0.00  0.00    +0.000 C 
ENDROOT
BRANCH   2   9
ATOM      9  C   UNL     1       1.620   8.942  18.947  0.00  0.00    +0.000 C 
BRANCH   9  10
ATOM     10  C   UNL     1       0.882  10.211  19.353  0.00  0.00    +0.000 C 
ATOM     11  C   UNL     1       1.475  11.463  18.739  0.00  0.00    +0.000 C 
ATOM     12  C   UNL     1       0.315  12.432  18.804  0.00  0.00    +0.000 C 
ATOM     13  O   UNL     1      -0.883  11.656  18.682  0.00  0.00    +0.000 OA
ATOM     14  C   UNL     1      -0.549  10.268  18.837  0.00  0.00    +0.000 C 
ENDBRANCH   9  10
ENDBRANCH   2   9
BRANCH   6  15
ATOM     15  O   UNL     1       3.118   3.381  18.941  0.00  0.00    +0.000 OA
BRANCH  15  16
ATOM     16  C   UNL     1       3.666   3.077  17.652  0.00  0.00    +0.000 C 
BRANCH  16  17
ATOM     17  C   UNL     1       5.003   3.740  17.421  0.00  0.00    +0.000 A 
ATOM     18  C   UNL     1       5.696   4.353  18.457  0.00  0.00    +0.000 A 
ATOM     19  C   UNL     1       6.898   4.995  18.167  0.00  0.00    +0.000 A 
ATOM     20  C   UNL     1       7.369   5.010  16.862  0.00  0.00    +0.000 A 
ATOM     21  C   UNL     1       6.619   4.375  15.886  0.00  0.00    +0.000 A 
ATOM     22  N   UNL     1       5.448   3.749  16.135  0.00  0.00    +0.000 NA
ENDBRANCH  16  17
ENDBRANCH  15  16
ENDBRANCH   6  15
TORSDOF 5
ENDMDL
MODEL 7
REMARK VINA RESULT:      -6.6      1.651      2.478
REMARK  Name = 
REMARK  5 active torsions:
REMARK  status: ('A' for Active; 'I' for Inactive)
REMARK    1  A    between atoms: C_2  and  C_3
REMARK    2  A    between atoms: C_3  and  C_4
REMARK    3  A    between atoms: C_12  and  O_13
REMARK    4  A    between atoms: O_13  and  C_14
REMARK    5  A    between atoms: C_14  and  C_15
REMARK                            x       y       z     vdW  Elec       q    Type
REMARK                         _______ _______ _______ _____ _____    ______ ____
ROOT
ATOM      1  O   UNL     1       2.500   7.051  18.438  0.00  0.00    +0.000 OA
ATOM      2  C   UNL     1       3.252   6.163  18.845  0.00  0.00    +0.000 C 
ATOM      3  N   UNL     1       4.387   5.773  18.153  0.00  0.00    +0.000 N 
ATOM      4  C   UNL     1       5.281   4.676  18.524  0.00  0.00    +0.000 C 
ATOM      5  C   UNL     1       6.720   5.177  18.623  0.00  0.00    +0.000 C 
ATOM      6  C   UNL     1       7.151   5.879  17.326  0.00  0.00    +0.000 C 
ATOM      7  C   UNL     1       6.159   7.008  17.005  0.00  0.00    +0.000 C 
ATOM      8  C   UNL     1       4.736   6.459  16.914  0.00  0.00    +0.000 C 
ENDROOT
BRANCH   2   9
ATOM      9  C   UNL     1       2.984   5.451  20.164  0.00  0.00    +0.000 C 
BRANCH   9  10
ATOM     10  C   UNL     1       1.866   4.422  20.073  0.00  0.00    +0.000 C 
ATOM     11  C   UNL     1       1.534   4.032  18.647  0.00  0.00    +0.000 C 
ATOM     12  C   UNL     1       0.872   2.683  18.829  0.00  0.00    +0.000 C 
ATOM     13  O   UNL     1       1.470   2.079  19.982  0.00  0.00    +0.000 OA
ATOM     14  C   UNL     1       2.235   3.074  20.678  0.00  0.00    +0.000 C 
ENDBRANCH   9  10
ENDBRANCH   2   9
BRANCH   6  15
ATOM     15  O   UNL     1       7.204   4.892  16.285  0.00  0.00    +0.000 OA
BRANCH  15  16
ATOM     16  C   UNL     1       7.328   5.457  14.973  0.00  0.00    +0.000 C 
BRANCH  16  17
ATOM     17  C   UNL     1       6.712   4.585  13.906  0.00  0.00    +0.000 A 
ATOM     18  C   UNL     1       7.418   4.232  12.763  0.00  0.00    +0.000 A 
ATOM     19  C   UNL     1       6.775   3.471  11.790  0.00  0.00    +0.000 A 
ATOM     20  C   UNL     1       5.454   3.089  11.981  0.00  0.00    +0.000 A 
ATOM     21  C   UNL     1       4.821   3.481  13.149  0.00  0.00    +0.000 A 
ATOM     22  N   UNL     1       5.416   4.223  14.107  0.00  0.00    +0.000 NA
ENDBRANCH  16  17
ENDBRANCH  15  16
ENDBRANCH   6  15
TORSDOF 5
ENDMDL
MODEL 8
REMARK VINA RESULT:      -6.5      2.735      4.262
REMARK  Name = 
REMARK  5 active torsions:
REMARK  status: ('A' for Active; 'I' for Inactive)
REMARK    1  A    between atoms: C_2  and  C_3
REMARK    2  A    between atoms: C_3  and  C_4
REMARK    3  A    between atoms: C_12  and  O_13
REMARK    4  A    between atoms: O_13  and  C_14
REMARK    5  A    between atoms: C_14  and  C_15
REMARK                            x       y       z     vdW  Elec       q    Type
REMARK                         _______ _______ _______ _____ _____    ______ ____
ROOT
ATOM      1  O   UNL     1       0.869   4.270  20.611  0.00  0.00    +0.000 OA
ATOM      2  C   UNL     1       1.807   5.027  20.354  0.00  0.00    +0.000 C 
ATOM      3  N   UNL     1       2.783   4.714  19.423  0.00  0.00    +0.000 N 
ATOM      4  C   UNL     1       3.969   5.518  19.123  0.00  0.00    +0.000 C 
ATOM      5  C   UNL     1       4.040   5.819  17.628  0.00  0.00    +0.000 C 
ATOM      6  C   UNL     1       3.977   4.526  16.800  0.00  0.00    +0.000 C 
ATOM      7  C   UNL     1       2.711   3.742  17.179  0.00  0.00    +0.000 C 
ATOM      8  C   UNL     1       2.686   3.462  18.681  0.00  0.00    +0.000 C 
ENDROOT
BRANCH   2   9
ATOM      9  C   UNL     1       1.934   6.379  21.043  0.00  0.00    +0.000 C 
BRANCH   9  10
ATOM     10  C   UNL     1       1.044   7.451  20.427  0.00  0.00    +0.000 C 
ATOM     11  C   UNL     1       0.543   8.459  21.442  0.00  0.00    +0.000 C 
ATOM     12  C   UNL     1       0.206   9.650  20.570  0.00  0.00    +0.000 C 
ATOM     13  O   UNL     1       1.111   9.622  19.460  0.00  0.00    +0.000 OA
ATOM     14  C   UNL     1       1.777   8.351  19.442  0.00  0.00    +0.000 C 
ENDBRANCH   9  10
ENDBRANCH   2   9
BRANCH   6  15
ATOM     15  O   UNL     1       5.175   3.777  17.055  0.00  0.00    +0.000 OA
BRANCH  15  16
ATOM     16  C   UNL     1       6.321   4.287  16.362  0.00  0.00    +0.000 C 
BRANCH  16  17
ATOM     17  C   UNL     1       7.040   5.360  17.143  0.00  0.00    +0.000 A 
ATOM     18  C   UNL     1       7.510   5.127  18.430  0.00  0.00    +0.000 A 
ATOM     19  C   UNL     1       8.116   6.175  19.119  0.00  0.00    +0.000 A 
ATOM     20  C   UNL     1       8.233   7.417  18.511  0.00  0.00    +0.000 A 
ATOM     21  C   UNL     1       7.740   7.567  17.226  0.00  0.00    +0.000 A 
ATOM     22  N   UNL     1       7.143   6.573  16.536  0.00  0.00    +0.000 NA
ENDBRANCH  16  17
ENDBRANCH  15  16
ENDBRANCH   6  15
TORSDOF 5
ENDMDL
MODEL 9
REMARK VINA RESULT:      -6.5      1.509      1.884
REMARK  Name = 
REMARK  5 active torsions:
REMARK  status: ('A' for Active; 'I' for Inactive)
REMARK    1  A    between atoms: C_2  and  C_3
REMARK    2  A    between atoms: C_3  and  C_4
REMARK    3  A    between atoms: C_12  and  O_13
REMARK    4  A    between atoms: O_13  and  C_14
REMARK    5  A    between atoms: C_14  and  C_15
REMARK                            x       y       z     vdW  Elec       q    Type
REMARK                         _______ _______ _______ _____ _____    ______ ____
ROOT
ATOM      1  O   UNL     1       2.652   7.189  18.518  0.00  0.00    +0.000 OA
ATOM      2  C   UNL     1       3.028   6.043  18.268  0.00  0.00    +0.000 C 
ATOM      3  N   UNL     1       4.290   5.766  17.769  0.00  0.00    +0.000 N 
ATOM      4  C   UNL     1       4.783   4.448  17.369  0.00  0.00    +0.000 C 
ATOM      5  C   UNL     1       6.085   4.126  18.098  0.00  0.00    +0.000 C 
ATOM      6  C   UNL     1       7.126   5.235  17.886  0.00  0.00    +0.000 C 
ATOM      7  C   UNL     1       6.529   6.582  18.322  0.00  0.00    +0.000 C 
ATOM      8  C   UNL     1       5.232   6.862  17.565  0.00  0.00    +0.000 C 
ENDROOT
BRANCH   2   9
ATOM      9  C   UNL     1       2.121   4.846  18.520  0.00  0.00    +0.000 C 
BRANCH   9  10
ATOM     10  C   UNL     1       2.079   4.422  19.982  0.00  0.00    +0.000 C 
ATOM     11  C   UNL     1       0.866   3.581  20.320  0.00  0.00    +0.000 C 
ATOM     12  C   UNL     1       1.319   2.851  21.567  0.00  0.00    +0.000 C 
ATOM     13  O   UNL     1       2.736   2.673  21.452  0.00  0.00    +0.000 OA
ATOM     14  C   UNL     1       3.216   3.487  20.372  0.00  0.00    +0.000 C 
ENDBRANCH   9  10
ENDBRANCH   2   9
BRANCH   6  15
ATOM     15  O   UNL     1       7.501   5.232  16.499  0.00  0.00    +0.000 OA
BRANCH  15  16
ATOM     16  C   UNL     1       6.938   4.139  15.762  0.00  0.00    +0.000 C 
BRANCH  16  17
ATOM     17  C   UNL     1       6.990   4.359  14.270  0.00  0.00    +0.000 A 
ATOM     18  C   UNL     1       6.249   3.574  13.396  0.00  0.00    +0.000 A 
ATOM     19  C   UNL     1       6.384   3.791  12.026  0.00  0.00    +0.000 A 
ATOM     20  C   UNL     1       7.250   4.775  11.571  0.00  0.00    +0.000 A 
ATOM     21  C   UNL     1       7.953   5.515  12.507  0.00  0.00    +0.000 A 
ATOM     22  N   UNL     1       7.847   5.324  13.840  0.00  0.00    +0.000 NA
ENDBRANCH  16  17
ENDBRANCH  15  16
ENDBRANCH   6  15
TORSDOF 5
ENDMDL
