MODEL 1
REMARK VINA RESULT:      -7.2      0.000      0.000
REMARK  Name = 
REMARK  7 active torsions:
REMARK  status: ('A' for Active; 'I' for Inactive)
REMARK    1  A    between atoms: C_1  and  C_2
REMARK    2  A    between atoms: C_2  and  C_3
REMARK    3  A    between atoms: C_2  and  C_4
REMARK    4  A    between atoms: C_7  and  C_8
REMARK    5  A    between atoms: C_9  and  C_10
REMARK    6  A    between atoms: N_12  and  C_13
REMARK    7  A    between atoms: C_13  and  C_14
REMARK                            x       y       z     vdW  Elec       q    Type
REMARK                         _______ _______ _______ _____ _____    ______ ____
ROOT
ATOM      1  C   UNL     1       3.394   6.699  18.295  0.00  0.00    +0.000 C 
ATOM      2  C   UNL     1       4.032   5.883  19.149  0.00  0.00    +0.000 C 
ENDROOT
BRANCH   1   6
ATOM      3  C   UNL     1       0.585   9.702  19.606  0.00  0.00    +0.000 A 
ATOM      4  C   UNL     1       1.034   8.692  20.471  0.00  0.00    +0.000 A 
ATOM      5  C   UNL     1       1.942   7.718  20.031  0.00  0.00    +0.000 A 
ATOM      6  C   UNL     1       2.408   7.712  18.711  0.00  0.00    +0.000 A 
ATOM      7  C   UNL     1       1.952   8.715  17.847  0.00  0.00    +0.000 A 
ATOM      8  C   UNL     1       1.050   9.690  18.286  0.00  0.00    +0.000 A 
BRANCH   3  10
ATOM      9  C   UNL     1       0.580  12.080  20.325  0.00  0.00    +0.000 C 
ATOM     10  C   UNL     1      -0.284  10.828  20.144  0.00  0.00    +0.000 C 
ATOM     11  C   UNL     1      -1.504  11.164  19.276  0.00  0.00    +0.000 C 
ENDBRANCH   3  10
ENDBRANCH   1   6
BRANCH   2  12
ATOM     12  C   UNL     1       5.023   4.886  18.665  0.00  0.00    +0.000 C 
ATOM     13  O   UNL     1       4.904   3.684  18.845  0.00  0.00    +0.000 OA
ATOM     14  N   UNL     1       6.074   5.476  18.007  0.00  0.00    +0.000 N 
ATOM     15  H   UNL     1       6.052   6.460  17.773  0.00  0.00    +0.000 HD
BRANCH  14  16
ATOM     16  C   UNL     1       7.137   4.693  17.422  0.00  0.00    +0.000 C 
BRANCH  16  17
ATOM     17  C   UNL     1       6.864   4.502  15.972  0.00  0.00    +0.000 A 
ATOM     18  C   UNL     1       5.998   3.689  15.268  0.00  0.00    +0.000 A 
ATOM     19  C   UNL     1       6.191   3.986  13.896  0.00  0.00    +0.000 A 
ATOM     20  C   UNL     1       7.162   4.961  13.849  0.00  0.00    +0.000 A 
ATOM     21  O   UNL     1       7.578   5.280  15.103  0.00  0.00    +0.000 OA
ENDBRANCH  16  17
ENDBRANCH  14  16
ENDBRANCH   2  12
TORSDOF 5
ENDMDL
MODEL 2
REMARK VINA RESULT:      -7.1      4.070      8.885
REMARK  Name = 
REMARK  7 active torsions:
REMARK  status: ('A' for Active; 'I' for Inactive)
REMARK    1  A    between atoms: C_1  and  C_2
REMARK    2  A    between atoms: C_2  and  C_3
REMARK    3  A    between atoms: C_2  and  C_4
REMARK    4  A    between atoms: C_7  and  C_8
REMARK    5  A    between atoms: C_9  and  C_10
REMARK    6  A    between atoms: N_12  and  C_13
REMARK    7  A    between atoms: C_13  and  C_14
REMARK                            x       y       z     vdW  Elec       q    Type
REMARK                         _______ _______ _______ _____ _____    ______ ____
ROOT
ATOM      1  C   UNL     1       2.097   7.902  18.546  0.00  0.00    +0.000 C 
ATOM      2  C   UNL     1       1.698   9.039  17.954  0.00  0.00    +0.000 C 
ENDROOT
BRANCH   1   6
ATOM      3  C   UNL     1       4.860   5.098  16.777  0.00  0.00    +0.000 A 
ATOM      4  C   UNL     1       5.039   6.484  16.648  0.00  0.00    +0.000 A 
ATOM      5  C   UNL     1       4.130   7.385  17.221  0.00  0.00    +0.000 A 
ATOM      6  C   UNL     1       3.007   6.927  17.921  0.00  0.00    +0.000 A 
ATOM      7  C   UNL     1       2.825   5.545  18.041  0.00  0.00    +0.000 A 
ATOM      8  C   UNL     1       3.733   4.644  17.473  0.00  0.00    +0.000 A 
BRANCH   3  10
ATOM      9  C   UNL     1       5.930   4.159  14.740  0.00  0.00    +0.000 C 
ATOM     10  C   UNL     1       5.933   4.146  16.272  0.00  0.00    +0.000 C 
ATOM     11  C   UNL     1       7.346   4.446  16.787  0.00  0.00    +0.000 C 
ENDBRANCH   3  10
ENDBRANCH   1   6
BRANCH   2  12
ATOM     12  C   UNL     1       0.783   9.986  18.644  0.00  0.00    +0.000 C 
ATOM     13  O   UNL     1       0.942  10.346  19.800  0.00  0.00    +0.000 OA
ATOM     14  N   UNL     1      -0.249  10.394  17.836  0.00  0.00    +0.000 N 
ATOM     15  H   UNL     1      -0.255  10.169  16.850  0.00  0.00    +0.000 HD
BRANCH  14  16
ATOM     16  C   UNL     1      -1.239  11.342  18.291  0.00  0.00    +0.000 C 
BRANCH  16  17
ATOM     17  C   UNL     1      -2.441  11.252  17.420  0.00  0.00    +0.000 A 
ATOM     18  C   UNL     1      -2.648  10.803  16.131  0.00  0.00    +0.000 A 
ATOM     19  C   UNL     1      -4.031  10.955  15.868  0.00  0.00    +0.000 A 
ATOM     20  C   UNL     1      -4.582  11.488  17.012  0.00  0.00    +0.000 A 
ATOM     21  O   UNL     1      -3.625  11.673  17.959  0.00  0.00    +0.000 OA
ENDBRANCH  16  17
ENDBRANCH  14  16
ENDBRANCH   2  12
TORSDOF 5
ENDMDL
MODEL 3
REMARK VINA RESULT:      -7.1      5.549      6.614
REMARK  Name = 
REMARK  7 active torsions:
REMARK  status: ('A' for Active; 'I' for Inactive)
REMARK    1  A    between atoms: C_1  and  C_2
REMARK    2  A    between atoms: C_2  and  C_3
REMARK    3  A    between atoms: C_2  and  C_4
REMARK    4  A    between atoms: C_7  and  C_8
REMARK    5  A    between atoms: C_9  and  C_10
REMARK    6  A    between atoms: N_12  and  C_13
REMARK    7  A    between atoms: C_13  and  C_14
REMARK                            x       y       z     vdW  Elec       q    Type
REMARK                         _______ _______ _______ _____ _____    ______ ____
ROOT
ATOM      1  C   UNL     1       7.797   8.479  17.769  0.00  0.00    +0.000 C 
ATOM      2  C   UNL     1       8.124   7.290  18.302  0.00  0.00    +0.000 C 
ENDROOT
BRANCH   1   6
ATOM      3  C   UNL     1       9.742  12.158  18.911  0.00  0.00    +0.000 A 
ATOM      4  C   UNL     1       9.939  10.971  19.633  0.00  0.00    +0.000 A 
ATOM      5  C   UNL     1       9.295   9.783  19.256  0.00  0.00    +0.000 A 
ATOM      6  C   UNL     1       8.422   9.753  18.162  0.00  0.00    +0.000 A 
ATOM      7  C   UNL     1       8.221  10.940  17.448  0.00  0.00    +0.000 A 
ATOM      8  C   UNL     1       8.865  12.125  17.820  0.00  0.00    +0.000 A 
BRANCH   3  10
ATOM      9  C   UNL     1      11.991  12.966  19.591  0.00  0.00    +0.000 C 
ATOM     10  C   UNL     1      10.561  13.394  19.250  0.00  0.00    +0.000 C 
ATOM     11  C   UNL     1      10.590  14.461  18.148  0.00  0.00    +0.000 C 
ENDBRANCH   3  10
ENDBRANCH   1   6
BRANCH   2  12
ATOM     12  C   UNL     1       7.459   6.038  17.855  0.00  0.00    +0.000 C 
ATOM     13  O   UNL     1       7.574   4.974  18.442  0.00  0.00    +0.000 OA
ATOM     14  N   UNL     1       6.717   6.223  16.714  0.00  0.00    +0.000 N 
ATOM     15  H   UNL     1       6.551   7.151  16.349  0.00  0.00    +0.000 HD
BRANCH  14  16
ATOM     16  C   UNL     1       5.957   5.147  16.122  0.00  0.00    +0.000 C 
BRANCH  16  17
ATOM     17  C   UNL     1       6.499   4.851  14.769  0.00  0.00    +0.000 A 
ATOM     18  C   UNL     1       6.136   3.966  13.773  0.00  0.00    +0.000 A 
ATOM     19  C   UNL     1       7.036   4.176  12.699  0.00  0.00    +0.000 A 
ATOM     20  C   UNL     1       7.892   5.175  13.107  0.00  0.00    +0.000 A 
ATOM     21  O   UNL     1       7.576   5.590  14.361  0.00  0.00    +0.000 OA
ENDBRANCH  16  17
ENDBRANCH  14  16
ENDBRANCH   2  12
TORSDOF 5
ENDMDL
MODEL 4
REMARK VINA RESULT:      -7.1      0.461      1.168
REMARK  Name = 
REMARK  7 active torsions:
REMARK  status: ('A' for Active; 'I' for Inactive)
REMARK    1  A    between atoms: C_1  and  C_2
REMARK    2  A    between atoms: C_2  and  C_3
REMARK    3  A    between atoms: C_2  and  C_4
REMARK    4  A    between atoms: C_7  and  C_8
REMARK    5  A    between atoms: C_9  and  C_10
REMARK    6  A    between atoms: N_12  and  C_13
REMARK    7  A    between atoms: C_13  and  C_14
REMARK                            x       y       z     vdW  Elec       q    Type
REMARK                         _______ _______ _______ _____ _____    ______ ____
ROOT
ATOM      1  C   UNL     1       3.452   6.505  18.445  0.00  0.00    +0.000 C 
ATOM      2  C   UNL     1       4.374   5.970  19.262  0.00  0.00    +0.000 C 
ENDROOT
BRANCH   1   6
ATOM      3  C   UNL     1       0.569   9.516  19.562  0.00  0.00    +0.000 A 
ATOM      4  C   UNL     1       1.120   9.472  18.272  0.00  0.00    +0.000 A 
ATOM      5  C   UNL     1       2.062   8.493  17.924  0.00  0.00    +0.000 A 
ATOM      6  C   UNL     1       2.494   7.545  18.859  0.00  0.00    +0.000 A 
ATOM      7  C   UNL     1       1.950   7.595  20.147  0.00  0.00    +0.000 A 
ATOM      8  C   UNL     1       1.007   8.569  20.496  0.00  0.00    +0.000 A 
BRANCH   3  10
ATOM      9  C   UNL     1      -0.246  11.201  21.197  0.00  0.00    +0.000 C 
ATOM     10  C   UNL     1      -0.553  10.494  19.873  0.00  0.00    +0.000 C 
ATOM     11  C   UNL     1      -0.812  11.537  18.779  0.00  0.00    +0.000 C 
ENDBRANCH   3  10
ENDBRANCH   1   6
BRANCH   2  12
ATOM     12  C   UNL     1       5.319   4.928  18.779  0.00  0.00    +0.000 C 
ATOM     13  O   UNL     1       5.247   3.756  19.112  0.00  0.00    +0.000 OA
ATOM     14  N   UNL     1       6.268   5.442  17.930  0.00  0.00    +0.000 N 
ATOM     15  H   UNL     1       6.197   6.391  17.587  0.00  0.00    +0.000 HD
BRANCH  14  16
ATOM     16  C   UNL     1       7.267   4.601  17.313  0.00  0.00    +0.000 C 
BRANCH  16  17
ATOM     17  C   UNL     1       6.950   4.444  15.869  0.00  0.00    +0.000 A 
ATOM     18  C   UNL     1       6.045   3.666  15.175  0.00  0.00    +0.000 A 
ATOM     19  C   UNL     1       6.209   3.982  13.804  0.00  0.00    +0.000 A 
ATOM     20  C   UNL     1       7.203   4.933  13.747  0.00  0.00    +0.000 A 
ATOM     21  O   UNL     1       7.660   5.219  14.994  0.00  0.00    +0.000 OA
ENDBRANCH  16  17
ENDBRANCH  14  16
ENDBRANCH   2  12
TORSDOF 5
ENDMDL
MODEL 5
REMARK VINA RESULT:      -7.0      6.084      7.026
REMARK  Name = 
REMARK  7 active torsions:
REMARK  status: ('A' for Active; 'I' for Inactive)
REMARK    1  A    between atoms: C_1  and  C_2
REMARK    2  A    between atoms: C_2  and  C_3
REMARK    3  A    between atoms: C_2  and  C_4
REMARK    4  A    between atoms: C_7  and  C_8
REMARK    5  A    between atoms: C_9  and  C_10
REMARK    6  A    between atoms: N_12  and  C_13
REMARK    7  A    between atoms: C_13  and  C_14
REMARK                            x       y       z     vdW  Elec       q    Type
REMARK                         _______ _______ _______ _____ _____    ______ ____
ROOT
ATOM      1  C   UNL     1       8.788   8.898  18.839  0.00  0.00    +0.000 C 
ATOM      2  C   UNL     1       7.997   8.487  17.834  0.00  0.00    +0.000 C 
ENDROOT
BRANCH   1   6
ATOM      3  C   UNL     1      10.214  12.961  19.133  0.00  0.00    +0.000 A 
ATOM      4  C   UNL     1      10.102  12.312  17.894  0.00  0.00    +0.000 A 
ATOM      5  C   UNL     1       9.644  10.989  17.812  0.00  0.00    +0.000 A 
ATOM      6  C   UNL     1       9.306  10.271  18.966  0.00  0.00    +0.000 A 
ATOM      7  C   UNL     1       9.427  10.917  20.201  0.00  0.00    +0.000 A 
ATOM      8  C   UNL     1       9.879  12.239  20.285  0.00  0.00    +0.000 A 
BRANCH   3  10
ATOM      9  C   UNL     1      11.579  14.744  18.069  0.00  0.00    +0.000 C 
ATOM     10  C   UNL     1      10.574  14.438  19.184  0.00  0.00    +0.000 C 
ATOM     11  C   UNL     1       9.377  15.390  19.076  0.00  0.00    +0.000 C 
ENDBRANCH   3  10
ENDBRANCH   1   6
BRANCH   2  12
ATOM     12  C   UNL     1       7.501   7.087  17.769  0.00  0.00    +0.000 C 
ATOM     13  O   UNL     1       7.867   6.213  18.537  0.00  0.00    +0.000 OA
ATOM     14  N   UNL     1       6.599   6.903  16.750  0.00  0.00    +0.000 N 
ATOM     15  H   UNL     1       6.234   7.691  16.232  0.00  0.00    +0.000 HD
BRANCH  14  16
ATOM     16  C   UNL     1       5.962   5.626  16.524  0.00  0.00    +0.000 C 
BRANCH  16  17
ATOM     17  C   UNL     1       6.341   5.121  15.178  0.00  0.00    +0.000 A 
ATOM     18  C   UNL     1       5.749   4.243  14.292  0.00  0.00    +0.000 A 
ATOM     19  C   UNL     1       6.593   4.186  13.156  0.00  0.00    +0.000 A 
ATOM     20  C   UNL     1       7.647   5.032  13.420  0.00  0.00    +0.000 A 
ATOM     21  O   UNL     1       7.505   5.602  14.644  0.00  0.00    +0.000 OA
ENDBRANCH  16  17
ENDBRANCH  14  16
ENDBRANCH   2  12
TORSDOF 5
ENDMDL
MODEL 6
REMARK VINA RESULT:      -7.0      5.937      7.292
REMARK  Name = 
REMARK  7 active torsions:
REMARK  status: ('A' for Active; 'I' for Inactive)
REMARK    1  A    between atoms: C_1  and  C_2
REMARK    2  A    between atoms: C_2  and  C_3
REMARK    3  A    between atoms: C_2  and  C_4
REMARK    4  A    between atoms: C_7  and  C_8
REMARK    5  A    between atoms: C_9  and  C_10
REMARK    6  A    between atoms: N_12  and  C_13
REMARK    7  A    between atoms: C_13  and  C_14
REMARK                            x       y       z     vdW  Elec       q    Type
REMARK                         _______ _______ _______ _____ _____    ______ ____
ROOT
ATOM      1  C   UNL     1       8.575   8.715  18.610  0.00  0.00    +0.000 C 
ATOM      2  C   UNL     1       7.875   8.342  17.526  0.00  0.00    +0.000 C 
ENDROOT
BRANCH   1   6
ATOM      3  C   UNL     1       9.848  12.785  19.277  0.00  0.00    +0.000 A 
ATOM      4  C   UNL     1       9.282  12.385  18.057  0.00  0.00    +0.000 A 
ATOM      5  C   UNL     1       8.879  11.058  17.850  0.00  0.00    +0.000 A 
ATOM      6  C   UNL     1       9.049  10.090  18.847  0.00  0.00    +0.000 A 
ATOM      7  C   UNL     1       9.622  10.488  20.060  0.00  0.00    +0.000 A 
ATOM      8  C   UNL     1      10.021  11.813  20.270  0.00  0.00    +0.000 A 
BRANCH   3  10
ATOM      9  C   UNL     1      11.633  14.417  19.847  0.00  0.00    +0.000 C 
ATOM     10  C   UNL     1      10.143  14.255  19.529  0.00  0.00    +0.000 C 
ATOM     11  C   UNL     1       9.757  15.190  18.376  0.00  0.00    +0.000 C 
ENDBRANCH   3  10
ENDBRANCH   1   6
BRANCH   2  12
ATOM     12  C   UNL     1       7.418   6.938  17.352  0.00  0.00    +0.000 C 
ATOM     13  O   UNL     1       7.489   6.340  16.290  0.00  0.00    +0.000 OA
ATOM     14  N   UNL     1       6.910   6.409  18.513  0.00  0.00    +0.000 N 
ATOM     15  H   UNL     1       7.000   6.904  19.390  0.00  0.00    +0.000 HD
BRANCH  14  16
ATOM     16  C   UNL     1       6.440   5.045  18.581  0.00  0.00    +0.000 C 
BRANCH  16  17
ATOM     17  C   UNL     1       4.956   5.034  18.491  0.00  0.00    +0.000 A 
ATOM     18  C   UNL     1       4.067   4.640  17.509  0.00  0.00    +0.000 A 
ATOM     19  C   UNL     1       2.768   4.856  18.031  0.00  0.00    +0.000 A 
ATOM     20  C   UNL     1       2.945   5.367  19.298  0.00  0.00    +0.000 A 
ATOM     21  O   UNL     1       4.268   5.480  19.585  0.00  0.00    +0.000 OA
ENDBRANCH  16  17
ENDBRANCH  14  16
ENDBRANCH   2  12
TORSDOF 5
ENDMDL
MODEL 7
REMARK VINA RESULT:      -7.0      5.431      6.445
REMARK  Name = 
REMARK  7 active torsions:
REMARK  status: ('A' for Active; 'I' for Inactive)
REMARK    1  A    between atoms: C_1  and  C_2
REMARK    2  A    between atoms: C_2  and  C_3
REMARK    3  A    between atoms: C_2  and  C_4
REMARK    4  A    between atoms: C_7  and  C_8
REMARK    5  A    between atoms: C_9  and  C_10
REMARK    6  A    between atoms: N_12  and  C_13
REMARK    7  A    between atoms: C_13  and  C_14
REMARK                            x       y       z     vdW  Elec       q    Type
REMARK                         _______ _______ _______ _____ _____    ______ ____
ROOT
ATOM      1  C   UNL     1       7.874   8.224  17.798  0.00  0.00    +0.000 C 
ATOM      2  C   UNL     1       8.026   7.113  18.536  0.00  0.00    +0.000 C 
ENDROOT
BRANCH   1   6
ATOM      3  C   UNL     1       9.434  12.105  18.863  0.00  0.00    +0.000 A 
ATOM      4  C   UNL     1       8.582  11.935  17.760  0.00  0.00    +0.000 A 
ATOM      5  C   UNL     1       8.088  10.667  17.420  0.00  0.00    +0.000 A 
ATOM      6  C   UNL     1       8.447   9.533  18.158  0.00  0.00    +0.000 A 
ATOM      7  C   UNL     1       9.303   9.703  19.252  0.00  0.00    +0.000 A 
ATOM      8  C   UNL     1       9.794  10.968  19.596  0.00  0.00    +0.000 A 
BRANCH   3  10
ATOM      9  C   UNL     1      10.265  13.466  20.768  0.00  0.00    +0.000 C 
ATOM     10  C   UNL     1       9.839  13.505  19.297  0.00  0.00    +0.000 C 
ATOM     11  C   UNL     1      10.955  14.136  18.454  0.00  0.00    +0.000 C 
ENDBRANCH   3  10
ENDBRANCH   1   6
BRANCH   2  12
ATOM     12  C   UNL     1       7.429   5.819  18.111  0.00  0.00    +0.000 C 
ATOM     13  O   UNL     1       7.055   4.965  18.898  0.00  0.00    +0.000 OA
ATOM     14  N   UNL     1       7.357   5.706  16.744  0.00  0.00    +0.000 N 
ATOM     15  H   UNL     1       7.557   6.497  16.147  0.00  0.00    +0.000 HD
BRANCH  14  16
ATOM     16  C   UNL     1       6.778   4.544  16.110  0.00  0.00    +0.000 C 
BRANCH  16  17
ATOM     17  C   UNL     1       6.997   4.627  14.642  0.00  0.00    +0.000 A 
ATOM     18  C   UNL     1       6.388   4.030  13.556  0.00  0.00    +0.000 A 
ATOM     19  C   UNL     1       7.038   4.533  12.402  0.00  0.00    +0.000 A 
ATOM     20  C   UNL     1       8.002   5.405  12.856  0.00  0.00    +0.000 A 
ATOM     21  O   UNL     1       7.987   5.468  14.213  0.00  0.00    +0.000 OA
ENDBRANCH  16  17
ENDBRANCH  14  16
ENDBRANCH   2  12
TORSDOF 5
ENDMDL
MODEL 8
REMARK VINA RESULT:      -7.0      5.931      7.311
REMARK  Name = 
REMARK  7 active torsions:
REMARK  status: ('A' for Active; 'I' for Inactive)
REMARK    1  A    between atoms: C_1  and  C_2
REMARK    2  A    between atoms: C_2  and  C_3
REMARK    3  A    between atoms: C_2  and  C_4
REMARK    4  A    between atoms: C_7  and  C_8
REMARK    5  A    between atoms: C_9  and  C_10
REMARK    6  A    between atoms: N_12  and  C_13
REMARK    7  A    between atoms: C_13  and  C_14
REMARK                            x       y       z     vdW  Elec       q    Type
REMARK                         _______ _______ _______ _____ _____    ______ ____
ROOT
ATOM      1  C   UNL     1       8.214   9.161  17.825  0.00  0.00    +0.000 C 
ATOM      2  C   UNL     1       8.203   7.933  18.370  0.00  0.00    +0.000 C 
ENDROOT
BRANCH   1   6
ATOM      3  C   UNL     1      10.018  12.642  19.629  0.00  0.00    +0.000 A 
ATOM      4  C   UNL     1       9.427  12.699  18.357  0.00  0.00    +0.000 A 
ATOM      5  C   UNL     1       8.850  11.559  17.779  0.00  0.00    +0.000 A 
ATOM      6  C   UNL     1       8.867  10.327  18.445  0.00  0.00    +0.000 A 
ATOM      7  C   UNL     1       9.465  10.270  19.709  0.00  0.00    +0.000 A 
ATOM      8  C   UNL     1      10.037  11.408  20.289  0.00  0.00    +0.000 A 
BRANCH   3  10
ATOM      9  C   UNL     1      11.898  14.263  19.752  0.00  0.00    +0.000 C 
ATOM     10  C   UNL     1      10.507  13.919  20.295  0.00  0.00    +0.000 C 
ATOM     11  C   UNL     1       9.574  15.125  20.123  0.00  0.00    +0.000 C 
ENDBRANCH   3  10
ENDBRANCH   1   6
BRANCH   2  12
ATOM     12  C   UNL     1       7.532   6.795  17.688  0.00  0.00    +0.000 C 
ATOM     13  O   UNL     1       7.498   6.671  16.474  0.00  0.00    +0.000 OA
ATOM     14  N   UNL     1       6.960   5.921  18.578  0.00  0.00    +0.000 N 
ATOM     15  H   UNL     1       7.134   6.003  19.571  0.00  0.00    +0.000 HD
BRANCH  14  16
ATOM     16  C   UNL     1       6.284   4.723  18.135  0.00  0.00    +0.000 C 
BRANCH  16  17
ATOM     17  C   UNL     1       4.825   4.862  18.387  0.00  0.00    +0.000 A 
ATOM     18  C   UNL     1       4.088   5.446  19.398  0.00  0.00    +0.000 A 
ATOM     19  C   UNL     1       2.724   5.268  19.057  0.00  0.00    +0.000 A 
ATOM     20  C   UNL     1       2.715   4.588  17.860  0.00  0.00    +0.000 A 
ATOM     21  O   UNL     1       3.984   4.336  17.446  0.00  0.00    +0.000 OA
ENDBRANCH  16  17
ENDBRANCH  14  16
ENDBRANCH   2  12
TORSDOF 5
ENDMDL
MODEL 9
REMARK VINA RESULT:      -7.0      5.894      7.154
REMARK  Name = 
REMARK  7 active torsions:
REMARK  status: ('A' for Active; 'I' for Inactive)
REMARK    1  A    between atoms: C_1  and  C_2
REMARK    2  A    between atoms: C_2  and  C_3
REMARK    3  A    between atoms: C_2  and  C_4
REMARK    4  A    between atoms: C_7  and  C_8
REMARK    5  A    between atoms: C_9  and  C_10
REMARK    6  A    between atoms: N_12  and  C_13
REMARK    7  A    between atoms: C_13  and  C_14
REMARK                            x       y       z     vdW  Elec       q    Type
REMARK                         _______ _______ _______ _____ _____    ______ ____
ROOT
ATOM      1  C   UNL     1       8.840   9.001  18.696  0.00  0.00    +0.000 C 
ATOM      2  C   UNL     1       7.947   8.631  17.764  0.00  0.00    +0.000 C 
ENDROOT
BRANCH   1   6
ATOM      3  C   UNL     1       9.682  13.143  19.567  0.00  0.00    +0.000 A 
ATOM      4  C   UNL     1       9.373  12.716  18.266  0.00  0.00    +0.000 A 
ATOM      5  C   UNL     1       9.108  11.366  17.995  0.00  0.00    +0.000 A 
ATOM      6  C   UNL     1       9.166  10.403  19.010  0.00  0.00    +0.000 A 
ATOM      7  C   UNL     1       9.483  10.829  20.305  0.00  0.00    +0.000 A 
ATOM      8  C   UNL     1       9.743  12.176  20.578  0.00  0.00    +0.000 A 
BRANCH   3  10
ATOM      9  C   UNL     1       9.871  15.397  18.539  0.00  0.00    +0.000 C 
ATOM     10  C   UNL     1       9.823  14.628  19.863  0.00  0.00    +0.000 C 
ATOM     11  C   UNL     1       8.718  15.208  20.756  0.00  0.00    +0.000 C 
ENDBRANCH   3  10
ENDBRANCH   1   6
BRANCH   2  12
ATOM     12  C   UNL     1       7.658   7.196  17.502  0.00  0.00    +0.000 C 
ATOM     13  O   UNL     1       7.549   6.731  16.379  0.00  0.00    +0.000 OA
ATOM     14  N   UNL     1       7.525   6.473  18.662  0.00  0.00    +0.000 N 
ATOM     15  H   UNL     1       7.758   6.883  19.557  0.00  0.00    +0.000 HD
BRANCH  14  16
ATOM     16  C   UNL     1       7.277   5.051  18.643  0.00  0.00    +0.000 C 
BRANCH  16  17
ATOM     17  C   UNL     1       5.814   4.807  18.754  0.00  0.00    +0.000 A 
ATOM     18  C   UNL     1       4.700   5.515  18.346  0.00  0.00    +0.000 A 
ATOM     19  C   UNL     1       3.573   4.746  18.727  0.00  0.00    +0.000 A 
ATOM     20  C   UNL     1       4.069   3.618  19.342  0.00  0.00    +0.000 A 
ATOM     21  O   UNL     1       5.427   3.647  19.366  0.00  0.00    +0.000 OA
ENDBRANCH  16  17
ENDBRANCH  14  16
ENDBRANCH   2  12
TORSDOF 5
ENDMDL
