MODEL 1
REMARK VINA RESULT:      -8.2      0.000      0.000
REMARK  Name = 
REMARK  7 active torsions:
REMARK  status: ('A' for Active; 'I' for Inactive)
REMARK    1  A    between atoms: C_1  and  C_2
REMARK    2  A    between atoms: C_2  and  C_3
REMARK    3  A    between atoms: C_2  and  C_4
REMARK    4  A    between atoms: C_7  and  C_8
REMARK    5  A    between atoms: C_11  and  N_12
REMARK    6  A    between atoms: C_16  and  C_18
REMARK    7  A    between atoms: C_25  and  C_26
REMARK                            x       y       z     vdW  Elec       q    Type
REMARK                         _______ _______ _______ _____ _____    ______ ____
ROOT
ATOM      1  C   UNL     1       0.176  10.254  20.440  0.00  0.00    +0.000 A 
ATOM      2  N   UNL     1       0.526  10.583  21.748  0.00  0.00    +0.000 NA
ATOM      3  N   UNL     1       0.277  11.796  22.232  0.00  0.00    +0.000 NA
ATOM      4  C   UNL     1      -0.332  12.586  21.400  0.00  0.00    +0.000 A 
ATOM      5  C   UNL     1      -1.362  11.893  20.777  0.00  0.00    +0.000 A 
ATOM      6  C   UNL     1      -2.725  12.194  20.953  0.00  0.00    +0.000 A 
ATOM      7  C   UNL     1      -3.475  12.365  19.815  0.00  0.00    +0.000 A 
ATOM      8  C   UNL     1      -2.831  12.140  18.594  0.00  0.00    +0.000 A 
ATOM      9  C   UNL     1      -1.613  11.402  18.573  0.00  0.00    +0.000 A 
ATOM     10  C   UNL     1      -0.895  11.057  19.811  0.00  0.00    +0.000 A 
ENDROOT
BRANCH   4  11
ATOM     11  N   UNL     1       0.469  13.365  20.510  0.00  0.00    +0.000 N 
ATOM     12  C   UNL     1      -0.116  14.458  19.709  0.00  0.00    +0.000 C 
ATOM     13  C   UNL     1       0.621  14.663  18.354  0.00  0.00    +0.000 C 
ATOM     14  N   UNL     1       2.086  14.649  18.480  0.00  0.00    +0.000 N 
ATOM     15  C   UNL     1       2.805  15.822  18.232  0.00  0.00    +0.000 C 
ATOM     16  O   UNL     1       2.256  16.881  17.935  0.00  0.00    +0.000 OA
ATOM     17  C   UNL     1       2.583  13.458  19.176  0.00  0.00    +0.000 C 
ATOM     18  C   UNL     1       1.947  13.293  20.583  0.00  0.00    +0.000 C 
ATOM     19  C   UNL     1       2.469  14.348  21.542  0.00  0.00    +0.000 C 
BRANCH  15  20
ATOM     20  C   UNL     1       4.294  15.838  18.348  0.00  0.00    +0.000 A 
ATOM     21  C   UNL     1       5.102  14.883  17.720  0.00  0.00    +0.000 A 
ATOM     22  C   UNL     1       6.487  14.905  17.903  0.00  0.00    +0.000 A 
ATOM     23  C   UNL     1       7.076  15.918  18.659  0.00  0.00    +0.000 A 
ATOM     24  C   UNL     1       6.285  16.919  19.221  0.00  0.00    +0.000 A 
ATOM     25  C   UNL     1       4.897  16.880  19.068  0.00  0.00    +0.000 A 
ENDBRANCH  15  20
ENDBRANCH   4  11
BRANCH   1  29
ATOM     26  C   UNL     1       2.413   6.894  18.700  0.00  0.00    +0.000 A 
ATOM     27  C   UNL     1       2.180   8.090  18.014  0.00  0.00    +0.000 A 
ATOM     28  C   UNL     1       1.593   9.177  18.670  0.00  0.00    +0.000 A 
ATOM     29  C   UNL     1       1.131   9.175  20.018  0.00  0.00    +0.000 A 
ATOM     30  C   UNL     1       1.478   8.024  20.737  0.00  0.00    +0.000 A 
ATOM     31  C   UNL     1       2.098   6.916  20.068  0.00  0.00    +0.000 A 
BRANCH  26  33
ATOM     32  C   UNL     1       4.260   5.166  18.329  0.00  0.00    +0.000 C 
ATOM     33  C   UNL     1       2.884   5.691  17.890  0.00  0.00    +0.000 C 
ATOM     34  C   UNL     1       1.899   4.519  17.834  0.00  0.00    +0.000 C 
ENDBRANCH  26  33
ENDBRANCH   1  29
TORSDOF 4
ENDMDL
MODEL 2
REMARK VINA RESULT:      -8.1      0.345      1.061
REMARK  Name = 
REMARK  7 active torsions:
REMARK  status: ('A' for Active; 'I' for Inactive)
REMARK    1  A    between atoms: C_1  and  C_2
REMARK    2  A    between atoms: C_2  and  C_3
REMARK    3  A    between atoms: C_2  and  C_4
REMARK    4  A    between atoms: C_7  and  C_8
REMARK    5  A    between atoms: C_11  and  N_12
REMARK    6  A    between atoms: C_16  and  C_18
REMARK    7  A    between atoms: C_25  and  C_26
REMARK                            x       y       z     vdW  Elec       q    Type
REMARK                         _______ _______ _______ _____ _____    ______ ____
ROOT
ATOM      1  C   UNL     1       0.070  10.217  20.532  0.00  0.00    +0.000 A 
ATOM      2  N   UNL     1       0.327  10.616  21.842  0.00  0.00    +0.000 NA
ATOM      3  N   UNL     1       0.054  11.855  22.240  0.00  0.00    +0.000 NA
ATOM      4  C   UNL     1      -0.488  12.600  21.324  0.00  0.00    +0.000 A 
ATOM      5  C   UNL     1      -1.475  11.877  20.667  0.00  0.00    +0.000 A 
ATOM      6  C   UNL     1      -2.845  12.193  20.726  0.00  0.00    +0.000 A 
ATOM      7  C   UNL     1      -3.510  12.304  19.530  0.00  0.00    +0.000 A 
ATOM      8  C   UNL     1      -2.781  12.009  18.372  0.00  0.00    +0.000 A 
ATOM      9  C   UNL     1      -1.571  11.267  18.480  0.00  0.00    +0.000 A 
ATOM     10  C   UNL     1      -0.946  10.988  19.784  0.00  0.00    +0.000 A 
ENDROOT
BRANCH   4  11
ATOM     11  N   UNL     1       0.382  13.326  20.453  0.00  0.00    +0.000 N 
ATOM     12  C   UNL     1      -0.146  14.318  19.496  0.00  0.00    +0.000 C 
ATOM     13  C   UNL     1       0.727  14.428  18.212  0.00  0.00    +0.000 C 
ATOM     14  N   UNL     1       2.169  14.483  18.492  0.00  0.00    +0.000 N 
ATOM     15  C   UNL     1       2.876  15.656  18.211  0.00  0.00    +0.000 C 
ATOM     16  O   UNL     1       2.332  16.661  17.759  0.00  0.00    +0.000 OA
ATOM     17  C   UNL     1       2.624  13.380  19.345  0.00  0.00    +0.000 C 
ATOM     18  C   UNL     1       1.845  13.319  20.687  0.00  0.00    +0.000 C 
ATOM     19  C   UNL     1       2.229  14.476  21.592  0.00  0.00    +0.000 C 
BRANCH  15  20
ATOM     20  C   UNL     1       4.343  15.740  18.480  0.00  0.00    +0.000 A 
ATOM     21  C   UNL     1       4.873  16.567  19.477  0.00  0.00    +0.000 A 
ATOM     22  C   UNL     1       6.256  16.655  19.655  0.00  0.00    +0.000 A 
ATOM     23  C   UNL     1       7.111  15.868  18.883  0.00  0.00    +0.000 A 
ATOM     24  C   UNL     1       6.587  14.983  17.943  0.00  0.00    +0.000 A 
ATOM     25  C   UNL     1       5.206  14.918  17.740  0.00  0.00    +0.000 A 
ENDBRANCH  15  20
ENDBRANCH   4  11
BRANCH   1  29
ATOM     26  C   UNL     1       2.409   6.767  19.135  0.00  0.00    +0.000 A 
ATOM     27  C   UNL     1       2.251   7.935  18.382  0.00  0.00    +0.000 A 
ATOM     28  C   UNL     1       1.623   9.054  18.938  0.00  0.00    +0.000 A 
ATOM     29  C   UNL     1       1.045   9.113  20.240  0.00  0.00    +0.000 A 
ATOM     30  C   UNL     1       1.314   7.990  21.033  0.00  0.00    +0.000 A 
ATOM     31  C   UNL     1       1.976   6.849  20.467  0.00  0.00    +0.000 A 
BRANCH  26  33
ATOM     32  C   UNL     1       1.822   4.682  17.777  0.00  0.00    +0.000 C 
ATOM     33  C   UNL     1       2.934   5.527  18.418  0.00  0.00    +0.000 C 
ATOM     34  C   UNL     1       4.023   5.792  17.373  0.00  0.00    +0.000 C 
ENDBRANCH  26  33
ENDBRANCH   1  29
TORSDOF 4
ENDMDL
MODEL 3
REMARK VINA RESULT:      -7.6      0.637      1.162
REMARK  Name = 
REMARK  7 active torsions:
REMARK  status: ('A' for Active; 'I' for Inactive)
REMARK    1  A    between atoms: C_1  and  C_2
REMARK    2  A    between atoms: C_2  and  C_3
REMARK    3  A    between atoms: C_2  and  C_4
REMARK    4  A    between atoms: C_7  and  C_8
REMARK    5  A    between atoms: C_11  and  N_12
REMARK    6  A    between atoms: C_16  and  C_18
REMARK    7  A    between atoms: C_25  and  C_26
REMARK                            x       y       z     vdW  Elec       q    Type
REMARK                         _______ _______ _______ _____ _____    ______ ____
ROOT
ATOM      1  C   UNL     1       0.130  10.191  20.044  0.00  0.00    +0.000 A 
ATOM      2  N   UNL     1       0.698  10.257  21.315  0.00  0.00    +0.000 NA
ATOM      3  N   UNL     1       0.638  11.377  22.028  0.00  0.00    +0.000 NA
ATOM      4  C   UNL     1      -0.012  12.342  21.449  0.00  0.00    +0.000 A 
ATOM      5  C   UNL     1      -1.182  11.841  20.895  0.00  0.00    +0.000 A 
ATOM      6  C   UNL     1      -2.471  12.195  21.336  0.00  0.00    +0.000 A 
ATOM      7  C   UNL     1      -3.362  12.616  20.379  0.00  0.00    +0.000 A 
ATOM      8  C   UNL     1      -2.928  12.571  19.049  0.00  0.00    +0.000 A 
ATOM      9  C   UNL     1      -1.801  11.770  18.709  0.00  0.00    +0.000 A 
ATOM     10  C   UNL     1      -0.943  11.163  19.740  0.00  0.00    +0.000 A 
ENDROOT
BRANCH   4  11
ATOM     11  N   UNL     1       0.718  13.213  20.584  0.00  0.00    +0.000 N 
ATOM     12  C   UNL     1       0.092  14.418  20.004  0.00  0.00    +0.000 C 
ATOM     13  C   UNL     1       0.686  14.784  18.612  0.00  0.00    +0.000 C 
ATOM     14  N   UNL     1       2.154  14.718  18.570  0.00  0.00    +0.000 N 
ATOM     15  C   UNL     1       2.887  15.896  18.398  0.00  0.00    +0.000 C 
ATOM     16  O   UNL     1       2.351  16.998  18.305  0.00  0.00    +0.000 OA
ATOM     17  C   UNL     1       2.677  13.433  19.044  0.00  0.00    +0.000 C 
ATOM     18  C   UNL     1       2.192  13.097  20.481  0.00  0.00    +0.000 C 
ATOM     19  C   UNL     1       2.854  14.000  21.504  0.00  0.00    +0.000 C 
BRANCH  15  20
ATOM     20  C   UNL     1       4.380  15.860  18.347  0.00  0.00    +0.000 A 
ATOM     21  C   UNL     1       5.081  14.819  17.728  0.00  0.00    +0.000 A 
ATOM     22  C   UNL     1       6.477  14.799  17.753  0.00  0.00    +0.000 A 
ATOM     23  C   UNL     1       7.180  15.852  18.339  0.00  0.00    +0.000 A 
ATOM     24  C   UNL     1       6.490  16.933  18.888  0.00  0.00    +0.000 A 
ATOM     25  C   UNL     1       5.093  16.937  18.893  0.00  0.00    +0.000 A 
ENDBRANCH  15  20
ENDBRANCH   4  11
BRANCH   1  29
ATOM     26  C   UNL     1       2.984   7.308  18.354  0.00  0.00    +0.000 A 
ATOM     27  C   UNL     1       2.383   7.140  19.606  0.00  0.00    +0.000 A 
ATOM     28  C   UNL     1       1.373   8.010  20.026  0.00  0.00    +0.000 A 
ATOM     29  C   UNL     1       0.907   9.145  19.300  0.00  0.00    +0.000 A 
ATOM     30  C   UNL     1       1.419   9.237  17.999  0.00  0.00    +0.000 A 
ATOM     31  C   UNL     1       2.443   8.331  17.561  0.00  0.00    +0.000 A 
BRANCH  26  33
ATOM     32  C   UNL     1       3.942   4.942  18.214  0.00  0.00    +0.000 C 
ATOM     33  C   UNL     1       4.200   6.446  18.029  0.00  0.00    +0.000 C 
ATOM     34  C   UNL     1       4.810   6.679  16.643  0.00  0.00    +0.000 C 
ENDBRANCH  26  33
ENDBRANCH   1  29
TORSDOF 4
ENDMDL
MODEL 4
REMARK VINA RESULT:      -7.6      0.932      1.178
REMARK  Name = 
REMARK  7 active torsions:
REMARK  status: ('A' for Active; 'I' for Inactive)
REMARK    1  A    between atoms: C_1  and  C_2
REMARK    2  A    between atoms: C_2  and  C_3
REMARK    3  A    between atoms: C_2  and  C_4
REMARK    4  A    between atoms: C_7  and  C_8
REMARK    5  A    between atoms: C_11  and  N_12
REMARK    6  A    between atoms: C_16  and  C_18
REMARK    7  A    between atoms: C_25  and  C_26
REMARK                            x       y       z     vdW  Elec       q    Type
REMARK                         _______ _______ _______ _____ _____    ______ ____
ROOT
ATOM      1  C   UNL     1      -0.435  10.844  21.267  0.00  0.00    +0.000 A 
ATOM      2  N   UNL     1      -0.151  11.361  22.529  0.00  0.00    +0.000 NA
ATOM      3  N   UNL     1      -0.451  12.620  22.830  0.00  0.00    +0.000 NA
ATOM      4  C   UNL     1      -1.043  13.269  21.873  0.00  0.00    +0.000 A 
ATOM      5  C   UNL     1      -2.026  12.465  21.312  0.00  0.00    +0.000 A 
ATOM      6  C   UNL     1      -3.403  12.746  21.389  0.00  0.00    +0.000 A 
ATOM      7  C   UNL     1      -4.107  12.735  20.210  0.00  0.00    +0.000 A 
ATOM      8  C   UNL     1      -3.404  12.364  19.058  0.00  0.00    +0.000 A 
ATOM      9  C   UNL     1      -2.168  11.668  19.188  0.00  0.00    +0.000 A 
ATOM     10  C   UNL     1      -1.497  11.520  20.490  0.00  0.00    +0.000 A 
ENDROOT
BRANCH   4  11
ATOM     11  N   UNL     1      -0.222  13.942  20.916  0.00  0.00    +0.000 N 
ATOM     12  C   UNL     1      -0.770  15.006  20.051  0.00  0.00    +0.000 C 
ATOM     13  C   UNL     1      -0.053  15.078  18.672  0.00  0.00    +0.000 C 
ATOM     14  N   UNL     1       1.413  14.999  18.773  0.00  0.00    +0.000 N 
ATOM     15  C   UNL     1       2.183  16.114  18.430  0.00  0.00    +0.000 C 
ATOM     16  O   UNL     1       1.682  17.176  18.069  0.00  0.00    +0.000 OA
ATOM     17  C   UNL     1       1.865  13.835  19.542  0.00  0.00    +0.000 C 
ATOM     18  C   UNL     1       1.252  13.801  20.968  0.00  0.00    +0.000 C 
ATOM     19  C   UNL     1       1.845  14.892  21.841  0.00  0.00    +0.000 C 
BRANCH  15  20
ATOM     20  C   UNL     1       3.673  16.061  18.519  0.00  0.00    +0.000 A 
ATOM     21  C   UNL     1       4.439  15.206  17.718  0.00  0.00    +0.000 A 
ATOM     22  C   UNL     1       5.827  15.152  17.875  0.00  0.00    +0.000 A 
ATOM     23  C   UNL     1       6.460  15.998  18.785  0.00  0.00    +0.000 A 
ATOM     24  C   UNL     1       5.712  16.910  19.529  0.00  0.00    +0.000 A 
ATOM     25  C   UNL     1       4.321  16.942  19.397  0.00  0.00    +0.000 A 
ENDBRANCH  15  20
ENDBRANCH   4  11
BRANCH   1  29
ATOM     26  C   UNL     1       1.952   7.337  20.116  0.00  0.00    +0.000 A 
ATOM     27  C   UNL     1       1.700   8.404  19.248  0.00  0.00    +0.000 A 
ATOM     28  C   UNL     1       1.062   9.557  19.715  0.00  0.00    +0.000 A 
ATOM     29  C   UNL     1       0.564   9.747  21.037  0.00  0.00    +0.000 A 
ATOM     30  C   UNL     1       0.929   8.734  21.933  0.00  0.00    +0.000 A 
ATOM     31  C   UNL     1       1.601   7.558  21.457  0.00  0.00    +0.000 A 
BRANCH  26  33
ATOM     32  C   UNL     1       1.814   4.784  20.092  0.00  0.00    +0.000 C 
ATOM     33  C   UNL     1       2.482   6.041  19.512  0.00  0.00    +0.000 C 
ATOM     34  C   UNL     1       2.432   5.969  17.982  0.00  0.00    +0.000 C 
ENDBRANCH  26  33
ENDBRANCH   1  29
TORSDOF 4
ENDMDL
MODEL 5
REMARK VINA RESULT:      -7.6      2.762      5.814
REMARK  Name = 
REMARK  7 active torsions:
REMARK  status: ('A' for Active; 'I' for Inactive)
REMARK    1  A    between atoms: C_1  and  C_2
REMARK    2  A    between atoms: C_2  and  C_3
REMARK    3  A    between atoms: C_2  and  C_4
REMARK    4  A    between atoms: C_7  and  C_8
REMARK    5  A    between atoms: C_11  and  N_12
REMARK    6  A    between atoms: C_16  and  C_18
REMARK    7  A    between atoms: C_25  and  C_26
REMARK                            x       y       z     vdW  Elec       q    Type
REMARK                         _______ _______ _______ _____ _____    ______ ____
ROOT
ATOM      1  C   UNL     1      -1.168  10.172  19.082  0.00  0.00    +0.000 A 
ATOM      2  N   UNL     1      -0.296   9.879  18.036  0.00  0.00    +0.000 NA
ATOM      3  N   UNL     1       1.013  10.065  18.171  0.00  0.00    +0.000 NA
ATOM      4  C   UNL     1       1.371  10.495  19.343  0.00  0.00    +0.000 A 
ATOM      5  C   UNL     1       0.695   9.778  20.322  0.00  0.00    +0.000 A 
ATOM      6  C   UNL     1       1.327   8.913  21.234  0.00  0.00    +0.000 A 
ATOM      7  C   UNL     1       1.043   9.097  22.565  0.00  0.00    +0.000 A 
ATOM      8  C   UNL     1       0.089  10.072  22.879  0.00  0.00    +0.000 A 
ATOM      9  C   UNL     1      -0.795  10.536  21.863  0.00  0.00    +0.000 A 
ATOM     10  C   UNL     1      -0.596  10.188  20.446  0.00  0.00    +0.000 A 
ENDROOT
BRANCH   4  11
ATOM     11  N   UNL     1       1.387  11.907  19.560  0.00  0.00    +0.000 N 
ATOM     12  C   UNL     1       2.039  12.492  20.749  0.00  0.00    +0.000 C 
ATOM     13  C   UNL     1       1.359  13.815  21.207  0.00  0.00    +0.000 C 
ATOM     14  N   UNL     1       1.065  14.734  20.097  0.00  0.00    +0.000 N 
ATOM     15  C   UNL     1       1.751  15.950  20.015  0.00  0.00    +0.000 C 
ATOM     16  O   UNL     1       2.615  16.275  20.826  0.00  0.00    +0.000 OA
ATOM     17  C   UNL     1       0.301  14.095  19.021  0.00  0.00    +0.000 C 
ATOM     18  C   UNL     1       1.016  12.833  18.465  0.00  0.00    +0.000 C 
ATOM     19  C   UNL     1       2.251  13.214  17.668  0.00  0.00    +0.000 C 
BRANCH  15  20
ATOM     20  C   UNL     1       1.470  16.905  18.901  0.00  0.00    +0.000 A 
ATOM     21  C   UNL     1       0.390  17.793  18.934  0.00  0.00    +0.000 A 
ATOM     22  C   UNL     1       0.134  18.630  17.844  0.00  0.00    +0.000 A 
ATOM     23  C   UNL     1       0.995  18.628  16.746  0.00  0.00    +0.000 A 
ATOM     24  C   UNL     1       2.119  17.804  16.741  0.00  0.00    +0.000 A 
ATOM     25  C   UNL     1       2.357  16.943  17.815  0.00  0.00    +0.000 A 
ENDBRANCH  15  20
ENDBRANCH   4  11
BRANCH   1  29
ATOM     26  C   UNL     1      -5.291  11.173  17.932  0.00  0.00    +0.000 A 
ATOM     27  C   UNL     1      -4.419  12.095  18.519  0.00  0.00    +0.000 A 
ATOM     28  C   UNL     1      -3.077  11.764  18.727  0.00  0.00    +0.000 A 
ATOM     29  C   UNL     1      -2.485  10.500  18.439  0.00  0.00    +0.000 A 
ATOM     30  C   UNL     1      -3.325   9.625  17.738  0.00  0.00    +0.000 A 
ATOM     31  C   UNL     1      -4.699   9.973  17.509  0.00  0.00    +0.000 A 
BRANCH  26  33
ATOM     32  C   UNL     1      -7.451  11.419  19.276  0.00  0.00    +0.000 C 
ATOM     33  C   UNL     1      -6.776  11.520  17.900  0.00  0.00    +0.000 C 
ATOM     34  C   UNL     1      -7.112  12.881  17.280  0.00  0.00    +0.000 C 
ENDBRANCH  26  33
ENDBRANCH   1  29
TORSDOF 4
ENDMDL
MODEL 6
REMARK VINA RESULT:      -7.4      1.328      1.904
REMARK  Name = 
REMARK  7 active torsions:
REMARK  status: ('A' for Active; 'I' for Inactive)
REMARK    1  A    between atoms: C_1  and  C_2
REMARK    2  A    between atoms: C_2  and  C_3
REMARK    3  A    between atoms: C_2  and  C_4
REMARK    4  A    between atoms: C_7  and  C_8
REMARK    5  A    between atoms: C_11  and  N_12
REMARK    6  A    between atoms: C_16  and  C_18
REMARK    7  A    between atoms: C_25  and  C_26
REMARK                            x       y       z     vdW  Elec       q    Type
REMARK                         _______ _______ _______ _____ _____    ______ ____
ROOT
ATOM      1  C   UNL     1      -0.630  11.048  21.445  0.00  0.00    +0.000 A 
ATOM      2  N   UNL     1      -0.392  11.481  22.748  0.00  0.00    +0.000 NA
ATOM      3  N   UNL     1      -0.765  12.695  23.139  0.00  0.00    +0.000 NA
ATOM      4  C   UNL     1      -1.380  13.382  22.223  0.00  0.00    +0.000 A 
ATOM      5  C   UNL     1      -2.310  12.571  21.586  0.00  0.00    +0.000 A 
ATOM      6  C   UNL     1      -3.701  12.770  21.660  0.00  0.00    +0.000 A 
ATOM      7  C   UNL     1      -4.387  12.811  20.471  0.00  0.00    +0.000 A 
ATOM      8  C   UNL     1      -3.650  12.569  19.307  0.00  0.00    +0.000 A 
ATOM      9  C   UNL     1      -2.379  11.934  19.405  0.00  0.00    +0.000 A 
ATOM     10  C   UNL     1      -1.718  11.722  20.704  0.00  0.00    +0.000 A 
ENDROOT
BRANCH   4  11
ATOM     11  N   UNL     1      -0.586  14.171  21.335  0.00  0.00    +0.000 N 
ATOM     12  C   UNL     1      -1.210  15.073  20.346  0.00  0.00    +0.000 C 
ATOM     13  C   UNL     1      -0.344  15.237  19.063  0.00  0.00    +0.000 C 
ATOM     14  N   UNL     1       1.082  15.455  19.348  0.00  0.00    +0.000 N 
ATOM     15  C   UNL     1       1.661  16.689  19.035  0.00  0.00    +0.000 C 
ATOM     16  O   UNL     1       1.017  17.616  18.551  0.00  0.00    +0.000 OA
ATOM     17  C   UNL     1       1.645  14.433  20.236  0.00  0.00    +0.000 C 
ATOM     18  C   UNL     1       0.867  14.329  21.576  0.00  0.00    +0.000 C 
ATOM     19  C   UNL     1       1.118  15.546  22.447  0.00  0.00    +0.000 C 
BRANCH  15  20
ATOM     20  C   UNL     1       3.109  16.938  19.308  0.00  0.00    +0.000 A 
ATOM     21  C   UNL     1       3.547  17.619  20.450  0.00  0.00    +0.000 A 
ATOM     22  C   UNL     1       4.907  17.877  20.635  0.00  0.00    +0.000 A 
ATOM     23  C   UNL     1       5.841  17.399  19.716  0.00  0.00    +0.000 A 
ATOM     24  C   UNL     1       5.419  16.650  18.618  0.00  0.00    +0.000 A 
ATOM     25  C   UNL     1       4.056  16.420  18.413  0.00  0.00    +0.000 A 
ENDBRANCH  15  20
ENDBRANCH   4  11
BRANCH   1  29
ATOM     26  C   UNL     1       1.935   7.727  20.137  0.00  0.00    +0.000 A 
ATOM     27  C   UNL     1       1.549   8.770  19.289  0.00  0.00    +0.000 A 
ATOM     28  C   UNL     1       0.858   9.873  19.798  0.00  0.00    +0.000 A 
ATOM     29  C   UNL     1       0.432  10.028  21.150  0.00  0.00    +0.000 A 
ATOM     30  C   UNL     1       0.927   9.047  22.018  0.00  0.00    +0.000 A 
ATOM     31  C   UNL     1       1.654   7.924  21.497  0.00  0.00    +0.000 A 
BRANCH  26  33
ATOM     32  C   UNL     1       1.970   5.171  20.100  0.00  0.00    +0.000 C 
ATOM     33  C   UNL     1       2.521   6.472  19.497  0.00  0.00    +0.000 C 
ATOM     34  C   UNL     1       2.400   6.404  17.971  0.00  0.00    +0.000 C 
ENDBRANCH  26  33
ENDBRANCH   1  29
TORSDOF 4
ENDMDL
MODEL 7
REMARK VINA RESULT:      -7.2      0.895      1.566
REMARK  Name = 
REMARK  7 active torsions:
REMARK  status: ('A' for Active; 'I' for Inactive)
REMARK    1  A    between atoms: C_1  and  C_2
REMARK    2  A    between atoms: C_2  and  C_3
REMARK    3  A    between atoms: C_2  and  C_4
REMARK    4  A    between atoms: C_7  and  C_8
REMARK    5  A    between atoms: C_11  and  N_12
REMARK    6  A    between atoms: C_16  and  C_18
REMARK    7  A    between atoms: C_25  and  C_26
REMARK                            x       y       z     vdW  Elec       q    Type
REMARK                         _______ _______ _______ _____ _____    ______ ____
ROOT
ATOM      1  C   UNL     1      -0.556  10.644  20.834  0.00  0.00    +0.000 A 
ATOM      2  N   UNL     1       0.018  10.845  22.087  0.00  0.00    +0.000 NA
ATOM      3  N   UNL     1      -0.018  12.041  22.667  0.00  0.00    +0.000 NA
ATOM      4  C   UNL     1      -0.651  12.945  21.981  0.00  0.00    +0.000 A 
ATOM      5  C   UNL     1      -1.833  12.406  21.490  0.00  0.00    +0.000 A 
ATOM      6  C   UNL     1      -3.112  12.834  21.889  0.00  0.00    +0.000 A 
ATOM      7  C   UNL     1      -3.999  13.159  20.891  0.00  0.00    +0.000 A 
ATOM      8  C   UNL     1      -3.571  12.953  19.575  0.00  0.00    +0.000 A 
ATOM      9  C   UNL     1      -2.461  12.096  19.328  0.00  0.00    +0.000 A 
ATOM     10  C   UNL     1      -1.611  11.595  20.421  0.00  0.00    +0.000 A 
ENDROOT
BRANCH   4  11
ATOM     11  N   UNL     1       0.093  13.696  21.020  0.00  0.00    +0.000 N 
ATOM     12  C   UNL     1      -0.529  14.801  20.264  0.00  0.00    +0.000 C 
ATOM     13  C   UNL     1       0.095  14.977  18.848  0.00  0.00    +0.000 C 
ATOM     14  N   UNL     1       1.564  14.923  18.849  0.00  0.00    +0.000 N 
ATOM     15  C   UNL     1       2.292  16.074  18.531  0.00  0.00    +0.000 C 
ATOM     16  O   UNL     1       1.750  17.146  18.274  0.00  0.00    +0.000 OA
ATOM     17  C   UNL     1       2.086  13.722  19.509  0.00  0.00    +0.000 C 
ATOM     18  C   UNL     1       1.569  13.583  20.967  0.00  0.00    +0.000 C 
ATOM     19  C   UNL     1       2.200  14.627  21.869  0.00  0.00    +0.000 C 
BRANCH  15  20
ATOM     20  C   UNL     1       3.785  16.047  18.519  0.00  0.00    +0.000 A 
ATOM     21  C   UNL     1       4.554  16.961  19.249  0.00  0.00    +0.000 A 
ATOM     22  C   UNL     1       5.948  16.933  19.163  0.00  0.00    +0.000 A 
ATOM     23  C   UNL     1       6.582  15.951  18.401  0.00  0.00    +0.000 A 
ATOM     24  C   UNL     1       5.825  14.988  17.735  0.00  0.00    +0.000 A 
ATOM     25  C   UNL     1       4.429  15.035  17.793  0.00  0.00    +0.000 A 
ENDBRANCH  15  20
ENDBRANCH   4  11
BRANCH   1  29
ATOM     26  C   UNL     1       2.208   7.484  19.534  0.00  0.00    +0.000 A 
ATOM     27  C   UNL     1       1.520   7.440  20.750  0.00  0.00    +0.000 A 
ATOM     28  C   UNL     1       0.543   8.397  21.043  0.00  0.00    +0.000 A 
ATOM     29  C   UNL     1       0.198   9.503  20.214  0.00  0.00    +0.000 A 
ATOM     30  C   UNL     1       0.796   9.474  18.948  0.00  0.00    +0.000 A 
ATOM     31  C   UNL     1       1.785   8.480  18.640  0.00  0.00    +0.000 A 
BRANCH  26  33
ATOM     32  C   UNL     1       3.131   5.136  19.945  0.00  0.00    +0.000 C 
ATOM     33  C   UNL     1       3.384   6.529  19.349  0.00  0.00    +0.000 C 
ATOM     34  C   UNL     1       3.872   6.372  17.905  0.00  0.00    +0.000 C 
ENDBRANCH  26  33
ENDBRANCH   1  29
TORSDOF 4
ENDMDL
MODEL 8
REMARK VINA RESULT:      -7.1      2.003      3.608
REMARK  Name = 
REMARK  7 active torsions:
REMARK  status: ('A' for Active; 'I' for Inactive)
REMARK    1  A    between atoms: C_1  and  C_2
REMARK    2  A    between atoms: C_2  and  C_3
REMARK    3  A    between atoms: C_2  and  C_4
REMARK    4  A    between atoms: C_7  and  C_8
REMARK    5  A    between atoms: C_11  and  N_12
REMARK    6  A    between atoms: C_16  and  C_18
REMARK    7  A    between atoms: C_25  and  C_26
REMARK                            x       y       z     vdW  Elec       q    Type
REMARK                         _______ _______ _______ _____ _____    ______ ____
ROOT
ATOM      1  C   UNL     1       0.078  13.572  20.514  0.00  0.00    +0.000 A 
ATOM      2  N   UNL     1       0.474  13.524  21.849  0.00  0.00    +0.000 NA
ATOM      3  N   UNL     1       1.045  14.576  22.426  0.00  0.00    +0.000 NA
ATOM      4  C   UNL     1       1.151  15.614  21.652  0.00  0.00    +0.000 A 
ATOM      5  C   UNL     1      -0.040  15.797  20.961  0.00  0.00    +0.000 A 
ATOM      6  C   UNL     1      -0.886  16.907  21.141  0.00  0.00    +0.000 A 
ATOM      7  C   UNL     1      -1.270  17.585  20.010  0.00  0.00    +0.000 A 
ATOM      8  C   UNL     1      -0.851  17.057  18.783  0.00  0.00    +0.000 A 
ATOM      9  C   UNL     1      -0.410  15.705  18.720  0.00  0.00    +0.000 A 
ATOM     10  C   UNL     1      -0.169  14.911  19.937  0.00  0.00    +0.000 A 
ENDROOT
BRANCH   4  11
ATOM     11  N   UNL     1       2.321  15.724  20.839  0.00  0.00    +0.000 N 
ATOM     12  C   UNL     1       2.709  17.009  20.224  0.00  0.00    +0.000 C 
ATOM     13  C   UNL     1       3.462  16.819  18.875  0.00  0.00    +0.000 C 
ATOM     14  N   UNL     1       4.496  15.774  18.928  0.00  0.00    +0.000 N 
ATOM     15  C   UNL     1       5.841  16.136  18.809  0.00  0.00    +0.000 C 
ATOM     16  O   UNL     1       6.201  17.304  18.686  0.00  0.00    +0.000 OA
ATOM     17  C   UNL     1       3.983  14.495  19.431  0.00  0.00    +0.000 C 
ATOM     18  C   UNL     1       3.327  14.636  20.831  0.00  0.00    +0.000 C 
ATOM     19  C   UNL     1       4.374  14.893  21.899  0.00  0.00    +0.000 C 
BRANCH  15  20
ATOM     20  C   UNL     1       6.912  15.096  18.854  0.00  0.00    +0.000 A 
ATOM     21  C   UNL     1       7.648  14.832  20.015  0.00  0.00    +0.000 A 
ATOM     22  C   UNL     1       8.678  13.888  19.995  0.00  0.00    +0.000 A 
ATOM     23  C   UNL     1       8.934  13.159  18.835  0.00  0.00    +0.000 A 
ATOM     24  C   UNL     1       8.154  13.359  17.697  0.00  0.00    +0.000 A 
ATOM     25  C   UNL     1       7.145  14.326  17.706  0.00  0.00    +0.000 A 
ENDBRANCH  15  20
ENDBRANCH   4  11
BRANCH   1  29
ATOM     26  C   UNL     1       0.977   9.468  19.221  0.00  0.00    +0.000 A 
ATOM     27  C   UNL     1       0.992   9.864  20.562  0.00  0.00    +0.000 A 
ATOM     28  C   UNL     1       0.554  11.141  20.925  0.00  0.00    +0.000 A 
ATOM     29  C   UNL     1       0.124  12.155  20.020  0.00  0.00    +0.000 A 
ATOM     30  C   UNL     1      -0.009  11.716  18.696  0.00  0.00    +0.000 A 
ATOM     31  C   UNL     1       0.423  10.397  18.327  0.00  0.00    +0.000 A 
BRANCH  26  33
ATOM     32  C   UNL     1       2.792   8.283  17.866  0.00  0.00    +0.000 C 
ATOM     33  C   UNL     1       1.635   8.139  18.866  0.00  0.00    +0.000 C 
ATOM     34  C   UNL     1       2.113   7.310  20.063  0.00  0.00    +0.000 C 
ENDBRANCH  26  33
ENDBRANCH   1  29
TORSDOF 4
ENDMDL
MODEL 9
REMARK VINA RESULT:      -7.0      2.386      7.098
REMARK  Name = 
REMARK  7 active torsions:
REMARK  status: ('A' for Active; 'I' for Inactive)
REMARK    1  A    between atoms: C_1  and  C_2
REMARK    2  A    between atoms: C_2  and  C_3
REMARK    3  A    between atoms: C_2  and  C_4
REMARK    4  A    between atoms: C_7  and  C_8
REMARK    5  A    between atoms: C_11  and  N_12
REMARK    6  A    between atoms: C_16  and  C_18
REMARK    7  A    between atoms: C_25  and  C_26
REMARK                            x       y       z     vdW  Elec       q    Type
REMARK                         _______ _______ _______ _____ _____    ______ ____
ROOT
ATOM      1  C   UNL     1       0.084  13.673  19.436  0.00  0.00    +0.000 A 
ATOM      2  N   UNL     1      -0.561  13.378  18.236  0.00  0.00    +0.000 NA
ATOM      3  N   UNL     1      -1.377  12.332  18.143  0.00  0.00    +0.000 NA
ATOM      4  C   UNL     1      -1.524  11.673  19.253  0.00  0.00    +0.000 A 
ATOM      5  C   UNL     1      -1.704  12.568  20.299  0.00  0.00    +0.000 A 
ATOM      6  C   UNL     1      -2.897  12.678  21.037  0.00  0.00    +0.000 A 
ATOM      7  C   UNL     1      -2.789  12.622  22.405  0.00  0.00    +0.000 A 
ATOM      8  C   UNL     1      -1.496  12.546  22.934  0.00  0.00    +0.000 A 
ATOM      9  C   UNL     1      -0.386  12.908  22.119  0.00  0.00    +0.000 A 
ATOM     10  C   UNL     1      -0.533  13.148  20.674  0.00  0.00    +0.000 A 
ENDROOT
BRANCH   4  11
ATOM     11  N   UNL     1      -0.597  10.624  19.534  0.00  0.00    +0.000 N 
ATOM     12  C   UNL     1      -0.795   9.712  20.679  0.00  0.00    +0.000 C 
ATOM     13  C   UNL     1       0.550   9.195  21.266  0.00  0.00    +0.000 C 
ATOM     14  N   UNL     1       1.507   8.762  20.237  0.00  0.00    +0.000 N 
ATOM     15  C   UNL     1       1.848   7.410  20.145  0.00  0.00    +0.000 C 
ATOM     16  O   UNL     1       1.359   6.555  20.880  0.00  0.00    +0.000 OA
ATOM     17  C   UNL     1       1.738   9.787  19.213  0.00  0.00    +0.000 C 
ATOM     18  C   UNL     1       0.420  10.238  18.528  0.00  0.00    +0.000 C 
ATOM     19  C   UNL     1      -0.129   9.145  17.631  0.00  0.00    +0.000 C 
BRANCH  15  20
ATOM     20  C   UNL     1       2.821   6.942  19.112  0.00  0.00    +0.000 A 
ATOM     21  C   UNL     1       3.053   7.652  17.929  0.00  0.00    +0.000 A 
ATOM     22  C   UNL     1       3.931   7.147  16.967  0.00  0.00    +0.000 A 
ATOM     23  C   UNL     1       4.630   5.964  17.211  0.00  0.00    +0.000 A 
ATOM     24  C   UNL     1       4.465   5.293  18.422  0.00  0.00    +0.000 A 
ATOM     25  C   UNL     1       3.562   5.779  19.371  0.00  0.00    +0.000 A 
ENDBRANCH  15  20
ENDBRANCH   4  11
BRANCH   1  29
ATOM     26  C   UNL     1       4.131  15.243  18.744  0.00  0.00    +0.000 A 
ATOM     27  C   UNL     1       3.659  14.067  18.153  0.00  0.00    +0.000 A 
ATOM     28  C   UNL     1       2.318  13.696  18.291  0.00  0.00    +0.000 A 
ATOM     29  C   UNL     1       1.343  14.398  19.058  0.00  0.00    +0.000 A 
ATOM     30  C   UNL     1       1.784  15.636  19.542  0.00  0.00    +0.000 A 
ATOM     31  C   UNL     1       3.157  16.025  19.384  0.00  0.00    +0.000 A 
BRANCH  26  33
ATOM     32  C   UNL     1       6.281  15.469  20.108  0.00  0.00    +0.000 C 
ATOM     33  C   UNL     1       5.634  15.499  18.715  0.00  0.00    +0.000 C 
ATOM     34  C   UNL     1       6.431  14.586  17.777  0.00  0.00    +0.000 C 
ENDBRANCH  26  33
ENDBRANCH   1  29
TORSDOF 4
ENDMDL
