MODEL 1
REMARK VINA RESULT:      -6.7      0.000      0.000
REMARK  Name = 
REMARK  6 active torsions:
REMARK  status: ('A' for Active; 'I' for Inactive)
REMARK    1  A    between atoms: C_3  and  C_4
REMARK    2  A    between atoms: C_5  and  C_6
REMARK    3  A    between atoms: N_10  and  C_11
REMARK    4  A    between atoms: C_14  and  N_15
REMARK    5  A    between atoms: N_15  and  C_16
REMARK    6  A    between atoms: N_15  and  C_17
REMARK                            x       y       z     vdW  Elec       q    Type
REMARK                         _______ _______ _______ _____ _____    ______ ____
ROOT
ATOM      1  C   UNL     1       1.456   4.315  19.340  0.00  0.00    +0.000 C 
ATOM      2  C   UNL     1       2.446   4.663  18.513  0.00  0.00    +0.000 C 
ATOM      3  C   UNL     1       3.251   3.784  17.692  0.00  0.00    +0.000 C 
ATOM      4  C   UNL     1       2.961   2.337  17.447  0.00  0.00    +0.000 C 
ATOM      5  C   UNL     1       4.265   4.475  17.147  0.00  0.00    +0.000 C 
ATOM      6  C   UNL     1       4.127   5.886  17.573  0.00  0.00    +0.000 C 
ATOM      7  O   UNL     1       4.875   6.781  17.216  0.00  0.00    +0.000 OA
ATOM      8  N   UNL     1       2.966   5.936  18.364  0.00  0.00    +0.000 N 
ENDROOT
BRANCH   8   9
ATOM      9  C   UNL     1       2.395   7.179  18.742  0.00  0.00    +0.000 A 
ATOM     10  C   UNL     1       2.055   7.428  20.071  0.00  0.00    +0.000 A 
ATOM     11  C   UNL     1       1.372   8.602  20.431  0.00  0.00    +0.000 A 
ATOM     12  C   UNL     1       1.038   9.600  19.501  0.00  0.00    +0.000 A 
ATOM     13  C   UNL     1       1.437   9.343  18.177  0.00  0.00    +0.000 A 
ATOM     14  C   UNL     1       2.076   8.149  17.795  0.00  0.00    +0.000 A 
BRANCH  12  15
ATOM     15  N   UNL     1       0.300  10.720  19.860  0.00  0.00    +0.000 N 
ATOM     16  C   UNL     1       0.936  11.944  20.346  0.00  0.00    +0.000 C 
ATOM     17  C   UNL     1      -1.091  10.900  19.445  0.00  0.00    +0.000 C 
ENDBRANCH  12  15
ENDBRANCH   8   9
BRANCH   5  18
ATOM     18  C   UNL     1       5.255   4.007  16.259  0.00  0.00    +0.000 C 
ATOM     19  N   UNL     1       6.071   3.679  15.500  0.00  0.00    +0.000 NA
ENDBRANCH   5  18
TORSDOF 3
ENDMDL
MODEL 2
REMARK VINA RESULT:      -6.7      3.215      6.896
REMARK  Name = 
REMARK  6 active torsions:
REMARK  status: ('A' for Active; 'I' for Inactive)
REMARK    1  A    between atoms: C_3  and  C_4
REMARK    2  A    between atoms: C_5  and  C_6
REMARK    3  A    between atoms: N_10  and  C_11
REMARK    4  A    between atoms: C_14  and  N_15
REMARK    5  A    between atoms: N_15  and  C_16
REMARK    6  A    between atoms: N_15  and  C_17
REMARK                            x       y       z     vdW  Elec       q    Type
REMARK                         _______ _______ _______ _____ _____    ______ ____
ROOT
ATOM      1  C   UNL     1       3.456   7.101  18.166  0.00  0.00    +0.000 C 
ATOM      2  C   UNL     1       3.419   5.884  18.718  0.00  0.00    +0.000 C 
ATOM      3  C   UNL     1       2.643   5.467  19.867  0.00  0.00    +0.000 C 
ATOM      4  C   UNL     1       1.560   6.274  20.507  0.00  0.00    +0.000 C 
ATOM      5  C   UNL     1       3.011   4.230  20.237  0.00  0.00    +0.000 C 
ATOM      6  C   UNL     1       4.043   3.764  19.283  0.00  0.00    +0.000 C 
ATOM      7  O   UNL     1       4.558   2.659  19.324  0.00  0.00    +0.000 OA
ATOM      8  N   UNL     1       4.205   4.806  18.353  0.00  0.00    +0.000 N 
ENDROOT
BRANCH   8   9
ATOM      9  C   UNL     1       4.940   4.607  17.157  0.00  0.00    +0.000 A 
ATOM     10  C   UNL     1       6.309   4.871  17.114  0.00  0.00    +0.000 A 
ATOM     11  C   UNL     1       7.017   4.801  15.902  0.00  0.00    +0.000 A 
ATOM     12  C   UNL     1       6.413   4.421  14.692  0.00  0.00    +0.000 A 
ATOM     13  C   UNL     1       5.044   4.113  14.776  0.00  0.00    +0.000 A 
ATOM     14  C   UNL     1       4.312   4.228  15.973  0.00  0.00    +0.000 A 
BRANCH  12  15
ATOM     15  N   UNL     1       7.111   4.426  13.491  0.00  0.00    +0.000 N 
ATOM     16  C   UNL     1       6.699   3.605  12.353  0.00  0.00    +0.000 C 
ATOM     17  C   UNL     1       8.053   5.490  13.145  0.00  0.00    +0.000 C 
ENDBRANCH  12  15
ENDBRANCH   8   9
BRANCH   5  18
ATOM     18  C   UNL     1       2.483   3.445  21.282  0.00  0.00    +0.000 C 
ATOM     19  N   UNL     1       1.996   2.786  22.106  0.00  0.00    +0.000 NA
ENDBRANCH   5  18
TORSDOF 3
ENDMDL
MODEL 3
REMARK VINA RESULT:      -6.6      1.591      2.397
REMARK  Name = 
REMARK  6 active torsions:
REMARK  status: ('A' for Active; 'I' for Inactive)
REMARK    1  A    between atoms: C_3  and  C_4
REMARK    2  A    between atoms: C_5  and  C_6
REMARK    3  A    between atoms: N_10  and  C_11
REMARK    4  A    between atoms: C_14  and  N_15
REMARK    5  A    between atoms: N_15  and  C_16
REMARK    6  A    between atoms: N_15  and  C_17
REMARK                            x       y       z     vdW  Elec       q    Type
REMARK                         _______ _______ _______ _____ _____    ______ ____
ROOT
ATOM      1  C   UNL     1       4.929   7.089  16.815  0.00  0.00    +0.000 C 
ATOM      2  C   UNL     1       4.274   6.064  17.368  0.00  0.00    +0.000 C 
ATOM      3  C   UNL     1       4.620   4.660  17.288  0.00  0.00    +0.000 C 
ATOM      4  C   UNL     1       5.912   4.125  16.759  0.00  0.00    +0.000 C 
ATOM      5  C   UNL     1       3.626   3.919  17.805  0.00  0.00    +0.000 C 
ATOM      6  C   UNL     1       2.582   4.847  18.296  0.00  0.00    +0.000 C 
ATOM      7  O   UNL     1       1.561   4.486  18.856  0.00  0.00    +0.000 OA
ATOM      8  N   UNL     1       3.069   6.141  18.042  0.00  0.00    +0.000 N 
ENDROOT
BRANCH   8   9
ATOM      9  C   UNL     1       2.436   7.280  18.602  0.00  0.00    +0.000 A 
ATOM     10  C   UNL     1       2.173   7.345  19.970  0.00  0.00    +0.000 A 
ATOM     11  C   UNL     1       1.433   8.409  20.510  0.00  0.00    +0.000 A 
ATOM     12  C   UNL     1       0.960   9.477  19.730  0.00  0.00    +0.000 A 
ATOM     13  C   UNL     1       1.282   9.410  18.363  0.00  0.00    +0.000 A 
ATOM     14  C   UNL     1       1.979   8.324  17.801  0.00  0.00    +0.000 A 
BRANCH  12  15
ATOM     15  N   UNL     1       0.168  10.484  20.268  0.00  0.00    +0.000 N 
ATOM     16  C   UNL     1      -0.697  11.317  19.433  0.00  0.00    +0.000 C 
ATOM     17  C   UNL     1      -0.145  10.547  21.694  0.00  0.00    +0.000 C 
ENDBRANCH  12  15
ENDBRANCH   8   9
BRANCH   5  18
ATOM     18  C   UNL     1       3.576   2.518  17.951  0.00  0.00    +0.000 C 
ATOM     19  N   UNL     1       3.551   1.371  18.134  0.00  0.00    +0.000 NA
ENDBRANCH   5  18
TORSDOF 3
ENDMDL
MODEL 4
REMARK VINA RESULT:      -6.5      0.551      1.305
REMARK  Name = 
REMARK  6 active torsions:
REMARK  status: ('A' for Active; 'I' for Inactive)
REMARK    1  A    between atoms: C_3  and  C_4
REMARK    2  A    between atoms: C_5  and  C_6
REMARK    3  A    between atoms: N_10  and  C_11
REMARK    4  A    between atoms: C_14  and  N_15
REMARK    5  A    between atoms: N_15  and  C_16
REMARK    6  A    between atoms: N_15  and  C_17
REMARK                            x       y       z     vdW  Elec       q    Type
REMARK                         _______ _______ _______ _____ _____    ______ ____
ROOT
ATOM      1  C   UNL     1       1.452   4.254  19.369  0.00  0.00    +0.000 C 
ATOM      2  C   UNL     1       2.435   4.641  18.550  0.00  0.00    +0.000 C 
ATOM      3  C   UNL     1       3.294   3.792  17.751  0.00  0.00    +0.000 C 
ATOM      4  C   UNL     1       3.080   2.330  17.523  0.00  0.00    +0.000 C 
ATOM      5  C   UNL     1       4.279   4.526  17.210  0.00  0.00    +0.000 C 
ATOM      6  C   UNL     1       4.066   5.934  17.615  0.00  0.00    +0.000 C 
ATOM      7  O   UNL     1       4.772   6.861  17.255  0.00  0.00    +0.000 OA
ATOM      8  N   UNL     1       2.892   5.936  18.390  0.00  0.00    +0.000 N 
ENDROOT
BRANCH   8   9
ATOM      9  C   UNL     1       2.255   7.153  18.743  0.00  0.00    +0.000 A 
ATOM     10  C   UNL     1       1.956   8.106  17.770  0.00  0.00    +0.000 A 
ATOM     11  C   UNL     1       1.445   9.364  18.128  0.00  0.00    +0.000 A 
ATOM     12  C   UNL     1       1.164   9.718  19.458  0.00  0.00    +0.000 A 
ATOM     13  C   UNL     1       1.430   8.721  20.412  0.00  0.00    +0.000 A 
ATOM     14  C   UNL     1       1.989   7.475  20.072  0.00  0.00    +0.000 A 
BRANCH  12  15
ATOM     15  N   UNL     1       0.727  10.991  19.802  0.00  0.00    +0.000 N 
ATOM     16  C   UNL     1      -0.023  11.247  21.031  0.00  0.00    +0.000 C 
ATOM     17  C   UNL     1       1.281  12.195  19.184  0.00  0.00    +0.000 C 
ENDBRANCH  12  15
ENDBRANCH   8   9
BRANCH   5  18
ATOM     18  C   UNL     1       5.303   4.096  16.342  0.00  0.00    +0.000 C 
ATOM     19  N   UNL     1       6.102   3.725  15.584  0.00  0.00    +0.000 NA
ENDBRANCH   5  18
TORSDOF 3
ENDMDL
MODEL 5
REMARK VINA RESULT:      -6.5      3.181      6.824
REMARK  Name = 
REMARK  6 active torsions:
REMARK  status: ('A' for Active; 'I' for Inactive)
REMARK    1  A    between atoms: C_3  and  C_4
REMARK    2  A    between atoms: C_5  and  C_6
REMARK    3  A    between atoms: N_10  and  C_11
REMARK    4  A    between atoms: C_14  and  N_15
REMARK    5  A    between atoms: N_15  and  C_16
REMARK    6  A    between atoms: N_15  and  C_17
REMARK                            x       y       z     vdW  Elec       q    Type
REMARK                         _______ _______ _______ _____ _____    ______ ____
ROOT
ATOM      1  C   UNL     1       3.132   7.201  18.224  0.00  0.00    +0.000 C 
ATOM      2  C   UNL     1       3.307   5.966  18.703  0.00  0.00    +0.000 C 
ATOM      3  C   UNL     1       2.656   5.372  19.852  0.00  0.00    +0.000 C 
ATOM      4  C   UNL     1       1.490   5.964  20.577  0.00  0.00    +0.000 C 
ATOM      5  C   UNL     1       3.226   4.189  20.134  0.00  0.00    +0.000 C 
ATOM      6  C   UNL     1       4.275   3.942  19.119  0.00  0.00    +0.000 C 
ATOM      7  O   UNL     1       4.955   2.931  19.075  0.00  0.00    +0.000 OA
ATOM      8  N   UNL     1       4.233   5.045  18.248  0.00  0.00    +0.000 N 
ENDROOT
BRANCH   8   9
ATOM      9  C   UNL     1       4.937   5.028  17.017  0.00  0.00    +0.000 A 
ATOM     10  C   UNL     1       4.402   4.382  15.903  0.00  0.00    +0.000 A 
ATOM     11  C   UNL     1       5.150   4.249  14.721  0.00  0.00    +0.000 A 
ATOM     12  C   UNL     1       6.438   4.789  14.573  0.00  0.00    +0.000 A 
ATOM     13  C   UNL     1       6.931   5.477  15.696  0.00  0.00    +0.000 A 
ATOM     14  C   UNL     1       6.214   5.573  16.903  0.00  0.00    +0.000 A 
BRANCH  12  15
ATOM     15  N   UNL     1       7.191   4.587  13.424  0.00  0.00    +0.000 N 
ATOM     16  C   UNL     1       6.768   3.661  12.374  0.00  0.00    +0.000 C 
ATOM     17  C   UNL     1       8.235   5.521  13.005  0.00  0.00    +0.000 C 
ENDBRANCH  12  15
ENDBRANCH   8   9
BRANCH   5  18
ATOM     18  C   UNL     1       2.872   3.277  21.148  0.00  0.00    +0.000 C 
ATOM     19  N   UNL     1       2.620   2.555  22.024  0.00  0.00    +0.000 NA
ENDBRANCH   5  18
TORSDOF 3
ENDMDL
MODEL 6
REMARK VINA RESULT:      -6.5      1.579      2.635
REMARK  Name = 
REMARK  6 active torsions:
REMARK  status: ('A' for Active; 'I' for Inactive)
REMARK    1  A    between atoms: C_3  and  C_4
REMARK    2  A    between atoms: C_5  and  C_6
REMARK    3  A    between atoms: N_10  and  C_11
REMARK    4  A    between atoms: C_14  and  N_15
REMARK    5  A    between atoms: N_15  and  C_16
REMARK    6  A    between atoms: N_15  and  C_17
REMARK                            x       y       z     vdW  Elec       q    Type
REMARK                         _______ _______ _______ _____ _____    ______ ____
ROOT
ATOM      1  C   UNL     1       4.982   7.185  17.074  0.00  0.00    +0.000 C 
ATOM      2  C   UNL     1       4.302   6.125  17.523  0.00  0.00    +0.000 C 
ATOM      3  C   UNL     1       4.687   4.733  17.425  0.00  0.00    +0.000 C 
ATOM      4  C   UNL     1       6.036   4.245  17.005  0.00  0.00    +0.000 C 
ATOM      5  C   UNL     1       3.666   3.953  17.815  0.00  0.00    +0.000 C 
ATOM      6  C   UNL     1       2.558   4.839  18.236  0.00  0.00    +0.000 C 
ATOM      7  O   UNL     1       1.496   4.437  18.681  0.00  0.00    +0.000 OA
ATOM      8  N   UNL     1       3.036   6.153  18.078  0.00  0.00    +0.000 N 
ENDROOT
BRANCH   8   9
ATOM      9  C   UNL     1       2.325   7.256  18.616  0.00  0.00    +0.000 A 
ATOM     10  C   UNL     1       1.922   8.308  17.794  0.00  0.00    +0.000 A 
ATOM     11  C   UNL     1       1.333   9.461  18.339  0.00  0.00    +0.000 A 
ATOM     12  C   UNL     1       1.075   9.604  19.712  0.00  0.00    +0.000 A 
ATOM     13  C   UNL     1       1.447   8.508  20.509  0.00  0.00    +0.000 A 
ATOM     14  C   UNL     1       2.084   7.368  19.983  0.00  0.00    +0.000 A 
BRANCH  12  15
ATOM     15  N   UNL     1       0.559  10.779  20.243  0.00  0.00    +0.000 N 
ATOM     16  C   UNL     1      -0.351  10.778  21.388  0.00  0.00    +0.000 C 
ATOM     17  C   UNL     1       1.151  12.086  19.958  0.00  0.00    +0.000 C 
ENDBRANCH  12  15
ENDBRANCH   8   9
BRANCH   5  18
ATOM     18  C   UNL     1       3.636   2.547  17.904  0.00  0.00    +0.000 C 
ATOM     19  N   UNL     1       3.591   1.393  18.039  0.00  0.00    +0.000 NA
ENDBRANCH   5  18
TORSDOF 3
ENDMDL
MODEL 7
REMARK VINA RESULT:      -6.3      0.916      1.464
REMARK  Name = 
REMARK  6 active torsions:
REMARK  status: ('A' for Active; 'I' for Inactive)
REMARK    1  A    between atoms: C_3  and  C_4
REMARK    2  A    between atoms: C_5  and  C_6
REMARK    3  A    between atoms: N_10  and  C_11
REMARK    4  A    between atoms: C_14  and  N_15
REMARK    5  A    between atoms: N_15  and  C_16
REMARK    6  A    between atoms: N_15  and  C_17
REMARK                            x       y       z     vdW  Elec       q    Type
REMARK                         _______ _______ _______ _____ _____    ______ ____
ROOT
ATOM      1  C   UNL     1       1.782   4.355  18.490  0.00  0.00    +0.000 C 
ATOM      2  C   UNL     1       2.902   4.912  18.018  0.00  0.00    +0.000 C 
ATOM      3  C   UNL     1       3.989   4.245  17.333  0.00  0.00    +0.000 C 
ATOM      4  C   UNL     1       3.947   2.840  16.824  0.00  0.00    +0.000 C 
ATOM      5  C   UNL     1       5.018   5.095  17.183  0.00  0.00    +0.000 C 
ATOM      6  C   UNL     1       4.608   6.401  17.745  0.00  0.00    +0.000 C 
ATOM      7  O   UNL     1       5.309   7.399  17.730  0.00  0.00    +0.000 OA
ATOM      8  N   UNL     1       3.285   6.229  18.191  0.00  0.00    +0.000 N 
ENDROOT
BRANCH   8   9
ATOM      9  C   UNL     1       2.492   7.344  18.567  0.00  0.00    +0.000 A 
ATOM     10  C   UNL     1       2.176   8.334  17.637  0.00  0.00    +0.000 A 
ATOM     11  C   UNL     1       1.503   9.502  18.032  0.00  0.00    +0.000 A 
ATOM     12  C   UNL     1       1.073   9.720  19.352  0.00  0.00    +0.000 A 
ATOM     13  C   UNL     1       1.362   8.683  20.255  0.00  0.00    +0.000 A 
ATOM     14  C   UNL     1       2.080   7.531  19.884  0.00  0.00    +0.000 A 
BRANCH  12  15
ATOM     15  N   UNL     1       0.473  10.911  19.740  0.00  0.00    +0.000 N 
ATOM     16  C   UNL     1       0.092  11.938  18.771  0.00  0.00    +0.000 C 
ATOM     17  C   UNL     1      -0.149  11.075  21.053  0.00  0.00    +0.000 C 
ENDBRANCH  12  15
ENDBRANCH   8   9
BRANCH   5  18
ATOM     18  C   UNL     1       6.251   4.858  16.542  0.00  0.00    +0.000 C 
ATOM     19  N   UNL     1       7.296   4.672  16.070  0.00  0.00    +0.000 NA
ENDBRANCH   5  18
TORSDOF 3
ENDMDL
MODEL 8
REMARK VINA RESULT:      -6.2      1.942      2.644
REMARK  Name = 
REMARK  6 active torsions:
REMARK  status: ('A' for Active; 'I' for Inactive)
REMARK    1  A    between atoms: C_3  and  C_4
REMARK    2  A    between atoms: C_5  and  C_6
REMARK    3  A    between atoms: N_10  and  C_11
REMARK    4  A    between atoms: C_14  and  N_15
REMARK    5  A    between atoms: N_15  and  C_16
REMARK    6  A    between atoms: N_15  and  C_17
REMARK                            x       y       z     vdW  Elec       q    Type
REMARK                         _______ _______ _______ _____ _____    ______ ____
ROOT
ATOM      1  C   UNL     1       4.757   7.031  16.892  0.00  0.00    +0.000 C 
ATOM      2  C   UNL     1       4.372   6.191  17.858  0.00  0.00    +0.000 C 
ATOM      3  C   UNL     1       4.982   4.927  18.213  0.00  0.00    +0.000 C 
ATOM      4  C   UNL     1       6.302   4.441  17.707  0.00  0.00    +0.000 C 
ATOM      5  C   UNL     1       4.206   4.284  19.100  0.00  0.00    +0.000 C 
ATOM      6  C   UNL     1       3.046   5.154  19.397  0.00  0.00    +0.000 C 
ATOM      7  O   UNL     1       2.170   4.872  20.198  0.00  0.00    +0.000 OA
ATOM      8  N   UNL     1       3.240   6.324  18.641  0.00  0.00    +0.000 N 
ENDROOT
BRANCH   8   9
ATOM      9  C   UNL     1       2.445   7.477  18.866  0.00  0.00    +0.000 A 
ATOM     10  C   UNL     1       1.984   7.781  20.146  0.00  0.00    +0.000 A 
ATOM     11  C   UNL     1       1.091   8.846  20.354  0.00  0.00    +0.000 A 
ATOM     12  C   UNL     1       0.654   9.683  19.315  0.00  0.00    +0.000 A 
ATOM     13  C   UNL     1       1.174   9.383  18.044  0.00  0.00    +0.000 A 
ATOM     14  C   UNL     1       2.028   8.288  17.813  0.00  0.00    +0.000 A 
BRANCH  12  15
ATOM     15  N   UNL     1      -0.284  10.686  19.526  0.00  0.00    +0.000 N 
ATOM     16  C   UNL     1      -1.233  11.090  18.488  0.00  0.00    +0.000 C 
ATOM     17  C   UNL     1      -0.642  11.145  20.867  0.00  0.00    +0.000 C 
ENDBRANCH  12  15
ENDBRANCH   8   9
BRANCH   5  18
ATOM     18  C   UNL     1       4.449   3.044  19.725  0.00  0.00    +0.000 C 
ATOM     19  N   UNL     1       4.712   2.032  20.232  0.00  0.00    +0.000 NA
ENDBRANCH   5  18
TORSDOF 3
ENDMDL
MODEL 9
REMARK VINA RESULT:      -6.2      1.925      2.827
REMARK  Name = 
REMARK  6 active torsions:
REMARK  status: ('A' for Active; 'I' for Inactive)
REMARK    1  A    between atoms: C_3  and  C_4
REMARK    2  A    between atoms: C_5  and  C_6
REMARK    3  A    between atoms: N_10  and  C_11
REMARK    4  A    between atoms: C_14  and  N_15
REMARK    5  A    between atoms: N_15  and  C_16
REMARK    6  A    between atoms: N_15  and  C_17
REMARK                            x       y       z     vdW  Elec       q    Type
REMARK                         _______ _______ _______ _____ _____    ______ ____
ROOT
ATOM      1  C   UNL     1       4.648   7.071  16.916  0.00  0.00    +0.000 C 
ATOM      2  C   UNL     1       4.297   6.204  17.870  0.00  0.00    +0.000 C 
ATOM      3  C   UNL     1       4.951   4.955  18.201  0.00  0.00    +0.000 C 
ATOM      4  C   UNL     1       6.284   4.522  17.681  0.00  0.00    +0.000 C 
ATOM      5  C   UNL     1       4.202   4.272  19.082  0.00  0.00    +0.000 C 
ATOM      6  C   UNL     1       3.015   5.098  19.399  0.00  0.00    +0.000 C 
ATOM      7  O   UNL     1       2.154   4.773  20.199  0.00  0.00    +0.000 OA
ATOM      8  N   UNL     1       3.165   6.285  18.661  0.00  0.00    +0.000 N 
ENDROOT
BRANCH   8   9
ATOM      9  C   UNL     1       2.333   7.407  18.909  0.00  0.00    +0.000 A 
ATOM     10  C   UNL     1       1.990   8.277  17.874  0.00  0.00    +0.000 A 
ATOM     11  C   UNL     1       1.275   9.458  18.136  0.00  0.00    +0.000 A 
ATOM     12  C   UNL     1       0.830   9.806  19.422  0.00  0.00    +0.000 A 
ATOM     13  C   UNL     1       1.149   8.886  20.436  0.00  0.00    +0.000 A 
ATOM     14  C   UNL     1       1.907   7.725  20.196  0.00  0.00    +0.000 A 
BRANCH  12  15
ATOM     15  N   UNL     1       0.188  11.011  19.675  0.00  0.00    +0.000 N 
ATOM     16  C   UNL     1      -0.573  11.715  18.643  0.00  0.00    +0.000 C 
ATOM     17  C   UNL     1      -0.089  11.474  21.034  0.00  0.00    +0.000 C 
ENDBRANCH  12  15
ENDBRANCH   8   9
BRANCH   5  18
ATOM     18  C   UNL     1       4.490   3.031  19.685  0.00  0.00    +0.000 C 
ATOM     19  N   UNL     1       4.788   2.028  20.192  0.00  0.00    +0.000 NA
ENDBRANCH   5  18
TORSDOF 3
ENDMDL
