MODEL 1
REMARK VINA RESULT:      -6.3      0.000      0.000
REMARK  Name = 
REMARK  7 active torsions:
REMARK  status: ('A' for Active; 'I' for Inactive)
REMARK    1  A    between atoms: C_2  and  C_3
REMARK    2  A    between atoms: C_3  and  C_4
REMARK    3  A    between atoms: C_4  and  N_5
REMARK    4  A    between atoms: N_5  and  C_15
REMARK    5  A    between atoms: C_6  and  C_8
REMARK    6  A    between atoms: C_8  and  O_9
REMARK    7  A    between atoms: O_9  and  C_10
REMARK                            x       y       z     vdW  Elec       q    Type
REMARK                         _______ _______ _______ _____ _____    ______ ____
ROOT
ATOM      1  N   UNL     1       5.393   5.339  16.782  0.00  0.00    +0.000 N 
ATOM      2  C   UNL     1       4.280   4.989  17.567  0.00  0.00    +0.000 C 
ATOM      3  O   UNL     1       3.791   5.742  18.411  0.00  0.00    +0.000 OA
ENDROOT
BRANCH   1   4
ATOM      4  C   UNL     1       5.971   4.365  15.874  0.00  0.00    +0.000 C 
ATOM      5  C   UNL     1       5.552   4.367  14.425  0.00  0.00    +0.000 C 
ATOM      6  C   UNL     1       6.977   4.652  14.795  0.00  0.00    +0.000 C 
ENDBRANCH   1   4
BRANCH   1   7
ATOM      7  C   UNL     1       6.106   6.651  16.890  0.00  0.00    +0.000 C 
BRANCH   7   8
ATOM      8  C   UNL     1       7.454   6.676  17.599  0.00  0.00    +0.000 C 
BRANCH   8  10
ATOM      9  N   UNL     1       7.559   5.349  20.041  0.00  0.00    +0.000 NA
ATOM     10  C   UNL     1       7.511   5.951  18.933  0.00  0.00    +0.000 C 
ENDBRANCH   8  10
ENDBRANCH   7   8
ENDBRANCH   1   7
BRANCH   2  11
ATOM     11  C   UNL     1       3.621   3.607  17.315  0.00  0.00    +0.000 C 
BRANCH  11  12
ATOM     12  O   UNL     1       3.840   2.530  18.211  0.00  0.00    +0.000 OA
BRANCH  12  13
ATOM     13  C   UNL     1       2.768   2.269  19.106  0.00  0.00    +0.000 C 
ATOM     14  C   UNL     1       3.109   2.832  20.484  0.00  0.00    +0.000 C 
ATOM     15  C   UNL     1       1.766   2.944  21.186  0.00  0.00    +0.000 C 
ATOM     16  C   UNL     1       0.739   3.170  20.076  0.00  0.00    +0.000 C 
ATOM     17  C   UNL     1       1.497   3.041  18.759  0.00  0.00    +0.000 C 
ENDBRANCH  12  13
ENDBRANCH  11  12
ENDBRANCH   2  11
TORSDOF 7
ENDMDL
MODEL 2
REMARK VINA RESULT:      -6.3      1.379      1.628
REMARK  Name = 
REMARK  7 active torsions:
REMARK  status: ('A' for Active; 'I' for Inactive)
REMARK    1  A    between atoms: C_2  and  C_3
REMARK    2  A    between atoms: C_3  and  C_4
REMARK    3  A    between atoms: C_4  and  N_5
REMARK    4  A    between atoms: N_5  and  C_15
REMARK    5  A    between atoms: C_6  and  C_8
REMARK    6  A    between atoms: C_8  and  O_9
REMARK    7  A    between atoms: O_9  and  C_10
REMARK                            x       y       z     vdW  Elec       q    Type
REMARK                         _______ _______ _______ _____ _____    ______ ____
ROOT
ATOM      1  N   UNL     1       6.112   4.418  17.406  0.00  0.00    +0.000 N 
ATOM      2  C   UNL     1       4.978   4.261  18.221  0.00  0.00    +0.000 C 
ATOM      3  O   UNL     1       5.026   4.290  19.452  0.00  0.00    +0.000 OA
ENDROOT
BRANCH   1   4
ATOM      4  C   UNL     1       5.994   4.279  15.967  0.00  0.00    +0.000 C 
ATOM      5  C   UNL     1       5.719   5.503  15.127  0.00  0.00    +0.000 C 
ATOM      6  C   UNL     1       6.998   4.740  14.949  0.00  0.00    +0.000 C 
ENDBRANCH   1   4
BRANCH   1   7
ATOM      7  C   UNL     1       7.495   4.626  17.941  0.00  0.00    +0.000 C 
BRANCH   7   8
ATOM      8  C   UNL     1       7.776   5.905  18.719  0.00  0.00    +0.000 C 
BRANCH   8  10
ATOM      9  N   UNL     1       7.642   8.265  17.252  0.00  0.00    +0.000 NA
ATOM     10  C   UNL     1       7.703   7.195  17.918  0.00  0.00    +0.000 C 
ENDBRANCH   8  10
ENDBRANCH   7   8
ENDBRANCH   1   7
BRANCH   2  11
ATOM     11  C   UNL     1       3.602   4.091  17.523  0.00  0.00    +0.000 C 
BRANCH  11  12
ATOM     12  O   UNL     1       2.891   2.868  17.618  0.00  0.00    +0.000 OA
BRANCH  12  13
ATOM     13  C   UNL     1       1.838   2.862  18.572  0.00  0.00    +0.000 C 
ATOM     14  C   UNL     1       2.336   2.233  19.872  0.00  0.00    +0.000 C 
ATOM     15  C   UNL     1       1.348   2.712  20.923  0.00  0.00    +0.000 C 
ATOM     16  C   UNL     1       0.840   4.065  20.422  0.00  0.00    +0.000 C 
ATOM     17  C   UNL     1       1.440   4.261  19.034  0.00  0.00    +0.000 C 
ENDBRANCH  12  13
ENDBRANCH  11  12
ENDBRANCH   2  11
TORSDOF 7
ENDMDL
MODEL 3
REMARK VINA RESULT:      -6.1      1.471      2.439
REMARK  Name = 
REMARK  7 active torsions:
REMARK  status: ('A' for Active; 'I' for Inactive)
REMARK    1  A    between atoms: C_2  and  C_3
REMARK    2  A    between atoms: C_3  and  C_4
REMARK    3  A    between atoms: C_4  and  N_5
REMARK    4  A    between atoms: N_5  and  C_15
REMARK    5  A    between atoms: C_6  and  C_8
REMARK    6  A    between atoms: C_8  and  O_9
REMARK    7  A    between atoms: O_9  and  C_10
REMARK                            x       y       z     vdW  Elec       q    Type
REMARK                         _______ _______ _______ _____ _____    ______ ____
ROOT
ATOM      1  N   UNL     1       4.328   5.473  17.126  0.00  0.00    +0.000 N 
ATOM      2  C   UNL     1       4.451   4.124  16.751  0.00  0.00    +0.000 C 
ATOM      3  O   UNL     1       5.396   3.695  16.086  0.00  0.00    +0.000 OA
ENDROOT
BRANCH   1   4
ATOM      4  C   UNL     1       3.141   5.922  17.829  0.00  0.00    +0.000 C 
ATOM      5  C   UNL     1       3.227   6.223  19.305  0.00  0.00    +0.000 C 
ATOM      6  C   UNL     1       2.888   7.315  18.335  0.00  0.00    +0.000 C 
ENDBRANCH   1   4
BRANCH   1   7
ATOM      7  C   UNL     1       5.319   6.531  16.753  0.00  0.00    +0.000 C 
BRANCH   7   8
ATOM      8  C   UNL     1       6.747   6.386  17.265  0.00  0.00    +0.000 C 
BRANCH   8  10
ATOM      9  N   UNL     1       7.012   5.338  19.828  0.00  0.00    +0.000 NA
ATOM     10  C   UNL     1       6.891   5.813  18.665  0.00  0.00    +0.000 C 
ENDBRANCH   8  10
ENDBRANCH   7   8
ENDBRANCH   1   7
BRANCH   2  11
ATOM     11  C   UNL     1       3.363   3.132  17.244  0.00  0.00    +0.000 C 
BRANCH  11  12
ATOM     12  O   UNL     1       3.651   2.199  18.272  0.00  0.00    +0.000 OA
BRANCH  12  13
ATOM     13  C   UNL     1       2.662   2.105  19.288  0.00  0.00    +0.000 C 
ATOM     14  C   UNL     1       3.192   2.743  20.570  0.00  0.00    +0.000 C 
ATOM     15  C   UNL     1       1.944   3.029  21.390  0.00  0.00    +0.000 C 
ATOM     16  C   UNL     1       0.826   3.256  20.371  0.00  0.00    +0.000 C 
ATOM     17  C   UNL     1       1.427   2.957  19.002  0.00  0.00    +0.000 C 
ENDBRANCH  12  13
ENDBRANCH  11  12
ENDBRANCH   2  11
TORSDOF 7
ENDMDL
MODEL 4
REMARK VINA RESULT:      -6.1      1.568      3.285
REMARK  Name = 
REMARK  7 active torsions:
REMARK  status: ('A' for Active; 'I' for Inactive)
REMARK    1  A    between atoms: C_2  and  C_3
REMARK    2  A    between atoms: C_3  and  C_4
REMARK    3  A    between atoms: C_4  and  N_5
REMARK    4  A    between atoms: N_5  and  C_15
REMARK    5  A    between atoms: C_6  and  C_8
REMARK    6  A    between atoms: C_8  and  O_9
REMARK    7  A    between atoms: O_9  and  C_10
REMARK                            x       y       z     vdW  Elec       q    Type
REMARK                         _______ _______ _______ _____ _____    ______ ____
ROOT
ATOM      1  N   UNL     1       5.668   5.292  17.031  0.00  0.00    +0.000 N 
ATOM      2  C   UNL     1       4.873   4.277  17.590  0.00  0.00    +0.000 C 
ATOM      3  O   UNL     1       4.257   3.454  16.910  0.00  0.00    +0.000 OA
ENDROOT
BRANCH   1   4
ATOM      4  C   UNL     1       6.288   6.282  17.892  0.00  0.00    +0.000 C 
ATOM      5  C   UNL     1       7.689   6.044  18.401  0.00  0.00    +0.000 C 
ATOM      6  C   UNL     1       7.402   7.214  17.507  0.00  0.00    +0.000 C 
ENDBRANCH   1   4
BRANCH   1   7
ATOM      7  C   UNL     1       5.847   5.489  15.558  0.00  0.00    +0.000 C 
BRANCH   7   8
ATOM      8  C   UNL     1       6.840   4.592  14.831  0.00  0.00    +0.000 C 
BRANCH   8  10
ATOM      9  N   UNL     1       5.894   3.369  12.518  0.00  0.00    +0.000 NA
ATOM     10  C   UNL     1       6.323   3.924  13.567  0.00  0.00    +0.000 C 
ENDBRANCH   8  10
ENDBRANCH   7   8
ENDBRANCH   1   7
BRANCH   2  11
ATOM     11  C   UNL     1       4.814   4.172  19.138  0.00  0.00    +0.000 C 
BRANCH  11  12
ATOM     12  O   UNL     1       4.453   2.952  19.764  0.00  0.00    +0.000 OA
BRANCH  12  13
ATOM     13  C   UNL     1       3.137   2.921  20.299  0.00  0.00    +0.000 C 
ATOM     14  C   UNL     1       2.618   4.350  20.449  0.00  0.00    +0.000 C 
ATOM     15  C   UNL     1       1.109   4.192  20.541  0.00  0.00    +0.000 C 
ATOM     16  C   UNL     1       0.779   2.928  19.747  0.00  0.00    +0.000 C 
ATOM     17  C   UNL     1       2.115   2.317  19.339  0.00  0.00    +0.000 C 
ENDBRANCH  12  13
ENDBRANCH  11  12
ENDBRANCH   2  11
TORSDOF 7
ENDMDL
MODEL 5
REMARK VINA RESULT:      -6.1      2.275      5.740
REMARK  Name = 
REMARK  7 active torsions:
REMARK  status: ('A' for Active; 'I' for Inactive)
REMARK    1  A    between atoms: C_2  and  C_3
REMARK    2  A    between atoms: C_3  and  C_4
REMARK    3  A    between atoms: C_4  and  N_5
REMARK    4  A    between atoms: N_5  and  C_15
REMARK    5  A    between atoms: C_6  and  C_8
REMARK    6  A    between atoms: C_8  and  O_9
REMARK    7  A    between atoms: O_9  and  C_10
REMARK                            x       y       z     vdW  Elec       q    Type
REMARK                         _______ _______ _______ _____ _____    ______ ____
ROOT
ATOM      1  N   UNL     1       2.878   4.293  18.582  0.00  0.00    +0.000 N 
ATOM      2  C   UNL     1       3.853   3.373  18.158  0.00  0.00    +0.000 C 
ATOM      3  O   UNL     1       3.579   2.234  17.775  0.00  0.00    +0.000 OA
ENDROOT
BRANCH   1   4
ATOM      4  C   UNL     1       3.283   5.583  19.107  0.00  0.00    +0.000 C 
ATOM      5  C   UNL     1       3.030   6.826  18.289  0.00  0.00    +0.000 C 
ATOM      6  C   UNL     1       2.364   6.655  19.622  0.00  0.00    +0.000 C 
ENDBRANCH   1   4
BRANCH   1   7
ATOM      7  C   UNL     1       1.413   3.989  18.623  0.00  0.00    +0.000 C 
BRANCH   7   8
ATOM      8  C   UNL     1       0.919   2.985  19.656  0.00  0.00    +0.000 C 
BRANCH   8  10
ATOM      9  N   UNL     1       2.143   3.116  22.150  0.00  0.00    +0.000 NA
ATOM     10  C   UNL     1       1.588   3.056  21.019  0.00  0.00    +0.000 C 
ENDBRANCH   8  10
ENDBRANCH   7   8
ENDBRANCH   1   7
BRANCH   2  11
ATOM     11  C   UNL     1       5.332   3.843  18.133  0.00  0.00    +0.000 C 
BRANCH  11  12
ATOM     12  O   UNL     1       5.912   4.333  16.936  0.00  0.00    +0.000 OA
BRANCH  12  13
ATOM     13  C   UNL     1       6.981   5.251  17.122  0.00  0.00    +0.000 C 
ATOM     14  C   UNL     1       6.487   6.668  16.841  0.00  0.00    +0.000 C 
ATOM     15  C   UNL     1       7.508   7.563  17.524  0.00  0.00    +0.000 C 
ATOM     16  C   UNL     1       8.049   6.748  18.699  0.00  0.00    +0.000 C 
ATOM     17  C   UNL     1       7.430   5.359  18.578  0.00  0.00    +0.000 C 
ENDBRANCH  12  13
ENDBRANCH  11  12
ENDBRANCH   2  11
TORSDOF 7
ENDMDL
MODEL 6
REMARK VINA RESULT:      -6.1      1.491      2.082
REMARK  Name = 
REMARK  7 active torsions:
REMARK  status: ('A' for Active; 'I' for Inactive)
REMARK    1  A    between atoms: C_2  and  C_3
REMARK    2  A    between atoms: C_3  and  C_4
REMARK    3  A    between atoms: C_4  and  N_5
REMARK    4  A    between atoms: N_5  and  C_15
REMARK    5  A    between atoms: C_6  and  C_8
REMARK    6  A    between atoms: C_8  and  O_9
REMARK    7  A    between atoms: O_9  and  C_10
REMARK                            x       y       z     vdW  Elec       q    Type
REMARK                         _______ _______ _______ _____ _____    ______ ____
ROOT
ATOM      1  N   UNL     1       6.162   4.610  17.250  0.00  0.00    +0.000 N 
ATOM      2  C   UNL     1       5.125   4.016  17.991  0.00  0.00    +0.000 C 
ATOM      3  O   UNL     1       5.271   3.610  19.145  0.00  0.00    +0.000 OA
ENDROOT
BRANCH   1   4
ATOM      4  C   UNL     1       5.941   4.979  15.864  0.00  0.00    +0.000 C 
ATOM      5  C   UNL     1       7.065   4.821  14.871  0.00  0.00    +0.000 C 
ATOM      6  C   UNL     1       5.803   4.028  14.708  0.00  0.00    +0.000 C 
ENDBRANCH   1   4
BRANCH   1   7
ATOM      7  C   UNL     1       7.550   4.804  17.776  0.00  0.00    +0.000 C 
BRANCH   7   8
ATOM      8  C   UNL     1       7.816   6.011  18.666  0.00  0.00    +0.000 C 
BRANCH   8  10
ATOM      9  N   UNL     1       7.690   8.489  17.410  0.00  0.00    +0.000 NA
ATOM     10  C   UNL     1       7.747   7.365  17.980  0.00  0.00    +0.000 C 
ENDBRANCH   8  10
ENDBRANCH   7   8
ENDBRANCH   1   7
BRANCH   2  11
ATOM     11  C   UNL     1       3.725   3.917  17.327  0.00  0.00    +0.000 C 
BRANCH  11  12
ATOM     12  O   UNL     1       2.756   4.931  17.532  0.00  0.00    +0.000 OA
BRANCH  12  13
ATOM     13  C   UNL     1       1.666   4.557  18.363  0.00  0.00    +0.000 C 
ATOM     14  C   UNL     1       1.527   3.036  18.360  0.00  0.00    +0.000 C 
ATOM     15  C   UNL     1       0.707   2.733  19.604  0.00  0.00    +0.000 C 
ATOM     16  C   UNL     1       1.028   3.855  20.592  0.00  0.00    +0.000 C 
ATOM     17  C   UNL     1       1.912   4.846  19.841  0.00  0.00    +0.000 C 
ENDBRANCH  12  13
ENDBRANCH  11  12
ENDBRANCH   2  11
TORSDOF 7
ENDMDL
MODEL 7
REMARK VINA RESULT:      -6.0      1.615      2.142
REMARK  Name = 
REMARK  7 active torsions:
REMARK  status: ('A' for Active; 'I' for Inactive)
REMARK    1  A    between atoms: C_2  and  C_3
REMARK    2  A    between atoms: C_3  and  C_4
REMARK    3  A    between atoms: C_4  and  N_5
REMARK    4  A    between atoms: N_5  and  C_15
REMARK    5  A    between atoms: C_6  and  C_8
REMARK    6  A    between atoms: C_8  and  O_9
REMARK    7  A    between atoms: O_9  and  C_10
REMARK                            x       y       z     vdW  Elec       q    Type
REMARK                         _______ _______ _______ _____ _____    ______ ____
ROOT
ATOM      1  N   UNL     1       5.827   4.798  17.615  0.00  0.00    +0.000 N 
ATOM      2  C   UNL     1       4.794   5.108  18.517  0.00  0.00    +0.000 C 
ATOM      3  O   UNL     1       4.992   5.330  19.713  0.00  0.00    +0.000 OA
ENDROOT
BRANCH   1   4
ATOM      4  C   UNL     1       5.509   4.456  16.242  0.00  0.00    +0.000 C 
ATOM      5  C   UNL     1       5.674   5.499  15.164  0.00  0.00    +0.000 C 
ATOM      6  C   UNL     1       6.500   4.248  15.131  0.00  0.00    +0.000 C 
ENDBRANCH   1   4
BRANCH   1   7
ATOM      7  C   UNL     1       7.268   4.697  18.007  0.00  0.00    +0.000 C 
BRANCH   7   8
ATOM      8  C   UNL     1       7.920   5.910  18.658  0.00  0.00    +0.000 C 
BRANCH   8  10
ATOM      9  N   UNL     1       7.597   8.322  17.309  0.00  0.00    +0.000 NA
ATOM     10  C   UNL     1       7.744   7.228  17.921  0.00  0.00    +0.000 C 
ENDBRANCH   8  10
ENDBRANCH   7   8
ENDBRANCH   1   7
BRANCH   2  11
ATOM     11  C   UNL     1       3.351   5.215  17.957  0.00  0.00    +0.000 C 
BRANCH  11  12
ATOM     12  O   UNL     1       2.303   5.736  18.759  0.00  0.00    +0.000 OA
BRANCH  12  13
ATOM     13  C   UNL     1       1.394   4.765  19.257  0.00  0.00    +0.000 C 
ATOM     14  C   UNL     1       1.452   3.518  18.377  0.00  0.00    +0.000 C 
ATOM     15  C   UNL     1       0.855   2.420  19.243  0.00  0.00    +0.000 C 
ATOM     16  C   UNL     1       1.162   2.822  20.685  0.00  0.00    +0.000 C 
ATOM     17  C   UNL     1       1.801   4.205  20.618  0.00  0.00    +0.000 C 
ENDBRANCH  12  13
ENDBRANCH  11  12
ENDBRANCH   2  11
TORSDOF 7
ENDMDL
MODEL 8
REMARK VINA RESULT:      -6.0      2.199      5.506
REMARK  Name = 
REMARK  7 active torsions:
REMARK  status: ('A' for Active; 'I' for Inactive)
REMARK    1  A    between atoms: C_2  and  C_3
REMARK    2  A    between atoms: C_3  and  C_4
REMARK    3  A    between atoms: C_4  and  N_5
REMARK    4  A    between atoms: N_5  and  C_15
REMARK    5  A    between atoms: C_6  and  C_8
REMARK    6  A    between atoms: C_8  and  O_9
REMARK    7  A    between atoms: O_9  and  C_10
REMARK                            x       y       z     vdW  Elec       q    Type
REMARK                         _______ _______ _______ _____ _____    ______ ____
ROOT
ATOM      1  N   UNL     1       3.098   4.184  18.762  0.00  0.00    +0.000 N 
ATOM      2  C   UNL     1       3.761   5.412  18.929  0.00  0.00    +0.000 C 
ATOM      3  O   UNL     1       3.170   6.466  19.168  0.00  0.00    +0.000 OA
ENDROOT
BRANCH   1   4
ATOM      4  C   UNL     1       3.852   3.001  18.390  0.00  0.00    +0.000 C 
ATOM      5  C   UNL     1       4.291   2.037  19.465  0.00  0.00    +0.000 C 
ATOM      6  C   UNL     1       3.339   1.588  18.397  0.00  0.00    +0.000 C 
ENDBRANCH   1   4
BRANCH   1   7
ATOM      7  C   UNL     1       1.612   4.024  18.846  0.00  0.00    +0.000 C 
BRANCH   7   8
ATOM      8  C   UNL     1       0.953   4.168  20.211  0.00  0.00    +0.000 C 
BRANCH   8  10
ATOM      9  N   UNL     1       1.816   2.384  22.163  0.00  0.00    +0.000 NA
ATOM     10  C   UNL     1       1.424   3.193  21.278  0.00  0.00    +0.000 C 
ENDBRANCH   8  10
ENDBRANCH   7   8
ENDBRANCH   1   7
BRANCH   2  11
ATOM     11  C   UNL     1       5.311   5.416  18.853  0.00  0.00    +0.000 C 
BRANCH  11  12
ATOM     12  O   UNL     1       5.993   6.406  18.101  0.00  0.00    +0.000 OA
BRANCH  12  13
ATOM     13  C   UNL     1       6.405   5.993  16.805  0.00  0.00    +0.000 C 
ATOM     14  C   UNL     1       6.792   4.516  16.843  0.00  0.00    +0.000 C 
ATOM     15  C   UNL     1       6.730   4.076  15.389  0.00  0.00    +0.000 C 
ATOM     16  C   UNL     1       5.679   4.971  14.733  0.00  0.00    +0.000 C 
ATOM     17  C   UNL     1       5.266   5.992  15.787  0.00  0.00    +0.000 C 
ENDBRANCH  12  13
ENDBRANCH  11  12
ENDBRANCH   2  11
TORSDOF 7
ENDMDL
MODEL 9
REMARK VINA RESULT:      -6.0      1.136      1.227
REMARK  Name = 
REMARK  7 active torsions:
REMARK  status: ('A' for Active; 'I' for Inactive)
REMARK    1  A    between atoms: C_2  and  C_3
REMARK    2  A    between atoms: C_3  and  C_4
REMARK    3  A    between atoms: C_4  and  N_5
REMARK    4  A    between atoms: N_5  and  C_15
REMARK    5  A    between atoms: C_6  and  C_8
REMARK    6  A    between atoms: C_8  and  O_9
REMARK    7  A    between atoms: O_9  and  C_10
REMARK                            x       y       z     vdW  Elec       q    Type
REMARK                         _______ _______ _______ _____ _____    ______ ____
ROOT
ATOM      1  N   UNL     1       5.211   5.272  16.662  0.00  0.00    +0.000 N 
ATOM      2  C   UNL     1       4.102   4.984  17.478  0.00  0.00    +0.000 C 
ATOM      3  O   UNL     1       3.655   5.779  18.307  0.00  0.00    +0.000 OA
ENDROOT
BRANCH   1   4
ATOM      4  C   UNL     1       5.739   4.252  15.775  0.00  0.00    +0.000 C 
ATOM      5  C   UNL     1       5.430   4.325  14.300  0.00  0.00    +0.000 C 
ATOM      6  C   UNL     1       6.847   4.437  14.777  0.00  0.00    +0.000 C 
ENDBRANCH   1   4
BRANCH   1   7
ATOM      7  C   UNL     1       5.968   6.561  16.717  0.00  0.00    +0.000 C 
BRANCH   7   8
ATOM      8  C   UNL     1       7.199   6.631  17.612  0.00  0.00    +0.000 C 
BRANCH   8  10
ATOM      9  N   UNL     1       8.283   9.167  17.979  0.00  0.00    +0.000 NA
ATOM     10  C   UNL     1       7.791   8.017  17.812  0.00  0.00    +0.000 C 
ENDBRANCH   8  10
ENDBRANCH   7   8
ENDBRANCH   1   7
BRANCH   2  11
ATOM     11  C   UNL     1       3.393   3.617  17.282  0.00  0.00    +0.000 C 
BRANCH  11  12
ATOM     12  O   UNL     1       3.693   2.521  18.130  0.00  0.00    +0.000 OA
BRANCH  12  13
ATOM     13  C   UNL     1       2.719   2.256  19.130  0.00  0.00    +0.000 C 
ATOM     14  C   UNL     1       3.195   2.827  20.464  0.00  0.00    +0.000 C 
ATOM     15  C   UNL     1       1.929   2.931  21.300  0.00  0.00    +0.000 C 
ATOM     16  C   UNL     1       0.793   3.145  20.299  0.00  0.00    +0.000 C 
ATOM     17  C   UNL     1       1.414   3.017  18.912  0.00  0.00    +0.000 C 
ENDBRANCH  12  13
ENDBRANCH  11  12
ENDBRANCH   2  11
TORSDOF 7
ENDMDL
