MODEL 1
REMARK VINA RESULT:      -8.3      0.000      0.000
REMARK  Name = 
REMARK  8 active torsions:
REMARK  status: ('A' for Active; 'I' for Inactive)
REMARK    1  A    between atoms: C_1  and  C_2
REMARK    2  A    between atoms: C_7  and  C_8
REMARK    3  A    between atoms: C_13  and  N_14
REMARK    4  A    between atoms: N_14  and  S_15
REMARK    5  A    between atoms: S_15  and  N_18
REMARK    6  A    between atoms: N_18  and  C_19
REMARK    7  A    between atoms: N_18  and  C_20
REMARK    8  A    between atoms: C_24  and  C_25
REMARK                            x       y       z     vdW  Elec       q    Type
REMARK                         _______ _______ _______ _____ _____    ______ ____
ROOT
ATOM      1  C   UNL     1      -3.327  12.703  20.331  0.00  0.00    +0.000 C 
ATOM      2  C   UNL     1      -2.153  11.770  20.415  0.00  0.00    +0.000 A 
ATOM      3  C   UNL     1      -1.409  11.680  21.540  0.00  0.00    +0.000 A 
ATOM      4  C   UNL     1      -0.310  10.778  21.620  0.00  0.00    +0.000 A 
ATOM      5  N   UNL     1       0.520  10.536  22.607  0.00  0.00    +0.000 NA
ATOM      6  C   UNL     1       1.359   9.564  22.137  0.00  0.00    +0.000 A 
ATOM      7  C   UNL     1       1.058   9.187  20.835  0.00  0.00    +0.000 A 
ATOM      8  N   UNL     1      -0.024  10.004  20.497  0.00  0.00    +0.000 N 
ATOM      9  C   UNL     1      -0.761  10.120  19.314  0.00  0.00    +0.000 A 
ATOM     10  C   UNL     1      -1.821  10.952  19.236  0.00  0.00    +0.000 A 
ENDROOT
BRANCH   7  11
ATOM     11  C   UNL     1       1.720   8.179  19.992  0.00  0.00    +0.000 A 
ATOM     12  C   UNL     1       1.944   8.364  18.627  0.00  0.00    +0.000 A 
ATOM     13  N   UNL     1       2.577   7.483  17.816  0.00  0.00    +0.000 NA
ATOM     14  C   UNL     1       2.987   6.329  18.384  0.00  0.00    +0.000 A 
ATOM     15 CL   UNL     1       3.823   5.300  17.295  0.00  0.00    +0.000 Cl
ATOM     16  C   UNL     1       2.816   6.017  19.733  0.00  0.00    +0.000 A 
ATOM     17  C   UNL     1       2.141   6.951  20.530  0.00  0.00    +0.000 A 
BRANCH  16  18
ATOM     18  N   UNL     1       3.261   4.781  20.340  0.00  0.00    +0.000 N 
ATOM     19  H   UNL     1       3.976   4.319  19.768  0.00  0.00    +0.000 HD
BRANCH  18  20
ATOM     20  S   UNL     1       2.055   3.613  20.542  0.00  0.00    +0.000 S 
ATOM     21  O   UNL     1       2.479   2.645  21.530  0.00  0.00    +0.000 OA
ATOM     22  O   UNL     1       0.801   4.311  20.643  0.00  0.00    +0.000 OA
BRANCH  20  23
ATOM     23  N   UNL     1       2.116   2.864  19.021  0.00  0.00    +0.000 NA
ATOM     24  C   UNL     1       3.192   1.860  18.857  0.00  0.00    +0.000 C 
ATOM     25  C   UNL     1       0.804   2.292  18.617  0.00  0.00    +0.000 C 
ENDBRANCH  20  23
ENDBRANCH  18  20
ENDBRANCH  16  18
ENDBRANCH   7  11
BRANCH  10  26
ATOM     26  C   UNL     1      -2.565  10.943  17.961  0.00  0.00    +0.000 A 
ATOM     27  C   UNL     1      -1.981  10.414  16.809  0.00  0.00    +0.000 A 
ATOM     28  C   UNL     1      -2.684  10.496  15.617  0.00  0.00    +0.000 A 
ATOM     29  N   UNL     1      -3.910  11.049  15.507  0.00  0.00    +0.000 NA
ATOM     30  C   UNL     1      -4.460  11.540  16.637  0.00  0.00    +0.000 A 
ATOM     31  C   UNL     1      -3.837  11.512  17.875  0.00  0.00    +0.000 A 
ENDBRANCH  10  26
TORSDOF 5
ENDMDL
MODEL 2
REMARK VINA RESULT:      -8.2      2.941      3.782
REMARK  Name = 
REMARK  8 active torsions:
REMARK  status: ('A' for Active; 'I' for Inactive)
REMARK    1  A    between atoms: C_1  and  C_2
REMARK    2  A    between atoms: C_7  and  C_8
REMARK    3  A    between atoms: C_13  and  N_14
REMARK    4  A    between atoms: N_14  and  S_15
REMARK    5  A    between atoms: S_15  and  N_18
REMARK    6  A    between atoms: N_18  and  C_19
REMARK    7  A    between atoms: N_18  and  C_20
REMARK    8  A    between atoms: C_24  and  C_25
REMARK                            x       y       z     vdW  Elec       q    Type
REMARK                         _______ _______ _______ _____ _____    ______ ____
ROOT
ATOM      1  C   UNL     1      -0.154  14.744  22.140  0.00  0.00    +0.000 C 
ATOM      2  C   UNL     1       0.059  13.280  21.878  0.00  0.00    +0.000 A 
ATOM      3  C   UNL     1      -0.648  12.341  22.544  0.00  0.00    +0.000 A 
ATOM      4  C   UNL     1      -0.456  10.955  22.277  0.00  0.00    +0.000 A 
ATOM      5  N   UNL     1      -1.038   9.901  22.798  0.00  0.00    +0.000 NA
ATOM      6  C   UNL     1      -0.482   8.832  22.153  0.00  0.00    +0.000 A 
ATOM      7  C   UNL     1       0.466   9.212  21.213  0.00  0.00    +0.000 A 
ATOM      8  N   UNL     1       0.491  10.606  21.317  0.00  0.00    +0.000 N 
ATOM      9  C   UNL     1       1.258  11.568  20.652  0.00  0.00    +0.000 A 
ATOM     10  C   UNL     1       1.066  12.885  20.879  0.00  0.00    +0.000 A 
ENDROOT
BRANCH   7  11
ATOM     11  C   UNL     1       1.272   8.364  20.321  0.00  0.00    +0.000 A 
ATOM     12  C   UNL     1       1.534   8.697  18.993  0.00  0.00    +0.000 A 
ATOM     13  N   UNL     1       2.296   7.969  18.143  0.00  0.00    +0.000 NA
ATOM     14  C   UNL     1       2.807   6.817  18.628  0.00  0.00    +0.000 A 
ATOM     15 CL   UNL     1       3.799   5.989  17.500  0.00  0.00    +0.000 Cl
ATOM     16  C   UNL     1       2.612   6.364  19.933  0.00  0.00    +0.000 A 
ATOM     17  C   UNL     1       1.803   7.143  20.771  0.00  0.00    +0.000 A 
BRANCH  16  18
ATOM     18  N   UNL     1       3.164   5.132  20.452  0.00  0.00    +0.000 N 
ATOM     19  H   UNL     1       3.853   4.729  19.808  0.00  0.00    +0.000 HD
BRANCH  18  20
ATOM     20  S   UNL     1       2.037   3.895  20.698  0.00  0.00    +0.000 S 
ATOM     21  O   UNL     1       2.134   3.416  22.060  0.00  0.00    +0.000 OA
ATOM     22  O   UNL     1       0.792   4.336  20.128  0.00  0.00    +0.000 OA
BRANCH  20  23
ATOM     23  N   UNL     1       2.685   2.702  19.680  0.00  0.00    +0.000 NA
ATOM     24  C   UNL     1       2.144   2.690  18.302  0.00  0.00    +0.000 C 
ATOM     25  C   UNL     1       4.171   2.722  19.657  0.00  0.00    +0.000 C 
ENDBRANCH  20  23
ENDBRANCH  18  20
ENDBRANCH  16  18
ENDBRANCH   7  11
BRANCH  10  26
ATOM     26  C   UNL     1       1.885  13.813  20.073  0.00  0.00    +0.000 A 
ATOM     27  C   UNL     1       3.195  14.108  20.455  0.00  0.00    +0.000 A 
ATOM     28  C   UNL     1       3.901  15.043  19.715  0.00  0.00    +0.000 A 
ATOM     29  N   UNL     1       3.399  15.677  18.635  0.00  0.00    +0.000 NA
ATOM     30  C   UNL     1       2.137  15.364  18.276  0.00  0.00    +0.000 A 
ATOM     31  C   UNL     1       1.346  14.449  18.954  0.00  0.00    +0.000 A 
ENDBRANCH  10  26
TORSDOF 5
ENDMDL
MODEL 3
REMARK VINA RESULT:      -8.1      2.531      3.132
REMARK  Name = 
REMARK  8 active torsions:
REMARK  status: ('A' for Active; 'I' for Inactive)
REMARK    1  A    between atoms: C_1  and  C_2
REMARK    2  A    between atoms: C_7  and  C_8
REMARK    3  A    between atoms: C_13  and  N_14
REMARK    4  A    between atoms: N_14  and  S_15
REMARK    5  A    between atoms: S_15  and  N_18
REMARK    6  A    between atoms: N_18  and  C_19
REMARK    7  A    between atoms: N_18  and  C_20
REMARK    8  A    between atoms: C_24  and  C_25
REMARK                            x       y       z     vdW  Elec       q    Type
REMARK                         _______ _______ _______ _____ _____    ______ ____
ROOT
ATOM      1  C   UNL     1      -2.428  12.644  20.343  0.00  0.00    +0.000 C 
ATOM      2  C   UNL     1      -1.434  11.523  20.453  0.00  0.00    +0.000 A 
ATOM      3  C   UNL     1      -0.667  11.374  21.555  0.00  0.00    +0.000 A 
ATOM      4  C   UNL     1       0.259  10.297  21.661  0.00  0.00    +0.000 A 
ATOM      5  N   UNL     1       1.078   9.973  22.634  0.00  0.00    +0.000 NA
ATOM      6  C   UNL     1       1.711   8.840  22.205  0.00  0.00    +0.000 A 
ATOM      7  C   UNL     1       1.289   8.441  20.944  0.00  0.00    +0.000 A 
ATOM      8  N   UNL     1       0.353   9.415  20.586  0.00  0.00    +0.000 N 
ATOM      9  C   UNL     1      -0.406   9.584  19.424  0.00  0.00    +0.000 A 
ATOM     10  C   UNL     1      -1.306  10.586  19.324  0.00  0.00    +0.000 A 
ENDROOT
BRANCH   7  11
ATOM     11  C   UNL     1       1.724   7.280  20.152  0.00  0.00    +0.000 A 
ATOM     12  C   UNL     1       1.303   5.978  20.424  0.00  0.00    +0.000 A 
ATOM     13  N   UNL     1       1.647   4.882  19.705  0.00  0.00    +0.000 NA
ATOM     14  C   UNL     1       2.489   5.082  18.669  0.00  0.00    +0.000 A 
ATOM     15 CL   UNL     1       2.826   3.649  17.787  0.00  0.00    +0.000 Cl
ATOM     16  C   UNL     1       2.990   6.330  18.298  0.00  0.00    +0.000 A 
ATOM     17  C   UNL     1       2.620   7.431  19.080  0.00  0.00    +0.000 A 
BRANCH  16  18
ATOM     18  N   UNL     1       3.889   6.540  17.184  0.00  0.00    +0.000 N 
ATOM     19  H   UNL     1       3.676   5.908  16.405  0.00  0.00    +0.000 HD
BRANCH  18  20
ATOM     20  S   UNL     1       5.522   6.263  17.525  0.00  0.00    +0.000 S 
ATOM     21  O   UNL     1       6.309   7.393  17.080  0.00  0.00    +0.000 OA
ATOM     22  O   UNL     1       5.596   5.762  18.872  0.00  0.00    +0.000 OA
BRANCH  20  23
ATOM     23  N   UNL     1       5.826   4.971  16.469  0.00  0.00    +0.000 NA
ATOM     24  C   UNL     1       5.444   5.209  15.058  0.00  0.00    +0.000 C 
ATOM     25  C   UNL     1       7.229   4.485  16.555  0.00  0.00    +0.000 C 
ENDBRANCH  20  23
ENDBRANCH  18  20
ENDBRANCH  16  18
ENDBRANCH   7  11
BRANCH  10  26
ATOM     26  C   UNL     1      -2.098  10.629  18.079  0.00  0.00    +0.000 A 
ATOM     27  C   UNL     1      -3.304  11.331  18.036  0.00  0.00    +0.000 A 
ATOM     28  C   UNL     1      -4.054  11.281  16.872  0.00  0.00    +0.000 A 
ATOM     29  N   UNL     1      -3.679  10.601  15.768  0.00  0.00    +0.000 NA
ATOM     30  C   UNL     1      -2.502   9.944  15.828  0.00  0.00    +0.000 A 
ATOM     31  C   UNL     1      -1.684   9.927  16.947  0.00  0.00    +0.000 A 
ENDBRANCH  10  26
TORSDOF 5
ENDMDL
MODEL 4
REMARK VINA RESULT:      -8.0      3.113      3.825
REMARK  Name = 
REMARK  8 active torsions:
REMARK  status: ('A' for Active; 'I' for Inactive)
REMARK    1  A    between atoms: C_1  and  C_2
REMARK    2  A    between atoms: C_7  and  C_8
REMARK    3  A    between atoms: C_13  and  N_14
REMARK    4  A    between atoms: N_14  and  S_15
REMARK    5  A    between atoms: S_15  and  N_18
REMARK    6  A    between atoms: N_18  and  C_19
REMARK    7  A    between atoms: N_18  and  C_20
REMARK    8  A    between atoms: C_24  and  C_25
REMARK                            x       y       z     vdW  Elec       q    Type
REMARK                         _______ _______ _______ _____ _____    ______ ____
ROOT
ATOM      1  C   UNL     1      -0.715  14.046  22.584  0.00  0.00    +0.000 C 
ATOM      2  C   UNL     1      -0.283  12.697  22.085  0.00  0.00    +0.000 A 
ATOM      3  C   UNL     1      -0.785  11.561  22.617  0.00  0.00    +0.000 A 
ATOM      4  C   UNL     1      -0.387  10.285  22.124  0.00  0.00    +0.000 A 
ATOM      5  N   UNL     1      -0.756   9.080  22.490  0.00  0.00    +0.000 NA
ATOM      6  C   UNL     1      -0.073   8.232  21.664  0.00  0.00    +0.000 A 
ATOM      7  C   UNL     1       0.739   8.907  20.763  0.00  0.00    +0.000 A 
ATOM      8  N   UNL     1       0.544  10.253  21.087  0.00  0.00    +0.000 N 
ATOM      9  C   UNL     1       1.101  11.421  20.559  0.00  0.00    +0.000 A 
ATOM     10  C   UNL     1       0.711  12.636  21.000  0.00  0.00    +0.000 A 
ENDROOT
BRANCH   7  11
ATOM     11  C   UNL     1       1.616   8.354  19.719  0.00  0.00    +0.000 A 
ATOM     12  C   UNL     1       1.948   9.056  18.560  0.00  0.00    +0.000 A 
ATOM     13  N   UNL     1       2.776   8.605  17.587  0.00  0.00    +0.000 NA
ATOM     14  C   UNL     1       3.283   7.365  17.755  0.00  0.00    +0.000 A 
ATOM     15 CL   UNL     1       4.359   6.900  16.502  0.00  0.00    +0.000 Cl
ATOM     16  C   UNL     1       3.022   6.557  18.861  0.00  0.00    +0.000 A 
ATOM     17  C   UNL     1       2.147   7.058  19.833  0.00  0.00    +0.000 A 
BRANCH  16  18
ATOM     18  N   UNL     1       3.571   5.230  19.039  0.00  0.00    +0.000 N 
ATOM     19  H   UNL     1       4.558   5.193  18.766  0.00  0.00    +0.000 HD
BRANCH  18  20
ATOM     20  S   UNL     1       2.827   4.022  18.119  0.00  0.00    +0.000 S 
ATOM     21  O   UNL     1       1.511   4.465  17.711  0.00  0.00    +0.000 OA
ATOM     22  O   UNL     1       3.803   3.547  17.174  0.00  0.00    +0.000 OA
BRANCH  20  23
ATOM     23  N   UNL     1       2.627   2.829  19.308  0.00  0.00    +0.000 NA
ATOM     24  C   UNL     1       3.833   2.543  20.121  0.00  0.00    +0.000 C 
ATOM     25  C   UNL     1       1.457   3.093  20.187  0.00  0.00    +0.000 C 
ENDBRANCH  20  23
ENDBRANCH  18  20
ENDBRANCH  16  18
ENDBRANCH   7  11
BRANCH  10  26
ATOM     26  C   UNL     1       1.316  13.801  20.324  0.00  0.00    +0.000 A 
ATOM     27  C   UNL     1       0.600  14.500  19.350  0.00  0.00    +0.000 A 
ATOM     28  C   UNL     1       1.234  15.538  18.685  0.00  0.00    +0.000 A 
ATOM     29  N   UNL     1       2.503  15.922  18.935  0.00  0.00    +0.000 NA
ATOM     30  C   UNL     1       3.169  15.243  19.891  0.00  0.00    +0.000 A 
ATOM     31  C   UNL     1       2.627  14.186  20.607  0.00  0.00    +0.000 A 
ENDBRANCH  10  26
TORSDOF 5
ENDMDL
MODEL 5
REMARK VINA RESULT:      -8.0      2.875      3.561
REMARK  Name = 
REMARK  8 active torsions:
REMARK  status: ('A' for Active; 'I' for Inactive)
REMARK    1  A    between atoms: C_1  and  C_2
REMARK    2  A    between atoms: C_7  and  C_8
REMARK    3  A    between atoms: C_13  and  N_14
REMARK    4  A    between atoms: N_14  and  S_15
REMARK    5  A    between atoms: S_15  and  N_18
REMARK    6  A    between atoms: N_18  and  C_19
REMARK    7  A    between atoms: N_18  and  C_20
REMARK    8  A    between atoms: C_24  and  C_25
REMARK                            x       y       z     vdW  Elec       q    Type
REMARK                         _______ _______ _______ _____ _____    ______ ____
ROOT
ATOM      1  C   UNL     1      -1.008  14.372  22.541  0.00  0.00    +0.000 C 
ATOM      2  C   UNL     1      -0.539  13.015  22.100  0.00  0.00    +0.000 A 
ATOM      3  C   UNL     1      -0.941  11.894  22.740  0.00  0.00    +0.000 A 
ATOM      4  C   UNL     1      -0.509  10.609  22.305  0.00  0.00    +0.000 A 
ATOM      5  N   UNL     1      -0.786   9.415  22.774  0.00  0.00    +0.000 NA
ATOM      6  C   UNL     1      -0.117   8.547  21.958  0.00  0.00    +0.000 A 
ATOM      7  C   UNL     1       0.594   9.198  20.959  0.00  0.00    +0.000 A 
ATOM      8  N   UNL     1       0.349  10.551  21.208  0.00  0.00    +0.000 N 
ATOM      9  C   UNL     1       0.804  11.707  20.565  0.00  0.00    +0.000 A 
ATOM     10  C   UNL     1       0.380  12.928  20.953  0.00  0.00    +0.000 A 
ENDROOT
BRANCH   7  11
ATOM     11  C   UNL     1       1.426   8.618  19.893  0.00  0.00    +0.000 A 
ATOM     12  C   UNL     1       1.586   9.222  18.646  0.00  0.00    +0.000 A 
ATOM     13  N   UNL     1       2.366   8.747  17.645  0.00  0.00    +0.000 NA
ATOM     14  C   UNL     1       3.003   7.581  17.880  0.00  0.00    +0.000 A 
ATOM     15 CL   UNL     1       4.006   7.084  16.579  0.00  0.00    +0.000 Cl
ATOM     16  C   UNL     1       2.920   6.871  19.079  0.00  0.00    +0.000 A 
ATOM     17  C   UNL     1       2.088   7.393  20.079  0.00  0.00    +0.000 A 
BRANCH  16  18
ATOM     18  N   UNL     1       3.608   5.624  19.329  0.00  0.00    +0.000 N 
ATOM     19  H   UNL     1       4.381   5.484  18.671  0.00  0.00    +0.000 HD
BRANCH  18  20
ATOM     20  S   UNL     1       2.652   4.238  19.166  0.00  0.00    +0.000 S 
ATOM     21  O   UNL     1       2.233   3.782  20.474  0.00  0.00    +0.000 OA
ATOM     22  O   UNL     1       1.713   4.493  18.106  0.00  0.00    +0.000 OA
BRANCH  20  23
ATOM     23  N   UNL     1       3.814   3.148  18.584  0.00  0.00    +0.000 NA
ATOM     24  C   UNL     1       3.377   1.734  18.525  0.00  0.00    +0.000 C 
ATOM     25  C   UNL     1       4.386   3.572  17.279  0.00  0.00    +0.000 C 
ENDBRANCH  20  23
ENDBRANCH  18  20
ENDBRANCH  16  18
ENDBRANCH   7  11
BRANCH  10  26
ATOM     26  C   UNL     1       0.873  14.072  20.161  0.00  0.00    +0.000 A 
ATOM     27  C   UNL     1       2.190  14.512  20.305  0.00  0.00    +0.000 A 
ATOM     28  C   UNL     1       2.589  15.637  19.600  0.00  0.00    +0.000 A 
ATOM     29  N   UNL     1       1.779  16.327  18.770  0.00  0.00    +0.000 NA
ATOM     30  C   UNL     1       0.516  15.874  18.635  0.00  0.00    +0.000 A 
ATOM     31  C   UNL     1       0.019  14.763  19.300  0.00  0.00    +0.000 A 
ENDBRANCH  10  26
TORSDOF 5
ENDMDL
MODEL 6
REMARK VINA RESULT:      -7.9      1.133      1.537
REMARK  Name = 
REMARK  8 active torsions:
REMARK  status: ('A' for Active; 'I' for Inactive)
REMARK    1  A    between atoms: C_1  and  C_2
REMARK    2  A    between atoms: C_7  and  C_8
REMARK    3  A    between atoms: C_13  and  N_14
REMARK    4  A    between atoms: N_14  and  S_15
REMARK    5  A    between atoms: S_15  and  N_18
REMARK    6  A    between atoms: N_18  and  C_19
REMARK    7  A    between atoms: N_18  and  C_20
REMARK    8  A    between atoms: C_24  and  C_25
REMARK                            x       y       z     vdW  Elec       q    Type
REMARK                         _______ _______ _______ _____ _____    ______ ____
ROOT
ATOM      1  C   UNL     1      -3.364  12.523  20.122  0.00  0.00    +0.000 C 
ATOM      2  C   UNL     1      -2.145  11.648  20.177  0.00  0.00    +0.000 A 
ATOM      3  C   UNL     1      -1.402  11.553  21.302  0.00  0.00    +0.000 A 
ATOM      4  C   UNL     1      -0.259  10.705  21.354  0.00  0.00    +0.000 A 
ATOM      5  N   UNL     1       0.578  10.467  22.337  0.00  0.00    +0.000 NA
ATOM      6  C   UNL     1       1.467   9.558  21.835  0.00  0.00    +0.000 A 
ATOM      7  C   UNL     1       1.192   9.217  20.517  0.00  0.00    +0.000 A 
ATOM      8  N   UNL     1       0.071   9.991  20.204  0.00  0.00    +0.000 N 
ATOM      9  C   UNL     1      -0.666  10.114  19.022  0.00  0.00    +0.000 A 
ATOM     10  C   UNL     1      -1.767  10.894  18.970  0.00  0.00    +0.000 A 
ENDROOT
BRANCH   7  11
ATOM     11  C   UNL     1       1.907   8.277  19.640  0.00  0.00    +0.000 A 
ATOM     12  C   UNL     1       2.272   8.592  18.331  0.00  0.00    +0.000 A 
ATOM     13  N   UNL     1       2.959   7.777  17.496  0.00  0.00    +0.000 NA
ATOM     14  C   UNL     1       3.279   6.556  17.976  0.00  0.00    +0.000 A 
ATOM     15 CL   UNL     1       4.192   5.614  16.870  0.00  0.00    +0.000 Cl
ATOM     16  C   UNL     1       2.965   6.114  19.261  0.00  0.00    +0.000 A 
ATOM     17  C   UNL     1       2.239   6.985  20.083  0.00  0.00    +0.000 A 
BRANCH  16  18
ATOM     18  N   UNL     1       3.313   4.806  19.773  0.00  0.00    +0.000 N 
ATOM     19  H   UNL     1       4.296   4.580  19.587  0.00  0.00    +0.000 HD
BRANCH  18  20
ATOM     20  S   UNL     1       2.444   3.522  19.098  0.00  0.00    +0.000 S 
ATOM     21  O   UNL     1       1.130   3.982  18.702  0.00  0.00    +0.000 OA
ATOM     22  O   UNL     1       3.326   2.846  18.185  0.00  0.00    +0.000 OA
BRANCH  20  23
ATOM     23  N   UNL     1       2.259   2.541  20.469  0.00  0.00    +0.000 NA
ATOM     24  C   UNL     1       3.523   2.084  21.091  0.00  0.00    +0.000 C 
ATOM     25  C   UNL     1       1.368   3.154  21.490  0.00  0.00    +0.000 C 
ENDBRANCH  20  23
ENDBRANCH  18  20
ENDBRANCH  16  18
ENDBRANCH   7  11
BRANCH  10  26
ATOM     26  C   UNL     1      -2.504  10.897  17.691  0.00  0.00    +0.000 A 
ATOM     27  C   UNL     1      -3.765  11.491  17.607  0.00  0.00    +0.000 A 
ATOM     28  C   UNL     1      -4.456  11.402  16.409  0.00  0.00    +0.000 A 
ATOM     29  N   UNL     1      -3.974  10.785  15.310  0.00  0.00    +0.000 NA
ATOM     30  C   UNL     1      -2.746  10.233  15.411  0.00  0.00    +0.000 A 
ATOM     31  C   UNL     1      -1.980  10.262  16.565  0.00  0.00    +0.000 A 
ENDBRANCH  10  26
TORSDOF 5
ENDMDL
MODEL 7
REMARK VINA RESULT:      -7.9      3.592      4.579
REMARK  Name = 
REMARK  8 active torsions:
REMARK  status: ('A' for Active; 'I' for Inactive)
REMARK    1  A    between atoms: C_1  and  C_2
REMARK    2  A    between atoms: C_7  and  C_8
REMARK    3  A    between atoms: C_13  and  N_14
REMARK    4  A    between atoms: N_14  and  S_15
REMARK    5  A    between atoms: S_15  and  N_18
REMARK    6  A    between atoms: N_18  and  C_19
REMARK    7  A    between atoms: N_18  and  C_20
REMARK    8  A    between atoms: C_24  and  C_25
REMARK                            x       y       z     vdW  Elec       q    Type
REMARK                         _______ _______ _______ _____ _____    ______ ____
ROOT
ATOM      1  C   UNL     1       0.721  15.703  20.939  0.00  0.00    +0.000 C 
ATOM      2  C   UNL     1       0.741  14.228  20.660  0.00  0.00    +0.000 A 
ATOM      3  C   UNL     1      -0.276  13.428  21.051  0.00  0.00    +0.000 A 
ATOM      4  C   UNL     1      -0.261  12.033  20.765  0.00  0.00    +0.000 A 
ATOM      5  N   UNL     1      -1.140  11.099  21.044  0.00  0.00    +0.000 NA
ATOM      6  C   UNL     1      -0.620   9.951  20.515  0.00  0.00    +0.000 A 
ATOM      7  C   UNL     1       0.604  10.159  19.894  0.00  0.00    +0.000 A 
ATOM      8  N   UNL     1       0.841  11.524  20.082  0.00  0.00    +0.000 N 
ATOM      9  C   UNL     1       1.918  12.334  19.711  0.00  0.00    +0.000 A 
ATOM     10  C   UNL     1       1.902  13.662  19.953  0.00  0.00    +0.000 A 
ENDROOT
BRANCH   7  11
ATOM     11  C   UNL     1       1.467   9.185  19.209  0.00  0.00    +0.000 A 
ATOM     12  C   UNL     1       1.926   9.366  17.904  0.00  0.00    +0.000 A 
ATOM     13  N   UNL     1       2.748   8.517  17.242  0.00  0.00    +0.000 NA
ATOM     14  C   UNL     1       3.114   7.397  17.902  0.00  0.00    +0.000 A 
ATOM     15 CL   UNL     1       4.194   6.409  17.007  0.00  0.00    +0.000 Cl
ATOM     16  C   UNL     1       2.717   7.091  19.204  0.00  0.00    +0.000 A 
ATOM     17  C   UNL     1       1.854   7.991  19.842  0.00  0.00    +0.000 A 
BRANCH  16  18
ATOM     18  N   UNL     1       3.114   5.892  19.909  0.00  0.00    +0.000 N 
ATOM     19  H   UNL     1       4.017   5.541  19.572  0.00  0.00    +0.000 HD
BRANCH  18  20
ATOM     20  S   UNL     1       2.056   4.584  19.741  0.00  0.00    +0.000 S 
ATOM     21  O   UNL     1       0.948   4.736  20.659  0.00  0.00    +0.000 OA
ATOM     22  O   UNL     1       1.861   4.374  18.331  0.00  0.00    +0.000 OA
BRANCH  20  23
ATOM     23  N   UNL     1       3.044   3.333  20.323  0.00  0.00    +0.000 NA
ATOM     24  C   UNL     1       2.549   2.657  21.544  0.00  0.00    +0.000 C 
ATOM     25  C   UNL     1       3.374   2.335  19.272  0.00  0.00    +0.000 C 
ENDBRANCH  20  23
ENDBRANCH  18  20
ENDBRANCH  16  18
ENDBRANCH   7  11
BRANCH  10  26
ATOM     26  C   UNL     1       3.062  14.430  19.458  0.00  0.00    +0.000 A 
ATOM     27  C   UNL     1       3.147  14.786  18.111  0.00  0.00    +0.000 A 
ATOM     28  C   UNL     1       4.289  15.438  17.673  0.00  0.00    +0.000 A 
ATOM     29  N   UNL     1       5.322  15.762  18.479  0.00  0.00    +0.000 NA
ATOM     30  C   UNL     1       5.210  15.421  19.780  0.00  0.00    +0.000 A 
ATOM     31  C   UNL     1       4.113  14.762  20.313  0.00  0.00    +0.000 A 
ENDBRANCH  10  26
TORSDOF 5
ENDMDL
MODEL 8
REMARK VINA RESULT:      -7.8      3.012      3.624
REMARK  Name = 
REMARK  8 active torsions:
REMARK  status: ('A' for Active; 'I' for Inactive)
REMARK    1  A    between atoms: C_1  and  C_2
REMARK    2  A    between atoms: C_7  and  C_8
REMARK    3  A    between atoms: C_13  and  N_14
REMARK    4  A    between atoms: N_14  and  S_15
REMARK    5  A    between atoms: S_15  and  N_18
REMARK    6  A    between atoms: N_18  and  C_19
REMARK    7  A    between atoms: N_18  and  C_20
REMARK    8  A    between atoms: C_24  and  C_25
REMARK                            x       y       z     vdW  Elec       q    Type
REMARK                         _______ _______ _______ _____ _____    ______ ____
ROOT
ATOM      1  C   UNL     1      -1.025  13.743  22.571  0.00  0.00    +0.000 C 
ATOM      2  C   UNL     1      -0.490  12.429  22.078  0.00  0.00    +0.000 A 
ATOM      3  C   UNL     1      -0.859  11.263  22.653  0.00  0.00    +0.000 A 
ATOM      4  C   UNL     1      -0.364  10.019  22.168  0.00  0.00    +0.000 A 
ATOM      5  N   UNL     1      -0.602   8.793  22.572  0.00  0.00    +0.000 NA
ATOM      6  C   UNL     1       0.121   7.994  21.732  0.00  0.00    +0.000 A 
ATOM      7  C   UNL     1       0.828   8.721  20.784  0.00  0.00    +0.000 A 
ATOM      8  N   UNL     1       0.520  10.050  21.092  0.00  0.00    +0.000 N 
ATOM      9  C   UNL     1       0.942  11.252  20.517  0.00  0.00    +0.000 A 
ATOM     10  C   UNL     1       0.458  12.435  20.952  0.00  0.00    +0.000 A 
ENDROOT
BRANCH   7  11
ATOM     11  C   UNL     1       1.707   8.228  19.713  0.00  0.00    +0.000 A 
ATOM     12  C   UNL     1       1.937   8.940  18.535  0.00  0.00    +0.000 A 
ATOM     13  N   UNL     1       2.762   8.546  17.536  0.00  0.00    +0.000 NA
ATOM     14  C   UNL     1       3.376   7.354  17.696  0.00  0.00    +0.000 A 
ATOM     15 CL   UNL     1       4.439   6.963  16.407  0.00  0.00    +0.000 Cl
ATOM     16  C   UNL     1       3.224   6.541  18.819  0.00  0.00    +0.000 A 
ATOM     17  C   UNL     1       2.348   6.982  19.820  0.00  0.00    +0.000 A 
BRANCH  16  18
ATOM     18  N   UNL     1       3.887   5.267  18.990  0.00  0.00    +0.000 N 
ATOM     19  H   UNL     1       4.751   5.217  18.440  0.00  0.00    +0.000 HD
BRANCH  18  20
ATOM     20  S   UNL     1       2.986   3.924  18.495  0.00  0.00    +0.000 S 
ATOM     21  O   UNL     1       1.918   4.353  17.619  0.00  0.00    +0.000 OA
ATOM     22  O   UNL     1       3.924   2.901  18.115  0.00  0.00    +0.000 OA
BRANCH  20  23
ATOM     23  N   UNL     1       2.294   3.474  19.977  0.00  0.00    +0.000 NA
ATOM     24  C   UNL     1       0.894   2.997  19.898  0.00  0.00    +0.000 C 
ATOM     25  C   UNL     1       3.135   2.502  20.724  0.00  0.00    +0.000 C 
ENDBRANCH  20  23
ENDBRANCH  18  20
ENDBRANCH  16  18
ENDBRANCH   7  11
BRANCH  10  26
ATOM     26  C   UNL     1       0.922  13.636  20.228  0.00  0.00    +0.000 A 
ATOM     27  C   UNL     1       2.207  14.137  20.447  0.00  0.00    +0.000 A 
ATOM     28  C   UNL     1       2.573  15.310  19.806  0.00  0.00    +0.000 A 
ATOM     29  N   UNL     1       1.763  15.992  18.970  0.00  0.00    +0.000 NA
ATOM     30  C   UNL     1       0.532  15.479  18.762  0.00  0.00    +0.000 A 
ATOM     31  C   UNL     1       0.068  14.318  19.360  0.00  0.00    +0.000 A 
ENDBRANCH  10  26
TORSDOF 5
ENDMDL
MODEL 9
REMARK VINA RESULT:      -7.7      2.239      2.838
REMARK  Name = 
REMARK  8 active torsions:
REMARK  status: ('A' for Active; 'I' for Inactive)
REMARK    1  A    between atoms: C_1  and  C_2
REMARK    2  A    between atoms: C_7  and  C_8
REMARK    3  A    between atoms: C_13  and  N_14
REMARK    4  A    between atoms: N_14  and  S_15
REMARK    5  A    between atoms: S_15  and  N_18
REMARK    6  A    between atoms: N_18  and  C_19
REMARK    7  A    between atoms: N_18  and  C_20
REMARK    8  A    between atoms: C_24  and  C_25
REMARK                            x       y       z     vdW  Elec       q    Type
REMARK                         _______ _______ _______ _____ _____    ______ ____
ROOT
ATOM      1  C   UNL     1      -2.089  12.803  19.981  0.00  0.00    +0.000 C 
ATOM      2  C   UNL     1      -1.198  11.614  20.205  0.00  0.00    +0.000 A 
ATOM      3  C   UNL     1      -0.373  11.549  21.273  0.00  0.00    +0.000 A 
ATOM      4  C   UNL     1       0.453  10.410  21.491  0.00  0.00    +0.000 A 
ATOM      5  N   UNL     1       1.305  10.150  22.456  0.00  0.00    +0.000 NA
ATOM      6  C   UNL     1       1.797   8.907  22.170  0.00  0.00    +0.000 A 
ATOM      7  C   UNL     1       1.253   8.374  21.010  0.00  0.00    +0.000 A 
ATOM      8  N   UNL     1       0.389   9.376  20.560  0.00  0.00    +0.000 N 
ATOM      9  C   UNL     1      -0.430   9.451  19.429  0.00  0.00    +0.000 A 
ATOM     10  C   UNL     1      -1.237  10.514  19.227  0.00  0.00    +0.000 A 
ENDROOT
BRANCH   7  11
ATOM     11  C   UNL     1       1.521   7.071  20.381  0.00  0.00    +0.000 A 
ATOM     12  C   UNL     1       0.944   5.882  20.826  0.00  0.00    +0.000 A 
ATOM     13  N   UNL     1       1.132   4.665  20.262  0.00  0.00    +0.000 NA
ATOM     14  C   UNL     1       1.972   4.615  19.207  0.00  0.00    +0.000 A 
ATOM     15 CL   UNL     1       2.108   3.045  18.526  0.00  0.00    +0.000 Cl
ATOM     16  C   UNL     1       2.621   5.727  18.669  0.00  0.00    +0.000 A 
ATOM     17  C   UNL     1       2.409   6.961  19.297  0.00  0.00    +0.000 A 
BRANCH  16  18
ATOM     18  N   UNL     1       3.518   5.670  17.536  0.00  0.00    +0.000 N 
ATOM     19  H   UNL     1       3.143   5.073  16.790  0.00  0.00    +0.000 HD
BRANCH  18  20
ATOM     20  S   UNL     1       5.046   5.027  17.868  0.00  0.00    +0.000 S 
ATOM     21  O   UNL     1       5.493   5.486  19.166  0.00  0.00    +0.000 OA
ATOM     22  O   UNL     1       5.004   3.631  17.522  0.00  0.00    +0.000 OA
BRANCH  20  23
ATOM     23  N   UNL     1       5.964   5.831  16.690  0.00  0.00    +0.000 NA
ATOM     24  C   UNL     1       6.872   4.966  15.902  0.00  0.00    +0.000 C 
ATOM     25  C   UNL     1       5.125   6.664  15.788  0.00  0.00    +0.000 C 
ENDBRANCH  20  23
ENDBRANCH  18  20
ENDBRANCH  16  18
ENDBRANCH   7  11
BRANCH  10  26
ATOM     26  C   UNL     1      -2.106  10.456  18.035  0.00  0.00    +0.000 A 
ATOM     27  C   UNL     1      -1.635   9.896  16.847  0.00  0.00    +0.000 A 
ATOM     28  C   UNL     1      -2.456   9.932  15.731  0.00  0.00    +0.000 A 
ATOM     29  N   UNL     1      -3.694  10.469  15.729  0.00  0.00    +0.000 NA
ATOM     30  C   UNL     1      -4.134  10.990  16.893  0.00  0.00    +0.000 A 
ATOM     31  C   UNL     1      -3.387  11.009  18.061  0.00  0.00    +0.000 A 
ENDBRANCH  10  26
TORSDOF 5
ENDMDL
