MODEL 1
REMARK VINA RESULT:      -6.3      0.000      0.000
REMARK  Name = 
REMARK  14 active torsions:
REMARK  status: ('A' for Active; 'I' for Inactive)
REMARK    1  A    between atoms: C_1  and  O_2
REMARK    2  A    between atoms: O_2  and  C_3
REMARK    3  A    between atoms: C_5  and  N_6
REMARK    4  A    between atoms: N_6  and  C_7
REMARK    5  A    between atoms: C_7  and  C_8
REMARK    6  A    between atoms: C_8  and  C_9
REMARK    7  A    between atoms: C_9  and  C_10
REMARK    8  A    between atoms: C_10  and  C_11
REMARK    9  A    between atoms: C_11  and  C_12
REMARK   10  A    between atoms: C_12  and  N_13
REMARK   11  A    between atoms: N_13  and  C_14
REMARK   12  A    between atoms: C_14  and  C_15
REMARK   13  A    between atoms: C_15  and  O_16
REMARK   14  A    between atoms: C_21  and  C_22
REMARK                            x       y       z     vdW  Elec       q    Type
REMARK                         _______ _______ _______ _____ _____    ______ ____
ROOT
ATOM      1  N   UNL     1       4.526   6.418  17.042  0.00  0.00    +0.000 N 
ATOM      2  H   UNL     1       4.929   5.569  16.656  0.00  0.00    +0.000 HD
ENDROOT
BRANCH   1   5
ATOM      3  C   UNL     1       2.106   7.093  19.750  0.00  0.00    +0.000 A 
ATOM      4  C   UNL     1       2.966   7.222  18.667  0.00  0.00    +0.000 A 
ATOM      5  C   UNL     1       3.587   6.105  18.078  0.00  0.00    +0.000 A 
ATOM      6  C   UNL     1       3.331   4.799  18.603  0.00  0.00    +0.000 A 
ATOM      7  N   UNL     1       3.879   3.685  18.055  0.00  0.00    +0.000 NA
ATOM      8  C   UNL     1       3.618   2.466  18.559  0.00  0.00    +0.000 A 
ATOM      9  C   UNL     1       2.802   2.260  19.639  0.00  0.00    +0.000 A 
ATOM     10  C   UNL     1       2.207   3.370  20.237  0.00  0.00    +0.000 A 
ATOM     11  C   UNL     1       1.321   3.138  21.431  0.00  0.00    +0.000 C 
ATOM     12  C   UNL     1       2.460   4.670  19.713  0.00  0.00    +0.000 A 
ATOM     13  C   UNL     1       1.864   5.826  20.268  0.00  0.00    +0.000 A 
BRANCH   3  15
ATOM     14  C   UNL     1       1.177   8.302  21.576  0.00  0.00    +0.000 C 
ATOM     15  O   UNL     1       1.573   8.265  20.210  0.00  0.00    +0.000 OA
ENDBRANCH   3  15
ENDBRANCH   1   5
BRANCH   1  16
ATOM     16  C   UNL     1       5.514   7.445  17.339  0.00  0.00    +0.000 C 
BRANCH  16  17
ATOM     17  C   UNL     1       6.946   6.966  17.116  0.00  0.00    +0.000 C 
BRANCH  17  18
ATOM     18  C   UNL     1       7.276   5.785  18.046  0.00  0.00    +0.000 C 
BRANCH  18  19
ATOM     19  C   UNL     1       7.489   4.477  17.279  0.00  0.00    +0.000 C 
BRANCH  19  20
ATOM     20  C   UNL     1       7.256   4.625  15.777  0.00  0.00    +0.000 C 
BRANCH  20  21
ATOM     21  C   UNL     1       6.037   3.797  15.362  0.00  0.00    +0.000 C 
BRANCH  21  22
ATOM     22  N   UNL     1       5.535   4.262  14.069  0.00  0.00    +0.000 NA
ATOM     23  H   UNL     1       5.618   5.278  14.048  0.00  0.00    +0.000 HD
BRANCH  22  24
ATOM     24  C   UNL     1       6.351   3.704  12.978  0.00  0.00    +0.000 C 
BRANCH  24  25
ATOM     25  C   UNL     1       5.476   2.928  11.989  0.00  0.00    +0.000 C 
BRANCH  25  26
ATOM     26  O   UNL     1       6.139   1.740  11.562  0.00  0.00    +0.000 OA
ATOM     27  H   UNL     1       5.852   1.045  12.181  0.00  0.00    +0.000 HD
ENDBRANCH  25  26
ENDBRANCH  24  25
ENDBRANCH  22  24
ENDBRANCH  21  22
ENDBRANCH  20  21
ENDBRANCH  19  20
ENDBRANCH  18  19
ENDBRANCH  17  18
ENDBRANCH  16  17
ENDBRANCH   1  16
TORSDOF 12
ENDMDL
MODEL 2
REMARK VINA RESULT:      -6.1      4.624      6.704
REMARK  Name = 
REMARK  14 active torsions:
REMARK  status: ('A' for Active; 'I' for Inactive)
REMARK    1  A    between atoms: C_1  and  O_2
REMARK    2  A    between atoms: O_2  and  C_3
REMARK    3  A    between atoms: C_5  and  N_6
REMARK    4  A    between atoms: N_6  and  C_7
REMARK    5  A    between atoms: C_7  and  C_8
REMARK    6  A    between atoms: C_8  and  C_9
REMARK    7  A    between atoms: C_9  and  C_10
REMARK    8  A    between atoms: C_10  and  C_11
REMARK    9  A    between atoms: C_11  and  C_12
REMARK   10  A    between atoms: C_12  and  N_13
REMARK   11  A    between atoms: N_13  and  C_14
REMARK   12  A    between atoms: C_14  and  C_15
REMARK   13  A    between atoms: C_15  and  O_16
REMARK   14  A    between atoms: C_21  and  C_22
REMARK                            x       y       z     vdW  Elec       q    Type
REMARK                         _______ _______ _______ _____ _____    ______ ____
ROOT
ATOM      1  N   UNL     1       6.642   5.724  17.990  0.00  0.00    +0.000 N 
ATOM      2  H   UNL     1       7.132   5.451  18.837  0.00  0.00    +0.000 HD
ENDROOT
BRANCH   1   5
ATOM      3  C   UNL     1       3.186   7.029  17.965  0.00  0.00    +0.000 A 
ATOM      4  C   UNL     1       4.546   6.851  17.748  0.00  0.00    +0.000 A 
ATOM      5  C   UNL     1       5.225   5.703  18.200  0.00  0.00    +0.000 A 
ATOM      6  C   UNL     1       4.501   4.689  18.902  0.00  0.00    +0.000 A 
ATOM      7  N   UNL     1       5.099   3.549  19.333  0.00  0.00    +0.000 NA
ATOM      8  C   UNL     1       4.398   2.604  19.984  0.00  0.00    +0.000 A 
ATOM      9  C   UNL     1       3.061   2.717  20.259  0.00  0.00    +0.000 A 
ATOM     10  C   UNL     1       2.396   3.866  19.833  0.00  0.00    +0.000 A 
ATOM     11  C   UNL     1       0.929   3.990  20.148  0.00  0.00    +0.000 C 
ATOM     12  C   UNL     1       3.115   4.876  19.131  0.00  0.00    +0.000 A 
ATOM     13  C   UNL     1       2.484   6.048  18.657  0.00  0.00    +0.000 A 
BRANCH   3  15
ATOM     14  C   UNL     1       1.738   8.889  18.286  0.00  0.00    +0.000 C 
ATOM     15  O   UNL     1       2.665   8.188  17.464  0.00  0.00    +0.000 OA
ENDBRANCH   3  15
ENDBRANCH   1   5
BRANCH   1  16
ATOM     16  C   UNL     1       7.196   6.912  17.356  0.00  0.00    +0.000 C 
BRANCH  16  17
ATOM     17  C   UNL     1       8.171   7.661  18.261  0.00  0.00    +0.000 C 
BRANCH  17  18
ATOM     18  C   UNL     1       8.149   9.169  17.953  0.00  0.00    +0.000 C 
BRANCH  18  19
ATOM     19  C   UNL     1       8.983   9.982  18.948  0.00  0.00    +0.000 C 
BRANCH  19  20
ATOM     20  C   UNL     1       9.805  11.079  18.276  0.00  0.00    +0.000 C 
BRANCH  20  21
ATOM     21  C   UNL     1      11.022  11.414  19.143  0.00  0.00    +0.000 C 
BRANCH  21  22
ATOM     22  N   UNL     1      10.693  12.496  20.069  0.00  0.00    +0.000 NA
ATOM     23  H   UNL     1      11.197  12.328  20.940  0.00  0.00    +0.000 HD
BRANCH  22  24
ATOM     24  C   UNL     1      11.132  13.788  19.517  0.00  0.00    +0.000 C 
BRANCH  24  25
ATOM     25  C   UNL     1      10.247  14.927  20.030  0.00  0.00    +0.000 C 
BRANCH  25  26
ATOM     26  O   UNL     1      10.698  16.179  19.520  0.00  0.00    +0.000 OA
ATOM     27  H   UNL     1      10.638  16.801  20.266  0.00  0.00    +0.000 HD
ENDBRANCH  25  26
ENDBRANCH  24  25
ENDBRANCH  22  24
ENDBRANCH  21  22
ENDBRANCH  20  21
ENDBRANCH  19  20
ENDBRANCH  18  19
ENDBRANCH  17  18
ENDBRANCH  16  17
ENDBRANCH   1  16
TORSDOF 12
ENDMDL
MODEL 3
REMARK VINA RESULT:      -6.1      3.910      5.751
REMARK  Name = 
REMARK  14 active torsions:
REMARK  status: ('A' for Active; 'I' for Inactive)
REMARK    1  A    between atoms: C_1  and  O_2
REMARK    2  A    between atoms: O_2  and  C_3
REMARK    3  A    between atoms: C_5  and  N_6
REMARK    4  A    between atoms: N_6  and  C_7
REMARK    5  A    between atoms: C_7  and  C_8
REMARK    6  A    between atoms: C_8  and  C_9
REMARK    7  A    between atoms: C_9  and  C_10
REMARK    8  A    between atoms: C_10  and  C_11
REMARK    9  A    between atoms: C_11  and  C_12
REMARK   10  A    between atoms: C_12  and  N_13
REMARK   11  A    between atoms: N_13  and  C_14
REMARK   12  A    between atoms: C_14  and  C_15
REMARK   13  A    between atoms: C_15  and  O_16
REMARK   14  A    between atoms: C_21  and  C_22
REMARK                            x       y       z     vdW  Elec       q    Type
REMARK                         _______ _______ _______ _____ _____    ______ ____
ROOT
ATOM      1  N   UNL     1       6.326   5.679  16.920  0.00  0.00    +0.000 N 
ATOM      2  H   UNL     1       6.309   5.009  16.157  0.00  0.00    +0.000 HD
ENDROOT
BRANCH   1   5
ATOM      3  C   UNL     1       3.134   7.332  17.772  0.00  0.00    +0.000 A 
ATOM      4  C   UNL     1       4.360   7.012  17.203  0.00  0.00    +0.000 A 
ATOM      5  C   UNL     1       5.025   5.808  17.505  0.00  0.00    +0.000 A 
ATOM      6  C   UNL     1       4.428   4.886  18.421  0.00  0.00    +0.000 A 
ATOM      7  N   UNL     1       5.011   3.698  18.725  0.00  0.00    +0.000 NA
ATOM      8  C   UNL     1       4.428   2.841  19.582  0.00  0.00    +0.000 A 
ATOM      9  C   UNL     1       3.235   3.096  20.202  0.00  0.00    +0.000 A 
ATOM     10  C   UNL     1       2.590   4.299  19.921  0.00  0.00    +0.000 A 
ATOM     11  C   UNL     1       1.284   4.580  20.616  0.00  0.00    +0.000 C 
ATOM     12  C   UNL     1       3.182   5.218  19.008  0.00  0.00    +0.000 A 
ATOM     13  C   UNL     1       2.559   6.441  18.670  0.00  0.00    +0.000 A 
BRANCH   3  15
ATOM     14  C   UNL     1       1.768   9.204  18.310  0.00  0.00    +0.000 C 
ATOM     15  O   UNL     1       2.608   8.530  17.379  0.00  0.00    +0.000 OA
ENDBRANCH   3  15
ENDBRANCH   1   5
BRANCH   1  16
ATOM     16  C   UNL     1       7.443   5.490  17.834  0.00  0.00    +0.000 C 
BRANCH  16  17
ATOM     17  C   UNL     1       7.888   6.792  18.495  0.00  0.00    +0.000 C 
BRANCH  17  18
ATOM     18  C   UNL     1       8.091   7.896  17.442  0.00  0.00    +0.000 C 
BRANCH  18  19
ATOM     19  C   UNL     1       7.756   9.289  17.982  0.00  0.00    +0.000 C 
BRANCH  19  20
ATOM     20  C   UNL     1       8.977  10.201  18.071  0.00  0.00    +0.000 C 
BRANCH  20  21
ATOM     21  C   UNL     1       9.361  10.404  19.540  0.00  0.00    +0.000 C 
BRANCH  21  22
ATOM     22  N   UNL     1      10.158  11.622  19.683  0.00  0.00    +0.000 NA
ATOM     23  H   UNL     1      10.339  11.763  20.677  0.00  0.00    +0.000 HD
BRANCH  22  24
ATOM     24  C   UNL     1      11.448  11.469  18.990  0.00  0.00    +0.000 C 
BRANCH  24  25
ATOM     25  C   UNL     1      11.820  12.755  18.246  0.00  0.00    +0.000 C 
BRANCH  25  26
ATOM     26  O   UNL     1      10.749  13.171  17.402  0.00  0.00    +0.000 OA
ATOM     27  H   UNL     1      11.072  13.048  16.492  0.00  0.00    +0.000 HD
ENDBRANCH  25  26
ENDBRANCH  24  25
ENDBRANCH  22  24
ENDBRANCH  21  22
ENDBRANCH  20  21
ENDBRANCH  19  20
ENDBRANCH  18  19
ENDBRANCH  17  18
ENDBRANCH  16  17
ENDBRANCH   1  16
TORSDOF 12
ENDMDL
MODEL 4
REMARK VINA RESULT:      -6.1      4.229      5.940
REMARK  Name = 
REMARK  14 active torsions:
REMARK  status: ('A' for Active; 'I' for Inactive)
REMARK    1  A    between atoms: C_1  and  O_2
REMARK    2  A    between atoms: O_2  and  C_3
REMARK    3  A    between atoms: C_5  and  N_6
REMARK    4  A    between atoms: N_6  and  C_7
REMARK    5  A    between atoms: C_7  and  C_8
REMARK    6  A    between atoms: C_8  and  C_9
REMARK    7  A    between atoms: C_9  and  C_10
REMARK    8  A    between atoms: C_10  and  C_11
REMARK    9  A    between atoms: C_11  and  C_12
REMARK   10  A    between atoms: C_12  and  N_13
REMARK   11  A    between atoms: N_13  and  C_14
REMARK   12  A    between atoms: C_14  and  C_15
REMARK   13  A    between atoms: C_15  and  O_16
REMARK   14  A    between atoms: C_21  and  C_22
REMARK                            x       y       z     vdW  Elec       q    Type
REMARK                         _______ _______ _______ _____ _____    ______ ____
ROOT
ATOM      1  N   UNL     1       5.806   6.798  16.374  0.00  0.00    +0.000 N 
ATOM      2  H   UNL     1       5.720   6.660  15.371  0.00  0.00    +0.000 HD
ENDROOT
BRANCH   1   5
ATOM      3  C   UNL     1       2.714   7.379  18.310  0.00  0.00    +0.000 A 
ATOM      4  C   UNL     1       3.868   7.551  17.556  0.00  0.00    +0.000 A 
ATOM      5  C   UNL     1       4.582   6.455  17.035  0.00  0.00    +0.000 A 
ATOM      6  C   UNL     1       4.113   5.127  17.284  0.00  0.00    +0.000 A 
ATOM      7  N   UNL     1       4.745   4.037  16.780  0.00  0.00    +0.000 NA
ATOM      8  C   UNL     1       4.283   2.797  17.020  0.00  0.00    +0.000 A 
ATOM      9  C   UNL     1       3.168   2.545  17.774  0.00  0.00    +0.000 A 
ATOM     10  C   UNL     1       2.476   3.630  18.310  0.00  0.00    +0.000 A 
ATOM     11  C   UNL     1       1.258   3.345  19.148  0.00  0.00    +0.000 C 
ATOM     12  C   UNL     1       2.941   4.953  18.061  0.00  0.00    +0.000 A 
ATOM     13  C   UNL     1       2.263   6.088  18.562  0.00  0.00    +0.000 A 
BRANCH   3  15
ATOM     14  C   UNL     1       2.031   9.601  17.805  0.00  0.00    +0.000 C 
ATOM     15  O   UNL     1       2.126   8.534  18.743  0.00  0.00    +0.000 OA
ENDBRANCH   3  15
ENDBRANCH   1   5
BRANCH   1  16
ATOM     16  C   UNL     1       7.032   6.249  16.933  0.00  0.00    +0.000 C 
BRANCH  16  17
ATOM     17  C   UNL     1       7.624   7.130  18.030  0.00  0.00    +0.000 C 
BRANCH  17  18
ATOM     18  C   UNL     1       7.956   8.530  17.484  0.00  0.00    +0.000 C 
BRANCH  18  19
ATOM     19  C   UNL     1       8.572   9.443  18.547  0.00  0.00    +0.000 C 
BRANCH  19  20
ATOM     20  C   UNL     1       9.448  10.543  17.951  0.00  0.00    +0.000 C 
BRANCH  20  21
ATOM     21  C   UNL     1       9.211  11.855  18.705  0.00  0.00    +0.000 C 
BRANCH  21  22
ATOM     22  N   UNL     1      10.462  12.319  19.303  0.00  0.00    +0.000 NA
ATOM     23  H   UNL     1      10.885  11.533  19.795  0.00  0.00    +0.000 HD
BRANCH  22  24
ATOM     24  C   UNL     1      11.392  12.766  18.252  0.00  0.00    +0.000 C 
BRANCH  24  25
ATOM     25  C   UNL     1      10.789  13.924  17.452  0.00  0.00    +0.000 C 
BRANCH  25  26
ATOM     26  O   UNL     1      11.064  13.767  16.062  0.00  0.00    +0.000 OA
ATOM     27  H   UNL     1      11.187  14.668  15.717  0.00  0.00    +0.000 HD
ENDBRANCH  25  26
ENDBRANCH  24  25
ENDBRANCH  22  24
ENDBRANCH  21  22
ENDBRANCH  20  21
ENDBRANCH  19  20
ENDBRANCH  18  19
ENDBRANCH  17  18
ENDBRANCH  16  17
ENDBRANCH   1  16
TORSDOF 12
ENDMDL
MODEL 5
REMARK VINA RESULT:      -6.1      3.763      7.606
REMARK  Name = 
REMARK  14 active torsions:
REMARK  status: ('A' for Active; 'I' for Inactive)
REMARK    1  A    between atoms: C_1  and  O_2
REMARK    2  A    between atoms: O_2  and  C_3
REMARK    3  A    between atoms: C_5  and  N_6
REMARK    4  A    between atoms: N_6  and  C_7
REMARK    5  A    between atoms: C_7  and  C_8
REMARK    6  A    between atoms: C_8  and  C_9
REMARK    7  A    between atoms: C_9  and  C_10
REMARK    8  A    between atoms: C_10  and  C_11
REMARK    9  A    between atoms: C_11  and  C_12
REMARK   10  A    between atoms: C_12  and  N_13
REMARK   11  A    between atoms: N_13  and  C_14
REMARK   12  A    between atoms: C_14  and  C_15
REMARK   13  A    between atoms: C_15  and  O_16
REMARK   14  A    between atoms: C_21  and  C_22
REMARK                            x       y       z     vdW  Elec       q    Type
REMARK                         _______ _______ _______ _____ _____    ______ ____
ROOT
ATOM      1  N   UNL     1       3.025   6.387  20.009  0.00  0.00    +0.000 N 
ATOM      2  H   UNL     1       2.856   5.819  20.835  0.00  0.00    +0.000 HD
ENDROOT
BRANCH   1   5
ATOM      3  C   UNL     1       2.518   3.552  17.696  0.00  0.00    +0.000 A 
ATOM      4  C   UNL     1       2.357   4.504  18.694  0.00  0.00    +0.000 A 
ATOM      5  C   UNL     1       3.277   5.555  18.870  0.00  0.00    +0.000 A 
ATOM      6  C   UNL     1       4.410   5.651  18.003  0.00  0.00    +0.000 A 
ATOM      7  N   UNL     1       5.311   6.660  18.108  0.00  0.00    +0.000 NA
ATOM      8  C   UNL     1       6.365   6.737  17.277  0.00  0.00    +0.000 A 
ATOM      9  C   UNL     1       6.606   5.823  16.286  0.00  0.00    +0.000 A 
ATOM     10  C   UNL     1       5.708   4.769  16.129  0.00  0.00    +0.000 A 
ATOM     11  C   UNL     1       5.985   3.761  15.045  0.00  0.00    +0.000 C 
ATOM     12  C   UNL     1       4.578   4.673  16.991  0.00  0.00    +0.000 A 
ATOM     13  C   UNL     1       3.625   3.638  16.859  0.00  0.00    +0.000 A 
BRANCH   3  15
ATOM     14  C   UNL     1       0.843   2.319  18.851  0.00  0.00    +0.000 C 
ATOM     15  O   UNL     1       1.542   2.596  17.643  0.00  0.00    +0.000 OA
ENDBRANCH   3  15
ENDBRANCH   1   5
BRANCH   1  16
ATOM     16  C   UNL     1       2.060   7.463  19.837  0.00  0.00    +0.000 C 
BRANCH  16  17
ATOM     17  C   UNL     1       1.337   7.818  21.134  0.00  0.00    +0.000 C 
BRANCH  17  18
ATOM     18  C   UNL     1       0.549   9.131  20.976  0.00  0.00    +0.000 C 
BRANCH  18  19
ATOM     19  C   UNL     1       0.850   9.839  19.653  0.00  0.00    +0.000 C 
BRANCH  19  20
ATOM     20  C   UNL     1      -0.308  10.706  19.166  0.00  0.00    +0.000 C 
BRANCH  20  21
ATOM     21  C   UNL     1      -0.948  10.065  17.931  0.00  0.00    +0.000 C 
BRANCH  21  22
ATOM     22  N   UNL     1      -1.559  11.097  17.094  0.00  0.00    +0.000 NA
ATOM     23  H   UNL     1      -1.664  10.715  16.154  0.00  0.00    +0.000 HD
BRANCH  22  24
ATOM     24  C   UNL     1      -2.894  11.443  17.608  0.00  0.00    +0.000 C 
BRANCH  24  25
ATOM     25  C   UNL     1      -3.963  11.220  16.535  0.00  0.00    +0.000 C 
BRANCH  25  26
ATOM     26  O   UNL     1      -3.470  11.598  15.252  0.00  0.00    +0.000 OA
ATOM     27  H   UNL     1      -4.251  11.628  14.672  0.00  0.00    +0.000 HD
ENDBRANCH  25  26
ENDBRANCH  24  25
ENDBRANCH  22  24
ENDBRANCH  21  22
ENDBRANCH  20  21
ENDBRANCH  19  20
ENDBRANCH  18  19
ENDBRANCH  17  18
ENDBRANCH  16  17
ENDBRANCH   1  16
TORSDOF 12
ENDMDL
MODEL 6
REMARK VINA RESULT:      -6.1      3.429      5.284
REMARK  Name = 
REMARK  14 active torsions:
REMARK  status: ('A' for Active; 'I' for Inactive)
REMARK    1  A    between atoms: C_1  and  O_2
REMARK    2  A    between atoms: O_2  and  C_3
REMARK    3  A    between atoms: C_5  and  N_6
REMARK    4  A    between atoms: N_6  and  C_7
REMARK    5  A    between atoms: C_7  and  C_8
REMARK    6  A    between atoms: C_8  and  C_9
REMARK    7  A    between atoms: C_9  and  C_10
REMARK    8  A    between atoms: C_10  and  C_11
REMARK    9  A    between atoms: C_11  and  C_12
REMARK   10  A    between atoms: C_12  and  N_13
REMARK   11  A    between atoms: N_13  and  C_14
REMARK   12  A    between atoms: C_14  and  C_15
REMARK   13  A    between atoms: C_15  and  O_16
REMARK   14  A    between atoms: C_21  and  C_22
REMARK                            x       y       z     vdW  Elec       q    Type
REMARK                         _______ _______ _______ _____ _____    ______ ____
ROOT
ATOM      1  N   UNL     1       4.552   5.989  16.572  0.00  0.00    +0.000 N 
ATOM      2  H   UNL     1       4.824   5.116  16.130  0.00  0.00    +0.000 HD
ENDROOT
BRANCH   1   5
ATOM      3  C   UNL     1       2.377   6.832  19.437  0.00  0.00    +0.000 A 
ATOM      4  C   UNL     1       3.185   6.903  18.309  0.00  0.00    +0.000 A 
ATOM      5  C   UNL     1       3.644   5.745  17.653  0.00  0.00    +0.000 A 
ATOM      6  C   UNL     1       3.274   4.458  18.155  0.00  0.00    +0.000 A 
ATOM      7  N   UNL     1       3.663   3.310  17.545  0.00  0.00    +0.000 NA
ATOM      8  C   UNL     1       3.297   2.110  18.030  0.00  0.00    +0.000 A 
ATOM      9  C   UNL     1       2.525   1.958  19.150  0.00  0.00    +0.000 A 
ATOM     10  C   UNL     1       2.092   3.105  19.813  0.00  0.00    +0.000 A 
ATOM     11  C   UNL     1       1.253   2.931  21.051  0.00  0.00    +0.000 C 
ATOM     12  C   UNL     1       2.458   4.387  19.312  0.00  0.00    +0.000 A 
ATOM     13  C   UNL     1       2.026   5.582  19.933  0.00  0.00    +0.000 A 
BRANCH   3  15
ATOM     14  C   UNL     1       1.246   8.014  21.164  0.00  0.00    +0.000 C 
ATOM     15  O   UNL     1       2.005   8.038  19.960  0.00  0.00    +0.000 OA
ENDBRANCH   3  15
ENDBRANCH   1   5
BRANCH   1  16
ATOM     16  C   UNL     1       5.674   6.876  16.844  0.00  0.00    +0.000 C 
BRANCH  16  17
ATOM     17  C   UNL     1       6.900   6.130  17.365  0.00  0.00    +0.000 C 
BRANCH  17  18
ATOM     18  C   UNL     1       7.775   7.058  18.227  0.00  0.00    +0.000 C 
BRANCH  18  19
ATOM     19  C   UNL     1       8.308   8.259  17.441  0.00  0.00    +0.000 C 
BRANCH  19  20
ATOM     20  C   UNL     1       7.914   9.597  18.062  0.00  0.00    +0.000 C 
BRANCH  20  21
ATOM     21  C   UNL     1       9.091  10.157  18.866  0.00  0.00    +0.000 C 
BRANCH  21  22
ATOM     22  N   UNL     1       9.918  11.008  18.011  0.00  0.00    +0.000 NA
ATOM     23  H   UNL     1       9.306  11.458  17.330  0.00  0.00    +0.000 HD
BRANCH  22  24
ATOM     24  C   UNL     1      10.570  12.055  18.816  0.00  0.00    +0.000 C 
BRANCH  24  25
ATOM     25  C   UNL     1       9.969  13.429  18.508  0.00  0.00    +0.000 C 
BRANCH  25  26
ATOM     26  O   UNL     1       9.465  13.467  17.175  0.00  0.00    +0.000 OA
ATOM     27  H   UNL     1      10.200  13.169  16.610  0.00  0.00    +0.000 HD
ENDBRANCH  25  26
ENDBRANCH  24  25
ENDBRANCH  22  24
ENDBRANCH  21  22
ENDBRANCH  20  21
ENDBRANCH  19  20
ENDBRANCH  18  19
ENDBRANCH  17  18
ENDBRANCH  16  17
ENDBRANCH   1  16
TORSDOF 12
ENDMDL
MODEL 7
REMARK VINA RESULT:      -6.0      4.142      6.143
REMARK  Name = 
REMARK  14 active torsions:
REMARK  status: ('A' for Active; 'I' for Inactive)
REMARK    1  A    between atoms: C_1  and  O_2
REMARK    2  A    between atoms: O_2  and  C_3
REMARK    3  A    between atoms: C_5  and  N_6
REMARK    4  A    between atoms: N_6  and  C_7
REMARK    5  A    between atoms: C_7  and  C_8
REMARK    6  A    between atoms: C_8  and  C_9
REMARK    7  A    between atoms: C_9  and  C_10
REMARK    8  A    between atoms: C_10  and  C_11
REMARK    9  A    between atoms: C_11  and  C_12
REMARK   10  A    between atoms: C_12  and  N_13
REMARK   11  A    between atoms: N_13  and  C_14
REMARK   12  A    between atoms: C_14  and  C_15
REMARK   13  A    between atoms: C_15  and  O_16
REMARK   14  A    between atoms: C_21  and  C_22
REMARK                            x       y       z     vdW  Elec       q    Type
REMARK                         _______ _______ _______ _____ _____    ______ ____
ROOT
ATOM      1  N   UNL     1       5.109   5.488  16.393  0.00  0.00    +0.000 N 
ATOM      2  H   UNL     1       5.126   4.669  15.793  0.00  0.00    +0.000 HD
ENDROOT
BRANCH   1   5
ATOM      3  C   UNL     1       2.562   6.725  18.765  0.00  0.00    +0.000 A 
ATOM      4  C   UNL     1       3.536   6.640  17.778  0.00  0.00    +0.000 A 
ATOM      5  C   UNL     1       4.035   5.399  17.337  0.00  0.00    +0.000 A 
ATOM      6  C   UNL     1       3.531   4.192  17.914  0.00  0.00    +0.000 A 
ATOM      7  N   UNL     1       3.954   2.969  17.505  0.00  0.00    +0.000 NA
ATOM      8  C   UNL     1       3.461   1.846  18.056  0.00  0.00    +0.000 A 
ATOM      9  C   UNL     1       2.520   1.849  19.050  0.00  0.00    +0.000 A 
ATOM     10  C   UNL     1       2.045   3.079  19.504  0.00  0.00    +0.000 A 
ATOM     11  C   UNL     1       1.019   3.076  20.606  0.00  0.00    +0.000 C 
ATOM     12  C   UNL     1       2.544   4.282  18.928  0.00  0.00    +0.000 A 
ATOM     13  C   UNL     1       2.079   5.553  19.335  0.00  0.00    +0.000 A 
BRANCH   3  15
ATOM     14  C   UNL     1       2.088   8.934  18.019  0.00  0.00    +0.000 C 
ATOM     15  O   UNL     1       2.171   7.995  19.086  0.00  0.00    +0.000 OA
ENDBRANCH   3  15
ENDBRANCH   1   5
BRANCH   1  16
ATOM     16  C   UNL     1       6.417   5.850  16.918  0.00  0.00    +0.000 C 
BRANCH  16  17
ATOM     17  C   UNL     1       6.594   7.359  17.070  0.00  0.00    +0.000 C 
BRANCH  17  18
ATOM     18  C   UNL     1       7.883   7.681  17.846  0.00  0.00    +0.000 C 
BRANCH  18  19
ATOM     19  C   UNL     1       8.200   9.178  17.861  0.00  0.00    +0.000 C 
BRANCH  19  20
ATOM     20  C   UNL     1       9.111   9.582  19.018  0.00  0.00    +0.000 C 
BRANCH  20  21
ATOM     21  C   UNL     1       9.692  10.974  18.755  0.00  0.00    +0.000 C 
BRANCH  21  22
ATOM     22  N   UNL     1       9.717  11.747  19.996  0.00  0.00    +0.000 NA
ATOM     23  H   UNL     1       9.487  11.115  20.763  0.00  0.00    +0.000 HD
BRANCH  22  24
ATOM     24  C   UNL     1      11.065  12.291  20.228  0.00  0.00    +0.000 C 
BRANCH  24  25
ATOM     25  C   UNL     1      11.067  13.815  20.087  0.00  0.00    +0.000 C 
BRANCH  25  26
ATOM     26  O   UNL     1      12.329  14.271  19.607  0.00  0.00    +0.000 OA
ATOM     27  H   UNL     1      12.460  15.147  20.011  0.00  0.00    +0.000 HD
ENDBRANCH  25  26
ENDBRANCH  24  25
ENDBRANCH  22  24
ENDBRANCH  21  22
ENDBRANCH  20  21
ENDBRANCH  19  20
ENDBRANCH  18  19
ENDBRANCH  17  18
ENDBRANCH  16  17
ENDBRANCH   1  16
TORSDOF 12
ENDMDL
MODEL 8
REMARK VINA RESULT:      -6.0      4.746      7.441
REMARK  Name = 
REMARK  14 active torsions:
REMARK  status: ('A' for Active; 'I' for Inactive)
REMARK    1  A    between atoms: C_1  and  O_2
REMARK    2  A    between atoms: O_2  and  C_3
REMARK    3  A    between atoms: C_5  and  N_6
REMARK    4  A    between atoms: N_6  and  C_7
REMARK    5  A    between atoms: C_7  and  C_8
REMARK    6  A    between atoms: C_8  and  C_9
REMARK    7  A    between atoms: C_9  and  C_10
REMARK    8  A    between atoms: C_10  and  C_11
REMARK    9  A    between atoms: C_11  and  C_12
REMARK   10  A    between atoms: C_12  and  N_13
REMARK   11  A    between atoms: N_13  and  C_14
REMARK   12  A    between atoms: C_14  and  C_15
REMARK   13  A    between atoms: C_15  and  O_16
REMARK   14  A    between atoms: C_21  and  C_22
REMARK                            x       y       z     vdW  Elec       q    Type
REMARK                         _______ _______ _______ _____ _____    ______ ____
ROOT
ATOM      1  N   UNL     1       7.649   6.438  18.357  0.00  0.00    +0.000 N 
ATOM      2  H   UNL     1       7.488   6.417  19.360  0.00  0.00    +0.000 HD
ENDROOT
BRANCH   1   5
ATOM      3  C   UNL     1       6.279   4.440  15.569  0.00  0.00    +0.000 A 
ATOM      4  C   UNL     1       7.115   5.182  16.393  0.00  0.00    +0.000 A 
ATOM      5  C   UNL     1       6.714   5.590  17.680  0.00  0.00    +0.000 A 
ATOM      6  C   UNL     1       5.414   5.233  18.158  0.00  0.00    +0.000 A 
ATOM      7  N   UNL     1       4.989   5.573  19.401  0.00  0.00    +0.000 NA
ATOM      8  C   UNL     1       3.765   5.221  19.834  0.00  0.00    +0.000 A 
ATOM      9  C   UNL     1       2.875   4.512  19.072  0.00  0.00    +0.000 A 
ATOM     10  C   UNL     1       3.264   4.132  17.788  0.00  0.00    +0.000 A 
ATOM     11  C   UNL     1       2.276   3.363  16.951  0.00  0.00    +0.000 C 
ATOM     12  C   UNL     1       4.559   4.484  17.312  0.00  0.00    +0.000 A 
ATOM     13  C   UNL     1       5.011   4.102  16.028  0.00  0.00    +0.000 A 
BRANCH   3  15
ATOM     14  C   UNL     1       5.886   3.822  13.305  0.00  0.00    +0.000 C 
ATOM     15  O   UNL     1       6.806   4.113  14.351  0.00  0.00    +0.000 OA
ENDBRANCH   3  15
ENDBRANCH   1   5
BRANCH   1  16
ATOM     16  C   UNL     1       7.824   7.781  17.825  0.00  0.00    +0.000 C 
BRANCH  16  17
ATOM     17  C   UNL     1       8.773   8.629  18.668  0.00  0.00    +0.000 C 
BRANCH  17  18
ATOM     18  C   UNL     1       8.667  10.114  18.280  0.00  0.00    +0.000 C 
BRANCH  18  19
ATOM     19  C   UNL     1       9.185  11.046  19.379  0.00  0.00    +0.000 C 
BRANCH  19  20
ATOM     20  C   UNL     1      10.520  11.697  19.024  0.00  0.00    +0.000 C 
BRANCH  20  21
ATOM     21  C   UNL     1      10.672  11.764  17.502  0.00  0.00    +0.000 C 
BRANCH  21  22
ATOM     22  N   UNL     1      10.227  13.068  17.013  0.00  0.00    +0.000 NA
ATOM     23  H   UNL     1       9.528  13.425  17.665  0.00  0.00    +0.000 HD
BRANCH  22  24
ATOM     24  C   UNL     1      11.357  14.010  16.978  0.00  0.00    +0.000 C 
BRANCH  24  25
ATOM     25  C   UNL     1      10.928  15.391  17.482  0.00  0.00    +0.000 C 
BRANCH  25  26
ATOM     26  O   UNL     1       9.596  15.683  17.066  0.00  0.00    +0.000 OA
ATOM     27  H   UNL     1       9.111  14.842  17.137  0.00  0.00    +0.000 HD
ENDBRANCH  25  26
ENDBRANCH  24  25
ENDBRANCH  22  24
ENDBRANCH  21  22
ENDBRANCH  20  21
ENDBRANCH  19  20
ENDBRANCH  18  19
ENDBRANCH  17  18
ENDBRANCH  16  17
ENDBRANCH   1  16
TORSDOF 12
ENDMDL
MODEL 9
REMARK VINA RESULT:      -6.0      4.160      7.316
REMARK  Name = 
REMARK  14 active torsions:
REMARK  status: ('A' for Active; 'I' for Inactive)
REMARK    1  A    between atoms: C_1  and  O_2
REMARK    2  A    between atoms: O_2  and  C_3
REMARK    3  A    between atoms: C_5  and  N_6
REMARK    4  A    between atoms: N_6  and  C_7
REMARK    5  A    between atoms: C_7  and  C_8
REMARK    6  A    between atoms: C_8  and  C_9
REMARK    7  A    between atoms: C_9  and  C_10
REMARK    8  A    between atoms: C_10  and  C_11
REMARK    9  A    between atoms: C_11  and  C_12
REMARK   10  A    between atoms: C_12  and  N_13
REMARK   11  A    between atoms: N_13  and  C_14
REMARK   12  A    between atoms: C_14  and  C_15
REMARK   13  A    between atoms: C_15  and  O_16
REMARK   14  A    between atoms: C_21  and  C_22
REMARK                            x       y       z     vdW  Elec       q    Type
REMARK                         _______ _______ _______ _____ _____    ______ ____
ROOT
ATOM      1  N   UNL     1       2.253   7.434  18.756  0.00  0.00    +0.000 N 
ATOM      2  H   UNL     1       1.255   7.271  18.851  0.00  0.00    +0.000 HD
ENDROOT
BRANCH   1   5
ATOM      3  C   UNL     1       4.782   5.189  17.270  0.00  0.00    +0.000 A 
ATOM      4  C   UNL     1       4.064   6.307  17.674  0.00  0.00    +0.000 A 
ATOM      5  C   UNL     1       2.945   6.201  18.521  0.00  0.00    +0.000 A 
ATOM      6  C   UNL     1       2.530   4.913  18.982  0.00  0.00    +0.000 A 
ATOM      7  N   UNL     1       1.477   4.756  19.824  0.00  0.00    +0.000 NA
ATOM      8  C   UNL     1       1.108   3.535  20.252  0.00  0.00    +0.000 A 
ATOM      9  C   UNL     1       1.749   2.385  19.878  0.00  0.00    +0.000 A 
ATOM     10  C   UNL     1       2.842   2.488  19.019  0.00  0.00    +0.000 A 
ATOM     11  C   UNL     1       3.535   1.219  18.602  0.00  0.00    +0.000 C 
ATOM     12  C   UNL     1       3.258   3.772  18.561  0.00  0.00    +0.000 A 
ATOM     13  C   UNL     1       4.373   3.934  17.708  0.00  0.00    +0.000 A 
BRANCH   3  15
ATOM     14  C   UNL     1       5.563   5.707  15.083  0.00  0.00    +0.000 C 
ATOM     15  O   UNL     1       5.847   5.447  16.453  0.00  0.00    +0.000 OA
ENDBRANCH   3  15
ENDBRANCH   1   5
BRANCH   1  16
ATOM     16  C   UNL     1       2.578   8.548  17.878  0.00  0.00    +0.000 C 
BRANCH  16  17
ATOM     17  C   UNL     1       1.603   9.714  18.020  0.00  0.00    +0.000 C 
BRANCH  17  18
ATOM     18  C   UNL     1       0.833   9.620  19.350  0.00  0.00    +0.000 C 
BRANCH  18  19
ATOM     19  C   UNL     1      -0.287  10.658  19.453  0.00  0.00    +0.000 C 
BRANCH  19  20
ATOM     20  C   UNL     1      -1.134  10.747  18.186  0.00  0.00    +0.000 C 
BRANCH  20  21
ATOM     21  C   UNL     1      -2.501  11.349  18.521  0.00  0.00    +0.000 C 
BRANCH  21  22
ATOM     22  N   UNL     1      -3.099  11.930  17.320  0.00  0.00    +0.000 NA
ATOM     23  H   UNL     1      -2.346  12.129  16.661  0.00  0.00    +0.000 HD
BRANCH  22  24
ATOM     24  C   UNL     1      -4.022  10.968  16.696  0.00  0.00    +0.000 C 
BRANCH  24  25
ATOM     25  C   UNL     1      -3.600  10.666  15.256  0.00  0.00    +0.000 C 
BRANCH  25  26
ATOM     26  O   UNL     1      -2.680   9.578  15.222  0.00  0.00    +0.000 OA
ATOM     27  H   UNL     1      -3.227   8.773  15.249  0.00  0.00    +0.000 HD
ENDBRANCH  25  26
ENDBRANCH  24  25
ENDBRANCH  22  24
ENDBRANCH  21  22
ENDBRANCH  20  21
ENDBRANCH  19  20
ENDBRANCH  18  19
ENDBRANCH  17  18
ENDBRANCH  16  17
ENDBRANCH   1  16
TORSDOF 12
ENDMDL
