MODEL 1
REMARK VINA RESULT:      -5.0      0.000      0.000
REMARK  Name = 
REMARK  4 active torsions:
REMARK  status: ('A' for Active; 'I' for Inactive)
REMARK    1  A    between atoms: C_1  and  N_2
REMARK    2  A    between atoms: N_2  and  C_3
REMARK    3  A    between atoms: N_2  and  C_4
REMARK    4  A    between atoms: C_4  and  C_5
REMARK                            x       y       z     vdW  Elec       q    Type
REMARK                         _______ _______ _______ _____ _____    ______ ____
ROOT
ATOM      1  C   UNL     1       3.962   4.631  17.450  0.00  0.00    +0.000 A 
ATOM      2  C   UNL     1       3.914   3.226  17.317  0.00  0.00    +0.000 A 
ATOM      3  C   UNL     1       2.778   2.499  17.675  0.00  0.00    +0.000 A 
ATOM      4  C   UNL     1       1.664   3.157  18.184  0.00  0.00    +0.000 A 
ATOM      5  C   UNL     1       1.687   4.545  18.325  0.00  0.00    +0.000 A 
ATOM      6  C   UNL     1       2.824   5.281  17.959  0.00  0.00    +0.000 A 
ATOM      7  I   UNL     1       2.676   7.365  18.202  0.00  0.00    +0.000 I 
ENDROOT
BRANCH   1   8
ATOM      8  C   UNL     1       5.246   5.333  17.043  0.00  0.00    +0.000 C 
BRANCH   8  10
ATOM      9  C   UNL     1       6.821   4.599  15.342  0.00  0.00    +0.000 C 
ATOM     10  N   UNL     1       6.356   4.413  16.718  0.00  0.00    +0.000 NA
ATOM     11  C   UNL     1       7.470   4.637  17.646  0.00  0.00    +0.000 C 
ENDBRANCH   8  10
ENDBRANCH   1   8
TORSDOF 2
ENDMDL
MODEL 2
REMARK VINA RESULT:      -5.0      0.856      1.070
REMARK  Name = 
REMARK  4 active torsions:
REMARK  status: ('A' for Active; 'I' for Inactive)
REMARK    1  A    between atoms: C_1  and  N_2
REMARK    2  A    between atoms: N_2  and  C_3
REMARK    3  A    between atoms: N_2  and  C_4
REMARK    4  A    between atoms: C_4  and  C_5
REMARK                            x       y       z     vdW  Elec       q    Type
REMARK                         _______ _______ _______ _____ _____    ______ ____
ROOT
ATOM      1  C   UNL     1       3.827   4.253  17.589  0.00  0.00    +0.000 A 
ATOM      2  C   UNL     1       3.682   2.851  17.487  0.00  0.00    +0.000 A 
ATOM      3  C   UNL     1       2.491   2.216  17.840  0.00  0.00    +0.000 A 
ATOM      4  C   UNL     1       1.418   2.962  18.312  0.00  0.00    +0.000 A 
ATOM      5  C   UNL     1       1.537   4.348  18.422  0.00  0.00    +0.000 A 
ATOM      6  C   UNL     1       2.730   4.994  18.061  0.00  0.00    +0.000 A 
ATOM      7  I   UNL     1       2.726   7.088  18.253  0.00  0.00    +0.000 I 
ENDROOT
BRANCH   1   8
ATOM      8  C   UNL     1       5.165   4.853  17.191  0.00  0.00    +0.000 C 
BRANCH   8  10
ATOM      9  C   UNL     1       7.572   4.594  17.416  0.00  0.00    +0.000 C 
ATOM     10  N   UNL     1       6.278   4.490  18.093  0.00  0.00    +0.000 NA
ATOM     11  C   UNL     1       6.267   5.369  19.267  0.00  0.00    +0.000 C 
ENDBRANCH   8  10
ENDBRANCH   1   8
TORSDOF 2
ENDMDL
MODEL 3
REMARK VINA RESULT:      -4.9      2.420      4.655
REMARK  Name = 
REMARK  4 active torsions:
REMARK  status: ('A' for Active; 'I' for Inactive)
REMARK    1  A    between atoms: C_1  and  N_2
REMARK    2  A    between atoms: N_2  and  C_3
REMARK    3  A    between atoms: N_2  and  C_4
REMARK    4  A    between atoms: C_4  and  C_5
REMARK                            x       y       z     vdW  Elec       q    Type
REMARK                         _______ _______ _______ _____ _____    ______ ____
ROOT
ATOM      1  C   UNL     1       5.172   4.393  17.540  0.00  0.00    +0.000 A 
ATOM      2  C   UNL     1       5.332   4.756  18.896  0.00  0.00    +0.000 A 
ATOM      3  C   UNL     1       6.475   5.420  19.342  0.00  0.00    +0.000 A 
ATOM      4  C   UNL     1       7.491   5.730  18.447  0.00  0.00    +0.000 A 
ATOM      5  C   UNL     1       7.358   5.382  17.102  0.00  0.00    +0.000 A 
ATOM      6  C   UNL     1       6.207   4.721  16.646  0.00  0.00    +0.000 A 
ATOM      7  I   UNL     1       6.152   4.304  14.586  0.00  0.00    +0.000 I 
ENDROOT
BRANCH   1   8
ATOM      8  C   UNL     1       3.897   3.664  17.151  0.00  0.00    +0.000 C 
BRANCH   8  10
ATOM      9  C   UNL     1       1.679   3.642  18.147  0.00  0.00    +0.000 C 
ATOM     10  N   UNL     1       3.077   3.234  18.304  0.00  0.00    +0.000 NA
ATOM     11  C   UNL     1       3.149   1.777  18.445  0.00  0.00    +0.000 C 
ENDBRANCH   8  10
ENDBRANCH   1   8
TORSDOF 2
ENDMDL
MODEL 4
REMARK VINA RESULT:      -4.8      1.893      2.857
REMARK  Name = 
REMARK  4 active torsions:
REMARK  status: ('A' for Active; 'I' for Inactive)
REMARK    1  A    between atoms: C_1  and  N_2
REMARK    2  A    between atoms: N_2  and  C_3
REMARK    3  A    between atoms: N_2  and  C_4
REMARK    4  A    between atoms: C_4  and  C_5
REMARK                            x       y       z     vdW  Elec       q    Type
REMARK                         _______ _______ _______ _____ _____    ______ ____
ROOT
ATOM      1  C   UNL     1       4.209   5.153  17.081  0.00  0.00    +0.000 A 
ATOM      2  C   UNL     1       4.391   6.554  17.064  0.00  0.00    +0.000 A 
ATOM      3  C   UNL     1       3.500   7.411  17.711  0.00  0.00    +0.000 A 
ATOM      4  C   UNL     1       2.399   6.893  18.381  0.00  0.00    +0.000 A 
ATOM      5  C   UNL     1       2.197   5.512  18.412  0.00  0.00    +0.000 A 
ATOM      6  C   UNL     1       3.094   4.645  17.771  0.00  0.00    +0.000 A 
ATOM      7  I   UNL     1       2.661   2.594  17.947  0.00  0.00    +0.000 I 
ENDROOT
BRANCH   1   8
ATOM      8  C   UNL     1       5.226   4.302  16.341  0.00  0.00    +0.000 C 
BRANCH   8  10
ATOM      9  C   UNL     1       7.504   4.548  17.156  0.00  0.00    +0.000 C 
ATOM     10  N   UNL     1       6.532   4.965  16.143  0.00  0.00    +0.000 NA
ATOM     11  C   UNL     1       7.049   4.646  14.808  0.00  0.00    +0.000 C 
ENDBRANCH   8  10
ENDBRANCH   1   8
TORSDOF 2
ENDMDL
MODEL 5
REMARK VINA RESULT:      -4.8      1.138      1.340
REMARK  Name = 
REMARK  4 active torsions:
REMARK  status: ('A' for Active; 'I' for Inactive)
REMARK    1  A    between atoms: C_1  and  N_2
REMARK    2  A    between atoms: N_2  and  C_3
REMARK    3  A    between atoms: N_2  and  C_4
REMARK    4  A    between atoms: C_4  and  C_5
REMARK                            x       y       z     vdW  Elec       q    Type
REMARK                         _______ _______ _______ _____ _____    ______ ____
ROOT
ATOM      1  C   UNL     1       3.684   3.901  17.805  0.00  0.00    +0.000 A 
ATOM      2  C   UNL     1       3.469   2.506  17.739  0.00  0.00    +0.000 A 
ATOM      3  C   UNL     1       2.267   1.934  18.155  0.00  0.00    +0.000 A 
ATOM      4  C   UNL     1       1.252   2.740  18.657  0.00  0.00    +0.000 A 
ATOM      5  C   UNL     1       1.439   4.120  18.734  0.00  0.00    +0.000 A 
ATOM      6  C   UNL     1       2.644   4.702  18.308  0.00  0.00    +0.000 A 
ATOM      7  I   UNL     1       2.745   6.797  18.456  0.00  0.00    +0.000 I 
ENDROOT
BRANCH   1   8
ATOM      8  C   UNL     1       5.029   4.429  17.337  0.00  0.00    +0.000 C 
BRANCH   8  10
ATOM      9  C   UNL     1       5.380   6.071  15.578  0.00  0.00    +0.000 C 
ATOM     10  N   UNL     1       5.107   4.664  15.879  0.00  0.00    +0.000 NA
ATOM     11  C   UNL     1       6.162   3.825  15.301  0.00  0.00    +0.000 C 
ENDBRANCH   8  10
ENDBRANCH   1   8
TORSDOF 2
ENDMDL
MODEL 6
REMARK VINA RESULT:      -4.8      1.080      1.209
REMARK  Name = 
REMARK  4 active torsions:
REMARK  status: ('A' for Active; 'I' for Inactive)
REMARK    1  A    between atoms: C_1  and  N_2
REMARK    2  A    between atoms: N_2  and  C_3
REMARK    3  A    between atoms: N_2  and  C_4
REMARK    4  A    between atoms: C_4  and  C_5
REMARK                            x       y       z     vdW  Elec       q    Type
REMARK                         _______ _______ _______ _____ _____    ______ ____
ROOT
ATOM      1  C   UNL     1       4.199   4.591  18.343  0.00  0.00    +0.000 A 
ATOM      2  C   UNL     1       4.193   3.181  18.265  0.00  0.00    +0.000 A 
ATOM      3  C   UNL     1       3.025   2.472  17.981  0.00  0.00    +0.000 A 
ATOM      4  C   UNL     1       1.832   3.154  17.775  0.00  0.00    +0.000 A 
ATOM      5  C   UNL     1       1.812   4.547  17.846  0.00  0.00    +0.000 A 
ATOM      6  C   UNL     1       2.985   5.265  18.124  0.00  0.00    +0.000 A 
ATOM      7  I   UNL     1       2.785   7.359  18.157  0.00  0.00    +0.000 I 
ENDROOT
BRANCH   1   8
ATOM      8  C   UNL     1       5.517   5.273  18.668  0.00  0.00    +0.000 C 
BRANCH   8  10
ATOM      9  C   UNL     1       6.799   6.863  17.348  0.00  0.00    +0.000 C 
ATOM     10  N   UNL     1       6.400   5.462  17.497  0.00  0.00    +0.000 NA
ATOM     11  C   UNL     1       7.595   4.624  17.640  0.00  0.00    +0.000 C 
ENDBRANCH   8  10
ENDBRANCH   1   8
TORSDOF 2
ENDMDL
MODEL 7
REMARK VINA RESULT:      -4.8      0.903      1.122
REMARK  Name = 
REMARK  4 active torsions:
REMARK  status: ('A' for Active; 'I' for Inactive)
REMARK    1  A    between atoms: C_1  and  N_2
REMARK    2  A    between atoms: N_2  and  C_3
REMARK    3  A    between atoms: N_2  and  C_4
REMARK    4  A    between atoms: C_4  and  C_5
REMARK                            x       y       z     vdW  Elec       q    Type
REMARK                         _______ _______ _______ _____ _____    ______ ____
ROOT
ATOM      1  C   UNL     1       4.008   4.802  17.196  0.00  0.00    +0.000 A 
ATOM      2  C   UNL     1       3.976   3.394  17.080  0.00  0.00    +0.000 A 
ATOM      3  C   UNL     1       2.908   2.647  17.577  0.00  0.00    +0.000 A 
ATOM      4  C   UNL     1       1.848   3.286  18.211  0.00  0.00    +0.000 A 
ATOM      5  C   UNL     1       1.856   4.675  18.338  0.00  0.00    +0.000 A 
ATOM      6  C   UNL     1       2.924   5.433  17.832  0.00  0.00    +0.000 A 
ATOM      7  I   UNL     1       2.758   7.515  18.075  0.00  0.00    +0.000 I 
ENDROOT
BRANCH   1   8
ATOM      8  C   UNL     1       5.217   5.528  16.633  0.00  0.00    +0.000 C 
BRANCH   8  10
ATOM      9  C   UNL     1       7.360   4.691  17.421  0.00  0.00    +0.000 C 
ATOM     10  N   UNL     1       6.318   5.704  17.604  0.00  0.00    +0.000 NA
ATOM     11  C   UNL     1       6.901   7.040  17.452  0.00  0.00    +0.000 C 
ENDBRANCH   8  10
ENDBRANCH   1   8
TORSDOF 2
ENDMDL
MODEL 8
REMARK VINA RESULT:      -4.8      1.919      2.084
REMARK  Name = 
REMARK  4 active torsions:
REMARK  status: ('A' for Active; 'I' for Inactive)
REMARK    1  A    between atoms: C_1  and  N_2
REMARK    2  A    between atoms: N_2  and  C_3
REMARK    3  A    between atoms: N_2  and  C_4
REMARK    4  A    between atoms: C_4  and  C_5
REMARK                            x       y       z     vdW  Elec       q    Type
REMARK                         _______ _______ _______ _____ _____    ______ ____
ROOT
ATOM      1  C   UNL     1       3.816   4.283  19.016  0.00  0.00    +0.000 A 
ATOM      2  C   UNL     1       3.787   3.083  19.761  0.00  0.00    +0.000 A 
ATOM      3  C   UNL     1       2.874   2.893  20.800  0.00  0.00    +0.000 A 
ATOM      4  C   UNL     1       1.974   3.900  21.127  0.00  0.00    +0.000 A 
ATOM      5  C   UNL     1       1.983   5.095  20.406  0.00  0.00    +0.000 A 
ATOM      6  C   UNL     1       2.893   5.288  19.355  0.00  0.00    +0.000 A 
ATOM      7  I   UNL     1       2.745   7.129  18.350  0.00  0.00    +0.000 I 
ENDROOT
BRANCH   1   8
ATOM      8  C   UNL     1       4.851   4.400  17.911  0.00  0.00    +0.000 C 
BRANCH   8  10
ATOM      9  C   UNL     1       7.199   4.514  17.286  0.00  0.00    +0.000 C 
ATOM     10  N   UNL     1       6.248   4.389  18.394  0.00  0.00    +0.000 NA
ATOM     11  C   UNL     1       6.451   5.491  19.339  0.00  0.00    +0.000 C 
ENDBRANCH   8  10
ENDBRANCH   1   8
TORSDOF 2
ENDMDL
MODEL 9
REMARK VINA RESULT:      -4.7      3.130      4.093
REMARK  Name = 
REMARK  4 active torsions:
REMARK  status: ('A' for Active; 'I' for Inactive)
REMARK    1  A    between atoms: C_1  and  N_2
REMARK    2  A    between atoms: N_2  and  C_3
REMARK    3  A    between atoms: N_2  and  C_4
REMARK    4  A    between atoms: C_4  and  C_5
REMARK                            x       y       z     vdW  Elec       q    Type
REMARK                         _______ _______ _______ _____ _____    ______ ____
ROOT
ATOM      1  C   UNL     1       2.478   4.702  19.180  0.00  0.00    +0.000 A 
ATOM      2  C   UNL     1       1.384   4.278  19.967  0.00  0.00    +0.000 A 
ATOM      3  C   UNL     1       0.792   3.028  19.778  0.00  0.00    +0.000 A 
ATOM      4  C   UNL     1       1.272   2.174  18.792  0.00  0.00    +0.000 A 
ATOM      5  C   UNL     1       2.351   2.570  18.001  0.00  0.00    +0.000 A 
ATOM      6  C   UNL     1       2.955   3.822  18.193  0.00  0.00    +0.000 A 
ATOM      7  I   UNL     1       4.592   4.244  16.942  0.00  0.00    +0.000 I 
ENDROOT
BRANCH   1   8
ATOM      8  C   UNL     1       3.049   6.082  19.454  0.00  0.00    +0.000 C 
BRANCH   8  10
ATOM      9  C   UNL     1       1.827   8.092  20.071  0.00  0.00    +0.000 C 
ATOM     10  N   UNL     1       2.194   7.190  18.977  0.00  0.00    +0.000 NA
ATOM     11  C   UNL     1       2.900   7.944  17.936  0.00  0.00    +0.000 C 
ENDBRANCH   8  10
ENDBRANCH   1   8
TORSDOF 2
ENDMDL
