MODEL 1
REMARK VINA RESULT:      -7.5      0.000      0.000
REMARK  Name = 
REMARK  4 active torsions:
REMARK  status: ('A' for Active; 'I' for Inactive)
REMARK    1  A    between atoms: N_1  and  C_2
REMARK    2  A    between atoms: C_5  and  C_6
REMARK    3  A    between atoms: C_12  and  C_13
REMARK    4  A    between atoms: N_15  and  C_16
REMARK                            x       y       z     vdW  Elec       q    Type
REMARK                         _______ _______ _______ _____ _____    ______ ____
ROOT
ATOM      1  C   UNL     1       6.996   5.458  16.381  0.00  0.00    +0.000 A 
ATOM      2  N   UNL     1       7.622   5.667  15.205  0.00  0.00    +0.000 NA
ATOM      3  C   UNL     1       7.158   5.005  14.112  0.00  0.00    +0.000 A 
ATOM      4  C   UNL     1       6.070   4.141  14.119  0.00  0.00    +0.000 A 
ATOM      5  C   UNL     1       5.427   3.962  15.342  0.00  0.00    +0.000 A 
ATOM      6  C   UNL     1       5.886   4.622  16.492  0.00  0.00    +0.000 A 
ENDROOT
BRANCH   4   7
ATOM      7  C   UNL     1       5.628   3.456  12.918  0.00  0.00    +0.000 A 
ATOM      8  C   UNL     1       4.419   3.540  12.191  0.00  0.00    +0.000 A 
ATOM      9  N   UNL     1       4.403   2.743  11.119  0.00  0.00    +0.000 NA
ATOM     10  N   UNL     1       5.602   2.142  11.155  0.00  0.00    +0.000 N 
ATOM     11  C   UNL     1       6.373   2.537  12.209  0.00  0.00    +0.000 A 
ATOM     12  H   UNL     1       5.829   1.474  10.425  0.00  0.00    +0.000 HD
ENDBRANCH   4   7
BRANCH   6  13
ATOM     13  C   UNL     1       5.177   4.334  17.764  0.00  0.00    +0.000 C 
ATOM     14  O   UNL     1       5.874   4.121  18.751  0.00  0.00    +0.000 OA
ATOM     15  N   UNL     1       3.798   4.268  17.708  0.00  0.00    +0.000 N 
ATOM     16  H   UNL     1       3.369   4.373  16.793  0.00  0.00    +0.000 HD
BRANCH  15  17
ATOM     17  C   UNL     1       2.946   3.953  18.793  0.00  0.00    +0.000 A 
ATOM     18  C   UNL     1       2.477   2.666  19.045  0.00  0.00    +0.000 A 
ATOM     19  C   UNL     1       1.621   2.465  20.117  0.00  0.00    +0.000 A 
ATOM     20  N   UNL     1       1.207   3.448  20.940  0.00  0.00    +0.000 NA
ATOM     21  C   UNL     1       1.681   4.686  20.684  0.00  0.00    +0.000 A 
ATOM     22  C   UNL     1       2.554   4.982  19.646  0.00  0.00    +0.000 A 
ENDBRANCH  15  17
ENDBRANCH   6  13
BRANCH   1  23
ATOM     23  N   UNL     1       7.549   6.151  17.460  0.00  0.00    +0.000 N 
ATOM     24  H   UNL     1       7.750   5.445  18.169  0.00  0.00    +0.000 HD
ATOM     25  H   UNL     1       6.888   6.834  17.824  0.00  0.00    +0.000 HD
ENDBRANCH   1  23
TORSDOF 4
ENDMDL
MODEL 2
REMARK VINA RESULT:      -7.5      0.186      1.013
REMARK  Name = 
REMARK  4 active torsions:
REMARK  status: ('A' for Active; 'I' for Inactive)
REMARK    1  A    between atoms: N_1  and  C_2
REMARK    2  A    between atoms: C_5  and  C_6
REMARK    3  A    between atoms: C_12  and  C_13
REMARK    4  A    between atoms: N_15  and  C_16
REMARK                            x       y       z     vdW  Elec       q    Type
REMARK                         _______ _______ _______ _____ _____    ______ ____
ROOT
ATOM      1  C   UNL     1       6.987   5.446  16.365  0.00  0.00    +0.000 A 
ATOM      2  N   UNL     1       7.626   5.637  15.193  0.00  0.00    +0.000 NA
ATOM      3  C   UNL     1       7.159   4.977  14.100  0.00  0.00    +0.000 A 
ATOM      4  C   UNL     1       6.055   4.134  14.103  0.00  0.00    +0.000 A 
ATOM      5  C   UNL     1       5.399   3.973  15.321  0.00  0.00    +0.000 A 
ATOM      6  C   UNL     1       5.862   4.631  16.471  0.00  0.00    +0.000 A 
ENDROOT
BRANCH   4   7
ATOM      7  C   UNL     1       5.609   3.452  12.902  0.00  0.00    +0.000 A 
ATOM      8  C   UNL     1       4.404   3.546  12.170  0.00  0.00    +0.000 A 
ATOM      9  N   UNL     1       4.383   2.747  11.100  0.00  0.00    +0.000 NA
ATOM     10  N   UNL     1       5.575   2.133  11.141  0.00  0.00    +0.000 N 
ATOM     11  C   UNL     1       6.348   2.522  12.197  0.00  0.00    +0.000 A 
ATOM     12  H   UNL     1       5.798   1.462  10.414  0.00  0.00    +0.000 HD
ENDBRANCH   4   7
BRANCH   6  13
ATOM     13  C   UNL     1       5.137   4.363  17.739  0.00  0.00    +0.000 C 
ATOM     14  O   UNL     1       5.819   4.066  18.715  0.00  0.00    +0.000 OA
ATOM     15  N   UNL     1       3.757   4.409  17.690  0.00  0.00    +0.000 N 
ATOM     16  H   UNL     1       3.333   4.575  16.782  0.00  0.00    +0.000 HD
BRANCH  15  17
ATOM     17  C   UNL     1       2.887   4.131  18.771  0.00  0.00    +0.000 A 
ATOM     18  C   UNL     1       2.733   4.979  19.865  0.00  0.00    +0.000 A 
ATOM     19  C   UNL     1       1.878   4.601  20.888  0.00  0.00    +0.000 A 
ATOM     20  N   UNL     1       1.178   3.450  20.894  0.00  0.00    +0.000 NA
ATOM     21  C   UNL     1       1.334   2.647  19.820  0.00  0.00    +0.000 A 
ATOM     22  C   UNL     1       2.153   2.947  18.741  0.00  0.00    +0.000 A 
ENDBRANCH  15  17
ENDBRANCH   6  13
BRANCH   1  23
ATOM     23  N   UNL     1       7.545   6.134  17.444  0.00  0.00    +0.000 N 
ATOM     24  H   UNL     1       7.150   7.075  17.407  0.00  0.00    +0.000 HD
ATOM     25  H   UNL     1       8.558   6.176  17.358  0.00  0.00    +0.000 HD
ENDBRANCH   1  23
TORSDOF 4
ENDMDL
MODEL 3
REMARK VINA RESULT:      -7.5      0.881      1.015
REMARK  Name = 
REMARK  4 active torsions:
REMARK  status: ('A' for Active; 'I' for Inactive)
REMARK    1  A    between atoms: N_1  and  C_2
REMARK    2  A    between atoms: C_5  and  C_6
REMARK    3  A    between atoms: C_12  and  C_13
REMARK    4  A    between atoms: N_15  and  C_16
REMARK                            x       y       z     vdW  Elec       q    Type
REMARK                         _______ _______ _______ _____ _____    ______ ____
ROOT
ATOM      1  C   UNL     1       6.752   5.624  16.485  0.00  0.00    +0.000 A 
ATOM      2  N   UNL     1       7.586   5.603  15.426  0.00  0.00    +0.000 NA
ATOM      3  C   UNL     1       7.188   4.920  14.319  0.00  0.00    +0.000 A 
ATOM      4  C   UNL     1       5.973   4.259  14.197  0.00  0.00    +0.000 A 
ATOM      5  C   UNL     1       5.120   4.318  15.298  0.00  0.00    +0.000 A 
ATOM      6  C   UNL     1       5.504   5.005  16.460  0.00  0.00    +0.000 A 
ENDROOT
BRANCH   4   7
ATOM      7  C   UNL     1       5.609   3.540  12.990  0.00  0.00    +0.000 A 
ATOM      8  C   UNL     1       4.411   3.525  12.240  0.00  0.00    +0.000 A 
ATOM      9  N   UNL     1       4.479   2.729  11.170  0.00  0.00    +0.000 NA
ATOM     10  N   UNL     1       5.722   2.226  11.229  0.00  0.00    +0.000 N 
ATOM     11  C   UNL     1       6.439   2.683  12.297  0.00  0.00    +0.000 A 
ATOM     12  H   UNL     1       6.016   1.579  10.505  0.00  0.00    +0.000 HD
ENDBRANCH   4   7
BRANCH   6  13
ATOM     13  C   UNL     1       4.559   4.973  17.605  0.00  0.00    +0.000 C 
ATOM     14  O   UNL     1       4.487   5.987  18.292  0.00  0.00    +0.000 OA
ATOM     15  N   UNL     1       3.893   3.784  17.831  0.00  0.00    +0.000 N 
ATOM     16  H   UNL     1       4.133   3.000  17.230  0.00  0.00    +0.000 HD
BRANCH  15  17
ATOM     17  C   UNL     1       2.998   3.534  18.898  0.00  0.00    +0.000 A 
ATOM     18  C   UNL     1       1.633   3.802  18.827  0.00  0.00    +0.000 A 
ATOM     19  C   UNL     1       0.844   3.550  19.938  0.00  0.00    +0.000 A 
ATOM     20  N   UNL     1       1.319   3.057  21.099  0.00  0.00    +0.000 NA
ATOM     21  C   UNL     1       2.643   2.795  21.143  0.00  0.00    +0.000 A 
ATOM     22  C   UNL     1       3.509   2.998  20.078  0.00  0.00    +0.000 A 
ENDBRANCH  15  17
ENDBRANCH   6  13
BRANCH   1  23
ATOM     23  N   UNL     1       7.244   6.320  17.591  0.00  0.00    +0.000 N 
ATOM     24  H   UNL     1       7.871   5.672  18.070  0.00  0.00    +0.000 HD
ATOM     25  H   UNL     1       6.483   6.593  18.211  0.00  0.00    +0.000 HD
ENDBRANCH   1  23
TORSDOF 4
ENDMDL
MODEL 4
REMARK VINA RESULT:      -7.1      3.393      5.789
REMARK  Name = 
REMARK  4 active torsions:
REMARK  status: ('A' for Active; 'I' for Inactive)
REMARK    1  A    between atoms: N_1  and  C_2
REMARK    2  A    between atoms: C_5  and  C_6
REMARK    3  A    between atoms: C_12  and  C_13
REMARK    4  A    between atoms: N_15  and  C_16
REMARK                            x       y       z     vdW  Elec       q    Type
REMARK                         _______ _______ _______ _____ _____    ______ ____
ROOT
ATOM      1  C   UNL     1       3.139   3.789  20.238  0.00  0.00    +0.000 A 
ATOM      2  N   UNL     1       4.109   2.978  19.768  0.00  0.00    +0.000 NA
ATOM      3  C   UNL     1       5.001   3.501  18.885  0.00  0.00    +0.000 A 
ATOM      4  C   UNL     1       4.994   4.821  18.449  0.00  0.00    +0.000 A 
ATOM      5  C   UNL     1       3.996   5.642  18.969  0.00  0.00    +0.000 A 
ATOM      6  C   UNL     1       3.053   5.130  19.874  0.00  0.00    +0.000 A 
ENDROOT
BRANCH   4   7
ATOM      7  C   UNL     1       5.971   5.318  17.498  0.00  0.00    +0.000 A 
ATOM      8  C   UNL     1       6.526   4.729  16.339  0.00  0.00    +0.000 A 
ATOM      9  N   UNL     1       7.400   5.527  15.721  0.00  0.00    +0.000 NA
ATOM     10  N   UNL     1       7.414   6.632  16.482  0.00  0.00    +0.000 N 
ATOM     11  C   UNL     1       6.574   6.558  17.555  0.00  0.00    +0.000 A 
ATOM     12  H   UNL     1       8.017   7.400  16.209  0.00  0.00    +0.000 HD
ENDBRANCH   4   7
BRANCH   6  13
ATOM     13  C   UNL     1       1.991   6.060  20.338  0.00  0.00    +0.000 C 
ATOM     14  O   UNL     1       0.902   5.565  20.610  0.00  0.00    +0.000 OA
ATOM     15  N   UNL     1       2.306   7.405  20.361  0.00  0.00    +0.000 N 
ATOM     16  H   UNL     1       3.223   7.669  20.012  0.00  0.00    +0.000 HD
BRANCH  15  17
ATOM     17  C   UNL     1       1.420   8.449  20.716  0.00  0.00    +0.000 A 
ATOM     18  C   UNL     1       1.065   8.734  22.033  0.00  0.00    +0.000 A 
ATOM     19  C   UNL     1       0.166   9.760  22.275  0.00  0.00    +0.000 A 
ATOM     20  N   UNL     1      -0.397  10.509  21.306  0.00  0.00    +0.000 NA
ATOM     21  C   UNL     1      -0.032  10.223  20.038  0.00  0.00    +0.000 A 
ATOM     22  C   UNL     1       0.873   9.227  19.698  0.00  0.00    +0.000 A 
ENDBRANCH  15  17
ENDBRANCH   6  13
BRANCH   1  23
ATOM     23  N   UNL     1       2.246   3.169  21.115  0.00  0.00    +0.000 N 
ATOM     24  H   UNL     1       1.838   3.922  21.672  0.00  0.00    +0.000 HD
ATOM     25  H   UNL     1       2.735   2.512  21.720  0.00  0.00    +0.000 HD
ENDBRANCH   1  23
TORSDOF 4
ENDMDL
MODEL 5
REMARK VINA RESULT:      -7.0      3.261      5.448
REMARK  Name = 
REMARK  4 active torsions:
REMARK  status: ('A' for Active; 'I' for Inactive)
REMARK    1  A    between atoms: N_1  and  C_2
REMARK    2  A    between atoms: C_5  and  C_6
REMARK    3  A    between atoms: C_12  and  C_13
REMARK    4  A    between atoms: N_15  and  C_16
REMARK                            x       y       z     vdW  Elec       q    Type
REMARK                         _______ _______ _______ _____ _____    ______ ____
ROOT
ATOM      1  C   UNL     1       2.318   3.739  18.769  0.00  0.00    +0.000 A 
ATOM      2  N   UNL     1       2.959   2.900  17.930  0.00  0.00    +0.000 NA
ATOM      3  C   UNL     1       4.064   3.364  17.288  0.00  0.00    +0.000 A 
ATOM      4  C   UNL     1       4.590   4.640  17.453  0.00  0.00    +0.000 A 
ATOM      5  C   UNL     1       3.923   5.477  18.345  0.00  0.00    +0.000 A 
ATOM      6  C   UNL     1       2.773   5.032  19.015  0.00  0.00    +0.000 A 
ENDROOT
BRANCH   4   7
ATOM      7  C   UNL     1       5.771   5.080  16.733  0.00  0.00    +0.000 A 
ATOM      8  C   UNL     1       6.456   4.513  15.634  0.00  0.00    +0.000 A 
ATOM      9  N   UNL     1       7.510   5.238  15.251  0.00  0.00    +0.000 NA
ATOM     10  N   UNL     1       7.508   6.274  16.104  0.00  0.00    +0.000 N 
ATOM     11  C   UNL     1       6.486   6.228  17.007  0.00  0.00    +0.000 A 
ATOM     12  H   UNL     1       8.231   6.979  16.010  0.00  0.00    +0.000 HD
ENDBRANCH   4   7
BRANCH   6  13
ATOM     13  C   UNL     1       2.093   6.007  19.905  0.00  0.00    +0.000 C 
ATOM     14  O   UNL     1       1.478   5.546  20.862  0.00  0.00    +0.000 OA
ATOM     15  N   UNL     1       2.161   7.338  19.541  0.00  0.00    +0.000 N 
ATOM     16  H   UNL     1       2.628   7.552  18.665  0.00  0.00    +0.000 HD
BRANCH  15  17
ATOM     17  C   UNL     1       1.535   8.408  20.223  0.00  0.00    +0.000 A 
ATOM     18  C   UNL     1       1.400   8.456  21.609  0.00  0.00    +0.000 A 
ATOM     19  C   UNL     1       0.744   9.535  22.180  0.00  0.00    +0.000 A 
ATOM     20  N   UNL     1       0.220  10.554  21.470  0.00  0.00    +0.000 NA
ATOM     21  C   UNL     1       0.370  10.493  20.130  0.00  0.00    +0.000 A 
ATOM     22  C   UNL     1       1.026   9.464  19.470  0.00  0.00    +0.000 A 
ENDBRANCH  15  17
ENDBRANCH   6  13
BRANCH   1  23
ATOM     23  N   UNL     1       1.178   3.197  19.366  0.00  0.00    +0.000 N 
ATOM     24  H   UNL     1       0.530   3.977  19.485  0.00  0.00    +0.000 HD
ATOM     25  H   UNL     1       1.405   2.789  20.271  0.00  0.00    +0.000 HD
ENDBRANCH   1  23
TORSDOF 4
ENDMDL
MODEL 6
REMARK VINA RESULT:      -7.0      2.700      7.300
REMARK  Name = 
REMARK  4 active torsions:
REMARK  status: ('A' for Active; 'I' for Inactive)
REMARK    1  A    between atoms: N_1  and  C_2
REMARK    2  A    between atoms: C_5  and  C_6
REMARK    3  A    between atoms: C_12  and  C_13
REMARK    4  A    between atoms: N_15  and  C_16
REMARK                            x       y       z     vdW  Elec       q    Type
REMARK                         _______ _______ _______ _____ _____    ______ ____
ROOT
ATOM      1  C   UNL     1       4.409   4.046  18.989  0.00  0.00    +0.000 A 
ATOM      2  N   UNL     1       3.530   4.368  19.960  0.00  0.00    +0.000 NA
ATOM      3  C   UNL     1       2.882   5.559  19.861  0.00  0.00    +0.000 A 
ATOM      4  C   UNL     1       3.050   6.461  18.817  0.00  0.00    +0.000 A 
ATOM      5  C   UNL     1       3.947   6.093  17.816  0.00  0.00    +0.000 A 
ATOM      6  C   UNL     1       4.639   4.874  17.893  0.00  0.00    +0.000 A 
ENDROOT
BRANCH   4   7
ATOM      7  C   UNL     1       2.334   7.723  18.772  0.00  0.00    +0.000 A 
ATOM      8  C   UNL     1       2.127   8.639  17.716  0.00  0.00    +0.000 A 
ATOM      9  N   UNL     1       1.394   9.693  18.081  0.00  0.00    +0.000 NA
ATOM     10  N   UNL     1       1.128   9.460  19.376  0.00  0.00    +0.000 N 
ATOM     11  C   UNL     1       1.665   8.293  19.836  0.00  0.00    +0.000 A 
ATOM     12  H   UNL     1       0.571  10.139  19.885  0.00  0.00    +0.000 HD
ENDBRANCH   4   7
BRANCH   6  13
ATOM     13  C   UNL     1       5.614   4.584  16.812  0.00  0.00    +0.000 C 
ATOM     14  O   UNL     1       6.762   4.319  17.157  0.00  0.00    +0.000 OA
ATOM     15  N   UNL     1       5.159   4.702  15.513  0.00  0.00    +0.000 N 
ATOM     16  H   UNL     1       4.205   5.026  15.387  0.00  0.00    +0.000 HD
BRANCH  15  17
ATOM     17  C   UNL     1       5.943   4.523  14.348  0.00  0.00    +0.000 A 
ATOM     18  C   UNL     1       7.116   5.233  14.101  0.00  0.00    +0.000 A 
ATOM     19  C   UNL     1       7.796   5.007  12.915  0.00  0.00    +0.000 A 
ATOM     20  N   UNL     1       7.390   4.132  11.973  0.00  0.00    +0.000 NA
ATOM     21  C   UNL     1       6.257   3.448  12.237  0.00  0.00    +0.000 A 
ATOM     22  C   UNL     1       5.518   3.593  13.401  0.00  0.00    +0.000 A 
ENDBRANCH  15  17
ENDBRANCH   6  13
BRANCH   1  23
ATOM     23  N   UNL     1       5.053   2.822  19.178  0.00  0.00    +0.000 N 
ATOM     24  H   UNL     1       4.716   2.213  18.431  0.00  0.00    +0.000 HD
ATOM     25  H   UNL     1       4.815   2.427  20.086  0.00  0.00    +0.000 HD
ENDBRANCH   1  23
TORSDOF 4
ENDMDL
MODEL 7
REMARK VINA RESULT:      -7.0      3.437      5.879
REMARK  Name = 
REMARK  4 active torsions:
REMARK  status: ('A' for Active; 'I' for Inactive)
REMARK    1  A    between atoms: N_1  and  C_2
REMARK    2  A    between atoms: C_5  and  C_6
REMARK    3  A    between atoms: C_12  and  C_13
REMARK    4  A    between atoms: N_15  and  C_16
REMARK                            x       y       z     vdW  Elec       q    Type
REMARK                         _______ _______ _______ _____ _____    ______ ____
ROOT
ATOM      1  C   UNL     1       2.995   3.778  20.396  0.00  0.00    +0.000 A 
ATOM      2  N   UNL     1       3.964   2.941  19.972  0.00  0.00    +0.000 NA
ATOM      3  C   UNL     1       4.886   3.428  19.099  0.00  0.00    +0.000 A 
ATOM      4  C   UNL     1       4.910   4.735  18.629  0.00  0.00    +0.000 A 
ATOM      5  C   UNL     1       3.912   5.584  19.102  0.00  0.00    +0.000 A 
ATOM      6  C   UNL     1       2.939   5.111  19.995  0.00  0.00    +0.000 A 
ENDROOT
BRANCH   4   7
ATOM      7  C   UNL     1       5.918   5.193  17.691  0.00  0.00    +0.000 A 
ATOM      8  C   UNL     1       6.626   6.413  17.606  0.00  0.00    +0.000 A 
ATOM      9  N   UNL     1       7.489   6.442  16.588  0.00  0.00    +0.000 NA
ATOM     10  N   UNL     1       7.339   5.240  16.012  0.00  0.00    +0.000 N 
ATOM     11  C   UNL     1       6.414   4.454  16.636  0.00  0.00    +0.000 A 
ATOM     12  H   UNL     1       7.903   5.020  15.197  0.00  0.00    +0.000 HD
ENDBRANCH   4   7
BRANCH   6  13
ATOM     13  C   UNL     1       1.880   6.068  20.408  0.00  0.00    +0.000 C 
ATOM     14  O   UNL     1       0.771   5.599  20.643  0.00  0.00    +0.000 OA
ATOM     15  N   UNL     1       2.223   7.406  20.429  0.00  0.00    +0.000 N 
ATOM     16  H   UNL     1       3.158   7.647  20.113  0.00  0.00    +0.000 HD
BRANCH  15  17
ATOM     17  C   UNL     1       1.347   8.473  20.738  0.00  0.00    +0.000 A 
ATOM     18  C   UNL     1       0.800   9.316  19.774  0.00  0.00    +0.000 A 
ATOM     19  C   UNL     1      -0.024  10.353  20.182  0.00  0.00    +0.000 A 
ATOM     20  N   UNL     1      -0.334  10.601  21.470  0.00  0.00    +0.000 NA
ATOM     21  C   UNL     1       0.198   9.767  22.388  0.00  0.00    +0.000 A 
ATOM     22  C   UNL     1       1.020   8.693  22.075  0.00  0.00    +0.000 A 
ENDBRANCH  15  17
ENDBRANCH   6  13
BRANCH   1  23
ATOM     23  N   UNL     1       2.071   3.195  21.267  0.00  0.00    +0.000 N 
ATOM     24  H   UNL     1       2.031   3.810  22.081  0.00  0.00    +0.000 HD
ATOM     25  H   UNL     1       2.377   2.265  21.545  0.00  0.00    +0.000 HD
ENDBRANCH   1  23
TORSDOF 4
ENDMDL
MODEL 8
REMARK VINA RESULT:      -7.0      3.270      5.481
REMARK  Name = 
REMARK  4 active torsions:
REMARK  status: ('A' for Active; 'I' for Inactive)
REMARK    1  A    between atoms: N_1  and  C_2
REMARK    2  A    between atoms: C_5  and  C_6
REMARK    3  A    between atoms: C_12  and  C_13
REMARK    4  A    between atoms: N_15  and  C_16
REMARK                            x       y       z     vdW  Elec       q    Type
REMARK                         _______ _______ _______ _____ _____    ______ ____
ROOT
ATOM      1  C   UNL     1       2.268   3.783  18.751  0.00  0.00    +0.000 A 
ATOM      2  N   UNL     1       2.895   2.951  17.894  0.00  0.00    +0.000 NA
ATOM      3  C   UNL     1       4.005   3.414  17.258  0.00  0.00    +0.000 A 
ATOM      4  C   UNL     1       4.549   4.678  17.446  0.00  0.00    +0.000 A 
ATOM      5  C   UNL     1       3.895   5.508  18.355  0.00  0.00    +0.000 A 
ATOM      6  C   UNL     1       2.741   5.065  19.020  0.00  0.00    +0.000 A 
ENDROOT
BRANCH   4   7
ATOM      7  C   UNL     1       5.734   5.116  16.731  0.00  0.00    +0.000 A 
ATOM      8  C   UNL     1       6.396   4.573  15.606  0.00  0.00    +0.000 A 
ATOM      9  N   UNL     1       7.463   5.288  15.240  0.00  0.00    +0.000 NA
ATOM     10  N   UNL     1       7.493   6.292  16.129  0.00  0.00    +0.000 N 
ATOM     11  C   UNL     1       6.478   6.237  17.040  0.00  0.00    +0.000 A 
ATOM     12  H   UNL     1       8.232   6.982  16.054  0.00  0.00    +0.000 HD
ENDBRANCH   4   7
BRANCH   6  13
ATOM     13  C   UNL     1       2.076   6.031  19.931  0.00  0.00    +0.000 C 
ATOM     14  O   UNL     1       1.464   5.561  20.885  0.00  0.00    +0.000 OA
ATOM     15  N   UNL     1       2.152   7.367  19.587  0.00  0.00    +0.000 N 
ATOM     16  H   UNL     1       2.614   7.591  18.710  0.00  0.00    +0.000 HD
BRANCH  15  17
ATOM     17  C   UNL     1       1.541   8.432  20.290  0.00  0.00    +0.000 A 
ATOM     18  C   UNL     1       0.960   9.530  19.658  0.00  0.00    +0.000 A 
ATOM     19  C   UNL     1       0.414  10.537  20.438  0.00  0.00    +0.000 A 
ATOM     20  N   UNL     1       0.409  10.523  21.785  0.00  0.00    +0.000 NA
ATOM     21  C   UNL     1       0.968   9.446  22.377  0.00  0.00    +0.000 A 
ATOM     22  C   UNL     1       1.524   8.382  21.682  0.00  0.00    +0.000 A 
ENDBRANCH  15  17
ENDBRANCH   6  13
BRANCH   1  23
ATOM     23  N   UNL     1       1.122   3.245  19.340  0.00  0.00    +0.000 N 
ATOM     24  H   UNL     1       1.441   2.769  20.185  0.00  0.00    +0.000 HD
ATOM     25  H   UNL     1       0.674   2.580  18.712  0.00  0.00    +0.000 HD
ENDBRANCH   1  23
TORSDOF 4
ENDMDL
MODEL 9
REMARK VINA RESULT:      -6.9      4.180      5.948
REMARK  Name = 
REMARK  4 active torsions:
REMARK  status: ('A' for Active; 'I' for Inactive)
REMARK    1  A    between atoms: N_1  and  C_2
REMARK    2  A    between atoms: C_5  and  C_6
REMARK    3  A    between atoms: C_12  and  C_13
REMARK    4  A    between atoms: N_15  and  C_16
REMARK                            x       y       z     vdW  Elec       q    Type
REMARK                         _______ _______ _______ _____ _____    ______ ____
ROOT
ATOM      1  C   UNL     1       2.469   5.169  19.249  0.00  0.00    +0.000 A 
ATOM      2  N   UNL     1       3.086   4.041  18.843  0.00  0.00    +0.000 NA
ATOM      3  C   UNL     1       4.081   4.157  17.923  0.00  0.00    +0.000 A 
ATOM      4  C   UNL     1       4.519   5.362  17.387  0.00  0.00    +0.000 A 
ATOM      5  C   UNL     1       3.881   6.514  17.843  0.00  0.00    +0.000 A 
ATOM      6  C   UNL     1       2.843   6.428  18.783  0.00  0.00    +0.000 A 
ENDROOT
BRANCH   4   7
ATOM      7  C   UNL     1       5.582   5.420  16.401  0.00  0.00    +0.000 A 
ATOM      8  C   UNL     1       5.587   5.128  15.018  0.00  0.00    +0.000 A 
ATOM      9  N   UNL     1       6.782   5.318  14.452  0.00  0.00    +0.000 NA
ATOM     10  N   UNL     1       7.551   5.731  15.471  0.00  0.00    +0.000 N 
ATOM     11  C   UNL     1       6.881   5.812  16.657  0.00  0.00    +0.000 A 
ATOM     12  H   UNL     1       8.526   5.944  15.285  0.00  0.00    +0.000 HD
ENDBRANCH   4   7
BRANCH   6  13
ATOM     13  C   UNL     1       2.181   7.698  19.175  0.00  0.00    +0.000 C 
ATOM     14  O   UNL     1       1.943   7.854  20.368  0.00  0.00    +0.000 OA
ATOM     15  N   UNL     1       1.836   8.562  18.153  0.00  0.00    +0.000 N 
ATOM     16  H   UNL     1       2.014   8.247  17.204  0.00  0.00    +0.000 HD
BRANCH  15  17
ATOM     17  C   UNL     1       1.153   9.791  18.312  0.00  0.00    +0.000 A 
ATOM     18  C   UNL     1      -0.235   9.904  18.270  0.00  0.00    +0.000 A 
ATOM     19  C   UNL     1      -0.808  11.158  18.406  0.00  0.00    +0.000 A 
ATOM     20  N   UNL     1      -0.099  12.291  18.579  0.00  0.00    +0.000 NA
ATOM     21  C   UNL     1       1.244  12.159  18.627  0.00  0.00    +0.000 A 
ATOM     22  C   UNL     1       1.907  10.945  18.517  0.00  0.00    +0.000 A 
ENDBRANCH  15  17
ENDBRANCH   6  13
BRANCH   1  23
ATOM     23  N   UNL     1       1.441   4.963  20.171  0.00  0.00    +0.000 N 
ATOM     24  H   UNL     1       1.063   4.038  19.963  0.00  0.00    +0.000 HD
ATOM     25  H   UNL     1       0.716   5.670  20.064  0.00  0.00    +0.000 HD
ENDBRANCH   1  23
TORSDOF 4
ENDMDL
