MODEL 1
REMARK VINA RESULT:      -7.7      0.000      0.000
REMARK  Name = 
REMARK  8 active torsions:
REMARK  status: ('A' for Active; 'I' for Inactive)
REMARK    1  A    between atoms: C_1  and  C_2
REMARK    2  A    between atoms: C_2  and  C_3
REMARK    3  A    between atoms: C_6  and  S_7
REMARK    4  A    between atoms: S_7  and  C_10
REMARK    5  A    between atoms: C_15  and  O_16
REMARK    6  A    between atoms: O_16  and  C_17
REMARK    7  A    between atoms: C_18  and  O_19
REMARK    8  A    between atoms: O_19  and  C_20
REMARK                            x       y       z     vdW  Elec       q    Type
REMARK                         _______ _______ _______ _____ _____    ______ ____
ROOT
ATOM      1  C   UNL     1       5.009   5.851  18.175  0.00  0.00    +0.000 A 
ATOM      2  C   UNL     1       4.636   5.324  19.357  0.00  0.00    +0.000 A 
ATOM      3  N   UNL     1       3.491   5.648  20.041  0.00  0.00    +0.000 N 
ATOM      4  C   UNL     1       2.719   6.755  19.657  0.00  0.00    +0.000 A 
ATOM      5  C   UNL     1       1.707   7.236  20.488  0.00  0.00    +0.000 A 
ATOM      6  C   UNL     1       1.035   8.427  20.190  0.00  0.00    +0.000 A 
ATOM      7  C   UNL     1       1.426   9.200  19.078  0.00  0.00    +0.000 A 
ATOM      8  C   UNL     1       2.408   8.692  18.210  0.00  0.00    +0.000 A 
ATOM      9  C   UNL     1       3.059   7.476  18.506  0.00  0.00    +0.000 A 
ATOM     10  C   UNL     1       4.102   6.874  17.601  0.00  0.00    +0.000 A 
ATOM     11  O   UNL     1       4.119   7.206  16.422  0.00  0.00    +0.000 OA
ATOM     12  H   UNL     1       2.990   4.885  20.490  0.00  0.00    +0.000 HD
ENDROOT
BRANCH   1  13
ATOM     13  S   UNL     1       6.605   5.496  17.578  0.00  0.00    +0.000 S 
ATOM     14  O   UNL     1       7.203   4.483  18.448  0.00  0.00    +0.000 OA
ATOM     15  O   UNL     1       7.313   6.749  17.405  0.00  0.00    +0.000 OA
BRANCH  13  19
ATOM     16  C   UNL     1       6.202   3.798  13.312  0.00  0.00    +0.000 A 
ATOM     17  C   UNL     1       5.392   3.332  14.350  0.00  0.00    +0.000 A 
ATOM     18  C   UNL     1       5.559   3.801  15.658  0.00  0.00    +0.000 A 
ATOM     19  C   UNL     1       6.553   4.729  15.965  0.00  0.00    +0.000 A 
ATOM     20  C   UNL     1       7.342   5.226  14.922  0.00  0.00    +0.000 A 
ATOM     21  C   UNL     1       7.170   4.764  13.606  0.00  0.00    +0.000 A 
BRANCH  16  23
ATOM     22  C   UNL     1       4.545   3.201  11.489  0.00  0.00    +0.000 C 
ATOM     23  C   UNL     1       6.007   3.275  11.907  0.00  0.00    +0.000 C 
ENDBRANCH  16  23
ENDBRANCH  13  19
ENDBRANCH   1  13
BRANCH   6  24
ATOM     24  O   UNL     1       0.072   8.750  21.115  0.00  0.00    +0.000 OA
ATOM     25  C   UNL     1       0.523   9.326  22.338  0.00  0.00    +0.000 C 
ENDBRANCH   6  24
BRANCH   7  26
ATOM     26  O   UNL     1       0.823  10.420  18.966  0.00  0.00    +0.000 OA
ATOM     27  C   UNL     1       1.572  11.587  18.672  0.00  0.00    +0.000 C 
ENDBRANCH   7  26
TORSDOF 5
ENDMDL
MODEL 2
REMARK VINA RESULT:      -7.6      1.293      1.810
REMARK  Name = 
REMARK  8 active torsions:
REMARK  status: ('A' for Active; 'I' for Inactive)
REMARK    1  A    between atoms: C_1  and  C_2
REMARK    2  A    between atoms: C_2  and  C_3
REMARK    3  A    between atoms: C_6  and  S_7
REMARK    4  A    between atoms: S_7  and  C_10
REMARK    5  A    between atoms: C_15  and  O_16
REMARK    6  A    between atoms: O_16  and  C_17
REMARK    7  A    between atoms: C_18  and  O_19
REMARK    8  A    between atoms: O_19  and  C_20
REMARK                            x       y       z     vdW  Elec       q    Type
REMARK                         _______ _______ _______ _____ _____    ______ ____
ROOT
ATOM      1  C   UNL     1       3.752   5.498  19.366  0.00  0.00    +0.000 A 
ATOM      2  C   UNL     1       3.107   5.160  20.499  0.00  0.00    +0.000 A 
ATOM      3  N   UNL     1       2.012   5.811  21.009  0.00  0.00    +0.000 N 
ATOM      4  C   UNL     1       1.615   7.053  20.492  0.00  0.00    +0.000 A 
ATOM      5  C   UNL     1       0.670   7.830  21.162  0.00  0.00    +0.000 A 
ATOM      6  C   UNL     1       0.380   9.134  20.742  0.00  0.00    +0.000 A 
ATOM      7  C   UNL     1       1.097   9.708  19.674  0.00  0.00    +0.000 A 
ATOM      8  C   UNL     1       2.012   8.910  18.964  0.00  0.00    +0.000 A 
ATOM      9  C   UNL     1       2.275   7.589  19.380  0.00  0.00    +0.000 A 
ATOM     10  C   UNL     1       3.228   6.683  18.645  0.00  0.00    +0.000 A 
ATOM     11  O   UNL     1       3.480   6.925  17.470  0.00  0.00    +0.000 OA
ATOM     12  H   UNL     1       1.275   5.232  21.405  0.00  0.00    +0.000 HD
ENDROOT
BRANCH   1  13
ATOM     13  S   UNL     1       5.260   4.706  19.004  0.00  0.00    +0.000 S 
ATOM     14  O   UNL     1       5.127   3.292  19.355  0.00  0.00    +0.000 OA
ATOM     15  O   UNL     1       6.329   5.464  19.622  0.00  0.00    +0.000 OA
BRANCH  13  19
ATOM     16  C   UNL     1       6.323   4.345  14.534  0.00  0.00    +0.000 A 
ATOM     17  C   UNL     1       7.186   4.981  15.429  0.00  0.00    +0.000 A 
ATOM     18  C   UNL     1       6.834   5.148  16.773  0.00  0.00    +0.000 A 
ATOM     19  C   UNL     1       5.602   4.703  17.251  0.00  0.00    +0.000 A 
ATOM     20  C   UNL     1       4.750   4.031  16.367  0.00  0.00    +0.000 A 
ATOM     21  C   UNL     1       5.105   3.854  15.019  0.00  0.00    +0.000 A 
BRANCH  16  23
ATOM     22  C   UNL     1       5.788   3.267  12.303  0.00  0.00    +0.000 C 
ATOM     23  C   UNL     1       6.722   4.179  13.085  0.00  0.00    +0.000 C 
ENDBRANCH  16  23
ENDBRANCH  13  19
ENDBRANCH   1  13
BRANCH   6  24
ATOM     24  O   UNL     1      -0.573   9.751  21.516  0.00  0.00    +0.000 OA
ATOM     25  C   UNL     1      -0.424   9.638  22.929  0.00  0.00    +0.000 C 
ENDBRANCH   6  24
BRANCH   7  26
ATOM     26  O   UNL     1       0.857  11.033  19.447  0.00  0.00    +0.000 OA
ATOM     27  C   UNL     1      -0.241  11.458  18.658  0.00  0.00    +0.000 C 
ENDBRANCH   7  26
TORSDOF 5
ENDMDL
MODEL 3
REMARK VINA RESULT:      -7.5      1.218      1.506
REMARK  Name = 
REMARK  8 active torsions:
REMARK  status: ('A' for Active; 'I' for Inactive)
REMARK    1  A    between atoms: C_1  and  C_2
REMARK    2  A    between atoms: C_2  and  C_3
REMARK    3  A    between atoms: C_6  and  S_7
REMARK    4  A    between atoms: S_7  and  C_10
REMARK    5  A    between atoms: C_15  and  O_16
REMARK    6  A    between atoms: O_16  and  C_17
REMARK    7  A    between atoms: C_18  and  O_19
REMARK    8  A    between atoms: O_19  and  C_20
REMARK                            x       y       z     vdW  Elec       q    Type
REMARK                         _______ _______ _______ _____ _____    ______ ____
ROOT
ATOM      1  C   UNL     1       3.918   5.539  19.166  0.00  0.00    +0.000 A 
ATOM      2  C   UNL     1       3.189   5.414  20.291  0.00  0.00    +0.000 A 
ATOM      3  N   UNL     1       2.109   6.193  20.624  0.00  0.00    +0.000 N 
ATOM      4  C   UNL     1       1.820   7.359  19.900  0.00  0.00    +0.000 A 
ATOM      5  C   UNL     1       0.888   8.278  20.382  0.00  0.00    +0.000 A 
ATOM      6  C   UNL     1       0.703   9.515  19.751  0.00  0.00    +0.000 A 
ATOM      7  C   UNL     1       1.515   9.879  18.659  0.00  0.00    +0.000 A 
ATOM      8  C   UNL     1       2.418   8.934  18.139  0.00  0.00    +0.000 A 
ATOM      9  C   UNL     1       2.575   7.681  18.766  0.00  0.00    +0.000 A 
ATOM     10  C   UNL     1       3.510   6.624  18.241  0.00  0.00    +0.000 A 
ATOM     11  O   UNL     1       3.844   6.668  17.062  0.00  0.00    +0.000 OA
ATOM     12  H   UNL     1       1.316   5.721  21.053  0.00  0.00    +0.000 HD
ENDROOT
BRANCH   1  13
ATOM     13  S   UNL     1       5.393   4.623  19.028  0.00  0.00    +0.000 S 
ATOM     14  O   UNL     1       5.141   3.275  19.538  0.00  0.00    +0.000 OA
ATOM     15  O   UNL     1       6.462   5.392  19.634  0.00  0.00    +0.000 OA
BRANCH  13  19
ATOM     16  C   UNL     1       6.405   4.327  14.542  0.00  0.00    +0.000 A 
ATOM     17  C   UNL     1       5.263   3.715  15.062  0.00  0.00    +0.000 A 
ATOM     18  C   UNL     1       4.990   3.750  16.434  0.00  0.00    +0.000 A 
ATOM     19  C   UNL     1       5.862   4.377  17.323  0.00  0.00    +0.000 A 
ATOM     20  C   UNL     1       6.989   5.024  16.801  0.00  0.00    +0.000 A 
ATOM     21  C   UNL     1       7.260   4.999  15.423  0.00  0.00    +0.000 A 
BRANCH  16  23
ATOM     22  C   UNL     1       5.778   3.304  12.310  0.00  0.00    +0.000 C 
ATOM     23  C   UNL     1       6.682   4.273  13.057  0.00  0.00    +0.000 C 
ENDBRANCH  16  23
ENDBRANCH  13  19
ENDBRANCH   1  13
BRANCH   6  24
ATOM     24  O   UNL     1      -0.252  10.293  20.358  0.00  0.00    +0.000 OA
ATOM     25  C   UNL     1      -0.096  10.528  21.755  0.00  0.00    +0.000 C 
ENDBRANCH   6  24
BRANCH   7  26
ATOM     26  O   UNL     1       1.371  11.164  18.218  0.00  0.00    +0.000 OA
ATOM     27  C   UNL     1       2.080  12.233  18.821  0.00  0.00    +0.000 C 
ENDBRANCH   7  26
TORSDOF 5
ENDMDL
MODEL 4
REMARK VINA RESULT:      -7.4      0.643      1.129
REMARK  Name = 
REMARK  8 active torsions:
REMARK  status: ('A' for Active; 'I' for Inactive)
REMARK    1  A    between atoms: C_1  and  C_2
REMARK    2  A    between atoms: C_2  and  C_3
REMARK    3  A    between atoms: C_6  and  S_7
REMARK    4  A    between atoms: S_7  and  C_10
REMARK    5  A    between atoms: C_15  and  O_16
REMARK    6  A    between atoms: O_16  and  C_17
REMARK    7  A    between atoms: C_18  and  O_19
REMARK    8  A    between atoms: O_19  and  C_20
REMARK                            x       y       z     vdW  Elec       q    Type
REMARK                         _______ _______ _______ _____ _____    ______ ____
ROOT
ATOM      1  C   UNL     1       4.548   6.104  18.326  0.00  0.00    +0.000 A 
ATOM      2  C   UNL     1       4.095   5.691  19.525  0.00  0.00    +0.000 A 
ATOM      3  N   UNL     1       2.963   6.158  20.145  0.00  0.00    +0.000 N 
ATOM      4  C   UNL     1       2.303   7.298  19.663  0.00  0.00    +0.000 A 
ATOM      5  C   UNL     1       1.313   7.918  20.425  0.00  0.00    +0.000 A 
ATOM      6  C   UNL     1       0.756   9.140  20.026  0.00  0.00    +0.000 A 
ATOM      7  C   UNL     1       1.246   9.800  18.882  0.00  0.00    +0.000 A 
ATOM      8  C   UNL     1       2.206   9.152  18.084  0.00  0.00    +0.000 A 
ATOM      9  C   UNL     1       2.739   7.908  18.481  0.00  0.00    +0.000 A 
ATOM     10  C   UNL     1       3.752   7.160  17.655  0.00  0.00    +0.000 A 
ATOM     11  O   UNL     1       3.833   7.408  16.458  0.00  0.00    +0.000 OA
ATOM     12  H   UNL     1       2.384   5.472  20.625  0.00  0.00    +0.000 HD
ENDROOT
BRANCH   1  13
ATOM     13  S   UNL     1       6.124   5.574  17.810  0.00  0.00    +0.000 S 
ATOM     14  O   UNL     1       6.457   4.352  18.543  0.00  0.00    +0.000 OA
ATOM     15  O   UNL     1       7.035   6.697  17.910  0.00  0.00    +0.000 OA
BRANCH  13  19
ATOM     16  C   UNL     1       6.321   3.971  13.494  0.00  0.00    +0.000 A 
ATOM     17  C   UNL     1       7.338   4.778  14.007  0.00  0.00    +0.000 A 
ATOM     18  C   UNL     1       7.247   5.318  15.295  0.00  0.00    +0.000 A 
ATOM     19  C   UNL     1       6.128   5.083  16.093  0.00  0.00    +0.000 A 
ATOM     20  C   UNL     1       5.123   4.244  15.597  0.00  0.00    +0.000 A 
ATOM     21  C   UNL     1       5.217   3.693  14.307  0.00  0.00    +0.000 A 
BRANCH  16  23
ATOM     22  C   UNL     1       5.171   2.707  11.621  0.00  0.00    +0.000 C 
ATOM     23  C   UNL     1       6.438   3.402  12.098  0.00  0.00    +0.000 C 
ENDBRANCH  16  23
ENDBRANCH  13  19
ENDBRANCH   1  13
BRANCH   6  24
ATOM     24  O   UNL     1      -0.203   9.605  20.893  0.00  0.00    +0.000 OA
ATOM     25  C   UNL     1      -0.385   8.872  22.103  0.00  0.00    +0.000 C 
ENDBRANCH   6  24
BRANCH   7  26
ATOM     26  O   UNL     1       0.756  11.056  18.669  0.00  0.00    +0.000 OA
ATOM     27  C   UNL     1       1.330  12.188  19.302  0.00  0.00    +0.000 C 
ENDBRANCH   7  26
TORSDOF 5
ENDMDL
MODEL 5
REMARK VINA RESULT:      -7.3      3.920      8.151
REMARK  Name = 
REMARK  8 active torsions:
REMARK  status: ('A' for Active; 'I' for Inactive)
REMARK    1  A    between atoms: C_1  and  C_2
REMARK    2  A    between atoms: C_2  and  C_3
REMARK    3  A    between atoms: C_6  and  S_7
REMARK    4  A    between atoms: S_7  and  C_10
REMARK    5  A    between atoms: C_15  and  O_16
REMARK    6  A    between atoms: O_16  and  C_17
REMARK    7  A    between atoms: C_18  and  O_19
REMARK    8  A    between atoms: O_19  and  C_20
REMARK                            x       y       z     vdW  Elec       q    Type
REMARK                         _______ _______ _______ _____ _____    ______ ____
ROOT
ATOM      1  C   UNL     1       1.618   9.020  19.683  0.00  0.00    +0.000 A 
ATOM      2  C   UNL     1       1.380   8.558  20.926  0.00  0.00    +0.000 A 
ATOM      3  N   UNL     1       1.577   7.265  21.340  0.00  0.00    +0.000 N 
ATOM      4  C   UNL     1       1.830   6.247  20.408  0.00  0.00    +0.000 A 
ATOM      5  C   UNL     1       1.780   4.907  20.791  0.00  0.00    +0.000 A 
ATOM      6  C   UNL     1       1.878   3.882  19.842  0.00  0.00    +0.000 A 
ATOM      7  C   UNL     1       1.953   4.194  18.470  0.00  0.00    +0.000 A 
ATOM      8  C   UNL     1       2.057   5.543  18.086  0.00  0.00    +0.000 A 
ATOM      9  C   UNL     1       1.986   6.566  19.053  0.00  0.00    +0.000 A 
ATOM     10  C   UNL     1       2.113   8.025  18.701  0.00  0.00    +0.000 A 
ATOM     11  O   UNL     1       2.671   8.330  17.654  0.00  0.00    +0.000 OA
ATOM     12  H   UNL     1       1.972   7.133  22.268  0.00  0.00    +0.000 HD
ENDROOT
BRANCH   1  13
ATOM     13  S   UNL     1       1.085  10.628  19.281  0.00  0.00    +0.000 S 
ATOM     14  O   UNL     1       1.889  11.107  18.158  0.00  0.00    +0.000 OA
ATOM     15  O   UNL     1       1.072  11.418  20.496  0.00  0.00    +0.000 OA
BRANCH  13  19
ATOM     16  C   UNL     1      -3.130  10.932  17.441  0.00  0.00    +0.000 A 
ATOM     17  C   UNL     1      -2.772  11.703  18.549  0.00  0.00    +0.000 A 
ATOM     18  C   UNL     1      -1.515  11.563  19.147  0.00  0.00    +0.000 A 
ATOM     19  C   UNL     1      -0.593  10.634  18.668  0.00  0.00    +0.000 A 
ATOM     20  C   UNL     1      -0.932   9.886  17.534  0.00  0.00    +0.000 A 
ATOM     21  C   UNL     1      -2.191  10.032  16.926  0.00  0.00    +0.000 A 
BRANCH  16  23
ATOM     22  C   UNL     1      -5.615  11.238  17.834  0.00  0.00    +0.000 C 
ATOM     23  C   UNL     1      -4.495  11.096  16.813  0.00  0.00    +0.000 C 
ENDBRANCH  16  23
ENDBRANCH  13  19
ENDBRANCH   1  13
BRANCH   6  24
ATOM     24  O   UNL     1       1.810   2.626  20.395  0.00  0.00    +0.000 OA
ATOM     25  C   UNL     1       2.589   2.397  21.567  0.00  0.00    +0.000 C 
ENDBRANCH   6  24
BRANCH   7  26
ATOM     26  O   UNL     1       1.880   3.130  17.618  0.00  0.00    +0.000 OA
ATOM     27  C   UNL     1       3.011   2.316  17.357  0.00  0.00    +0.000 C 
ENDBRANCH   7  26
TORSDOF 5
ENDMDL
MODEL 6
REMARK VINA RESULT:      -7.1      3.681      7.931
REMARK  Name = 
REMARK  8 active torsions:
REMARK  status: ('A' for Active; 'I' for Inactive)
REMARK    1  A    between atoms: C_1  and  C_2
REMARK    2  A    between atoms: C_2  and  C_3
REMARK    3  A    between atoms: C_6  and  S_7
REMARK    4  A    between atoms: S_7  and  C_10
REMARK    5  A    between atoms: C_15  and  O_16
REMARK    6  A    between atoms: O_16  and  C_17
REMARK    7  A    between atoms: C_18  and  O_19
REMARK    8  A    between atoms: O_19  and  C_20
REMARK                            x       y       z     vdW  Elec       q    Type
REMARK                         _______ _______ _______ _____ _____    ______ ____
ROOT
ATOM      1  C   UNL     1       1.206   9.406  20.099  0.00  0.00    +0.000 A 
ATOM      2  C   UNL     1       1.042   8.715  21.243  0.00  0.00    +0.000 A 
ATOM      3  N   UNL     1       1.522   7.451  21.479  0.00  0.00    +0.000 N 
ATOM      4  C   UNL     1       2.036   6.675  20.430  0.00  0.00    +0.000 A 
ATOM      5  C   UNL     1       2.288   5.315  20.613  0.00  0.00    +0.000 A 
ATOM      6  C   UNL     1       2.653   4.499  19.535  0.00  0.00    +0.000 A 
ATOM      7  C   UNL     1       2.699   5.029  18.231  0.00  0.00    +0.000 A 
ATOM      8  C   UNL     1       2.498   6.410  18.052  0.00  0.00    +0.000 A 
ATOM      9  C   UNL     1       2.157   7.227  19.149  0.00  0.00    +0.000 A 
ATOM     10  C   UNL     1       1.952   8.713  19.020  0.00  0.00    +0.000 A 
ATOM     11  O   UNL     1       2.458   9.295  18.068  0.00  0.00    +0.000 OA
ATOM     12  H   UNL     1       1.906   7.269  22.404  0.00  0.00    +0.000 HD
ENDROOT
BRANCH   1  13
ATOM     13  S   UNL     1       0.326  10.894  19.896  0.00  0.00    +0.000 S 
ATOM     14  O   UNL     1       1.218  11.869  19.269  0.00  0.00    +0.000 OA
ATOM     15  O   UNL     1      -0.275  11.241  21.169  0.00  0.00    +0.000 OA
BRANCH  13  19
ATOM     16  C   UNL     1      -2.964  10.679  16.676  0.00  0.00    +0.000 A 
ATOM     17  C   UNL     1      -3.029  11.618  17.709  0.00  0.00    +0.000 A 
ATOM     18  C   UNL     1      -2.065  11.640  18.722  0.00  0.00    +0.000 A 
ATOM     19  C   UNL     1      -1.025  10.712  18.742  0.00  0.00    +0.000 A 
ATOM     20  C   UNL     1      -0.934   9.794  17.689  0.00  0.00    +0.000 A 
ATOM     21  C   UNL     1      -1.896   9.776  16.665  0.00  0.00    +0.000 A 
BRANCH  16  23
ATOM     22  C   UNL     1      -3.509  10.149  14.258  0.00  0.00    +0.000 C 
ATOM     23  C   UNL     1      -4.019  10.671  15.594  0.00  0.00    +0.000 C 
ENDBRANCH  16  23
ENDBRANCH  13  19
ENDBRANCH   1  13
BRANCH   6  24
ATOM     24  O   UNL     1       2.862   3.190  19.896  0.00  0.00    +0.000 OA
ATOM     25  C   UNL     1       1.716   2.341  19.922  0.00  0.00    +0.000 C 
ENDBRANCH   6  24
BRANCH   7  26
ATOM     26  O   UNL     1       2.904   4.122  17.231  0.00  0.00    +0.000 OA
ATOM     27  C   UNL     1       4.207   3.838  16.750  0.00  0.00    +0.000 C 
ENDBRANCH   7  26
TORSDOF 5
ENDMDL
MODEL 7
REMARK VINA RESULT:      -7.1      2.900      8.301
REMARK  Name = 
REMARK  8 active torsions:
REMARK  status: ('A' for Active; 'I' for Inactive)
REMARK    1  A    between atoms: C_1  and  C_2
REMARK    2  A    between atoms: C_2  and  C_3
REMARK    3  A    between atoms: C_6  and  S_7
REMARK    4  A    between atoms: S_7  and  C_10
REMARK    5  A    between atoms: C_15  and  O_16
REMARK    6  A    between atoms: O_16  and  C_17
REMARK    7  A    between atoms: C_18  and  O_19
REMARK    8  A    between atoms: O_19  and  C_20
REMARK                            x       y       z     vdW  Elec       q    Type
REMARK                         _______ _______ _______ _____ _____    ______ ____
ROOT
ATOM      1  C   UNL     1       1.157   9.120  19.400  0.00  0.00    +0.000 A 
ATOM      2  C   UNL     1       1.149   8.508  20.601  0.00  0.00    +0.000 A 
ATOM      3  N   UNL     1       1.874   7.388  20.922  0.00  0.00    +0.000 N 
ATOM      4  C   UNL     1       2.518   6.643  19.923  0.00  0.00    +0.000 A 
ATOM      5  C   UNL     1       3.038   5.380  20.206  0.00  0.00    +0.000 A 
ATOM      6  C   UNL     1       3.544   4.565  19.186  0.00  0.00    +0.000 A 
ATOM      7  C   UNL     1       3.466   4.982  17.843  0.00  0.00    +0.000 A 
ATOM      8  C   UNL     1       2.991   6.276  17.560  0.00  0.00    +0.000 A 
ATOM      9  C   UNL     1       2.510   7.099  18.599  0.00  0.00    +0.000 A 
ATOM     10  C   UNL     1       2.011   8.500  18.358  0.00  0.00    +0.000 A 
ATOM     11  O   UNL     1       2.378   9.088  17.348  0.00  0.00    +0.000 OA
ATOM     12  H   UNL     1       2.299   7.364  21.846  0.00  0.00    +0.000 HD
ENDROOT
BRANCH   1  13
ATOM     13  S   UNL     1      -0.004  10.383  19.106  0.00  0.00    +0.000 S 
ATOM     14  O   UNL     1      -0.902  10.453  20.259  0.00  0.00    +0.000 OA
ATOM     15  O   UNL     1      -0.590  10.164  17.799  0.00  0.00    +0.000 OA
BRANCH  13  19
ATOM     16  C   UNL     1       1.868  14.558  18.557  0.00  0.00    +0.000 A 
ATOM     17  C   UNL     1       2.606  13.400  18.301  0.00  0.00    +0.000 A 
ATOM     18  C   UNL     1       2.059  12.133  18.530  0.00  0.00    +0.000 A 
ATOM     19  C   UNL     1       0.770  11.991  19.041  0.00  0.00    +0.000 A 
ATOM     20  C   UNL     1       0.013  13.148  19.263  0.00  0.00    +0.000 A 
ATOM     21  C   UNL     1       0.557  14.421  19.025  0.00  0.00    +0.000 A 
BRANCH  16  23
ATOM     22  C   UNL     1       3.672  15.876  17.359  0.00  0.00    +0.000 C 
ATOM     23  C   UNL     1       2.481  15.917  18.305  0.00  0.00    +0.000 C 
ENDBRANCH  16  23
ENDBRANCH  13  19
ENDBRANCH   1  13
BRANCH   6  24
ATOM     24  O   UNL     1       4.014   3.357  19.643  0.00  0.00    +0.000 OA
ATOM     25  C   UNL     1       3.167   2.635  20.534  0.00  0.00    +0.000 C 
ENDBRANCH   6  24
BRANCH   7  26
ATOM     26  O   UNL     1       3.834   4.053  16.913  0.00  0.00    +0.000 OA
ATOM     27  C   UNL     1       5.061   4.159  16.210  0.00  0.00    +0.000 C 
ENDBRANCH   7  26
TORSDOF 5
ENDMDL
MODEL 8
REMARK VINA RESULT:      -7.0      3.095      8.473
REMARK  Name = 
REMARK  8 active torsions:
REMARK  status: ('A' for Active; 'I' for Inactive)
REMARK    1  A    between atoms: C_1  and  C_2
REMARK    2  A    between atoms: C_2  and  C_3
REMARK    3  A    between atoms: C_6  and  S_7
REMARK    4  A    between atoms: S_7  and  C_10
REMARK    5  A    between atoms: C_15  and  O_16
REMARK    6  A    between atoms: O_16  and  C_17
REMARK    7  A    between atoms: C_18  and  O_19
REMARK    8  A    between atoms: O_19  and  C_20
REMARK                            x       y       z     vdW  Elec       q    Type
REMARK                         _______ _______ _______ _____ _____    ______ ____
ROOT
ATOM      1  C   UNL     1       0.949   9.490  19.423  0.00  0.00    +0.000 A 
ATOM      2  C   UNL     1       0.931   8.910  20.638  0.00  0.00    +0.000 A 
ATOM      3  N   UNL     1       1.645   7.792  20.991  0.00  0.00    +0.000 N 
ATOM      4  C   UNL     1       2.286   7.016  20.014  0.00  0.00    +0.000 A 
ATOM      5  C   UNL     1       2.793   5.756  20.330  0.00  0.00    +0.000 A 
ATOM      6  C   UNL     1       3.296   4.911  19.334  0.00  0.00    +0.000 A 
ATOM      7  C   UNL     1       3.226   5.294  17.980  0.00  0.00    +0.000 A 
ATOM      8  C   UNL     1       2.764   6.584  17.663  0.00  0.00    +0.000 A 
ATOM      9  C   UNL     1       2.286   7.438  18.679  0.00  0.00    +0.000 A 
ATOM     10  C   UNL     1       1.801   8.836  18.400  0.00  0.00    +0.000 A 
ATOM     11  O   UNL     1       2.177   9.396  17.376  0.00  0.00    +0.000 OA
ATOM     12  H   UNL     1       2.067   7.788  21.917  0.00  0.00    +0.000 HD
ENDROOT
BRANCH   1  13
ATOM     13  S   UNL     1      -0.200  10.756  19.093  0.00  0.00    +0.000 S 
ATOM     14  O   UNL     1      -1.013  10.957  20.292  0.00  0.00    +0.000 OA
ATOM     15  O   UNL     1      -0.881  10.437  17.853  0.00  0.00    +0.000 OA
BRANCH  13  19
ATOM     16  C   UNL     1       1.873  14.862  18.803  0.00  0.00    +0.000 A 
ATOM     17  C   UNL     1       0.482  14.754  18.743  0.00  0.00    +0.000 A 
ATOM     18  C   UNL     1      -0.144  13.502  18.766  0.00  0.00    +0.000 A 
ATOM     19  C   UNL     1       0.605  12.328  18.826  0.00  0.00    +0.000 A 
ATOM     20  C   UNL     1       1.998  12.433  18.924  0.00  0.00    +0.000 A 
ATOM     21  C   UNL     1       2.628  13.689  18.911  0.00  0.00    +0.000 A 
BRANCH  16  23
ATOM     22  C   UNL     1       3.032  16.620  17.393  0.00  0.00    +0.000 C 
ATOM     23  C   UNL     1       2.528  16.224  18.773  0.00  0.00    +0.000 C 
ENDBRANCH  16  23
ENDBRANCH  13  19
ENDBRANCH   1  13
BRANCH   6  24
ATOM     24  O   UNL     1       3.753   3.711  19.823  0.00  0.00    +0.000 OA
ATOM     25  C   UNL     1       2.766   2.761  20.219  0.00  0.00    +0.000 C 
ENDBRANCH   6  24
BRANCH   7  26
ATOM     26  O   UNL     1       3.589   4.338  17.075  0.00  0.00    +0.000 OA
ATOM     27  C   UNL     1       4.879   4.333  16.486  0.00  0.00    +0.000 C 
ENDBRANCH   7  26
TORSDOF 5
ENDMDL
MODEL 9
REMARK VINA RESULT:      -6.9      3.536      7.806
REMARK  Name = 
REMARK  8 active torsions:
REMARK  status: ('A' for Active; 'I' for Inactive)
REMARK    1  A    between atoms: C_1  and  C_2
REMARK    2  A    between atoms: C_2  and  C_3
REMARK    3  A    between atoms: C_6  and  S_7
REMARK    4  A    between atoms: S_7  and  C_10
REMARK    5  A    between atoms: C_15  and  O_16
REMARK    6  A    between atoms: O_16  and  C_17
REMARK    7  A    between atoms: C_18  and  O_19
REMARK    8  A    between atoms: O_19  and  C_20
REMARK                            x       y       z     vdW  Elec       q    Type
REMARK                         _______ _______ _______ _____ _____    ______ ____
ROOT
ATOM      1  C   UNL     1       1.229   9.295  20.027  0.00  0.00    +0.000 A 
ATOM      2  C   UNL     1       1.024   8.547  21.128  0.00  0.00    +0.000 A 
ATOM      3  N   UNL     1       1.513   7.280  21.325  0.00  0.00    +0.000 N 
ATOM      4  C   UNL     1       2.086   6.563  20.265  0.00  0.00    +0.000 A 
ATOM      5  C   UNL     1       2.351   5.199  20.393  0.00  0.00    +0.000 A 
ATOM      6  C   UNL     1       2.778   4.442  19.295  0.00  0.00    +0.000 A 
ATOM      7  C   UNL     1       2.875   5.036  18.022  0.00  0.00    +0.000 A 
ATOM      8  C   UNL     1       2.660   6.420  17.900  0.00  0.00    +0.000 A 
ATOM      9  C   UNL     1       2.257   7.178  19.019  0.00  0.00    +0.000 A 
ATOM     10  C   UNL     1       2.034   8.666  18.952  0.00  0.00    +0.000 A 
ATOM     11  O   UNL     1       2.574   9.301  18.053  0.00  0.00    +0.000 OA
ATOM     12  H   UNL     1       1.857   7.058  22.256  0.00  0.00    +0.000 HD
ENDROOT
BRANCH   1  13
ATOM     13  S   UNL     1       0.336  10.779  19.856  0.00  0.00    +0.000 S 
ATOM     14  O   UNL     1       1.286  11.852  19.564  0.00  0.00    +0.000 OA
ATOM     15  O   UNL     1      -0.523  10.927  21.015  0.00  0.00    +0.000 OA
BRANCH  13  19
ATOM     16  C   UNL     1      -2.745  10.535  16.437  0.00  0.00    +0.000 A 
ATOM     17  C   UNL     1      -1.894   9.463  16.715  0.00  0.00    +0.000 A 
ATOM     18  C   UNL     1      -0.915   9.562  17.710  0.00  0.00    +0.000 A 
ATOM     19  C   UNL     1      -0.747  10.740  18.437  0.00  0.00    +0.000 A 
ATOM     20  C   UNL     1      -1.623  11.804  18.188  0.00  0.00    +0.000 A 
ATOM     21  C   UNL     1      -2.613  11.703  17.196  0.00  0.00    +0.000 A 
BRANCH  16  23
ATOM     22  C   UNL     1      -3.210  10.084  13.987  0.00  0.00    +0.000 C 
ATOM     23  C   UNL     1      -3.793  10.408  15.355  0.00  0.00    +0.000 C 
ENDBRANCH  16  23
ENDBRANCH  13  19
ENDBRANCH   1  13
BRANCH   6  24
ATOM     24  O   UNL     1       2.991   3.120  19.602  0.00  0.00    +0.000 OA
ATOM     25  C   UNL     1       4.333   2.737  19.896  0.00  0.00    +0.000 C 
ENDBRANCH   6  24
BRANCH   7  26
ATOM     26  O   UNL     1       3.140   4.181  16.990  0.00  0.00    +0.000 OA
ATOM     27  C   UNL     1       4.442   4.071  16.441  0.00  0.00    +0.000 C 
ENDBRANCH   7  26
TORSDOF 5
ENDMDL
