MODEL 1
REMARK VINA RESULT:      -8.1      0.000      0.000
REMARK  Name = 
REMARK  6 active torsions:
REMARK  status: ('A' for Active; 'I' for Inactive)
REMARK    1  A    between atoms: C_1  and  O_2
REMARK    2  A    between atoms: O_2  and  C_3
REMARK    3  A    between atoms: C_6  and  C_7
REMARK    4  A    between atoms: C_12  and  C_14
REMARK    5  A    between atoms: C_17  and  S_18
REMARK    6  A    between atoms: S_18  and  N_21
REMARK                            x       y       z     vdW  Elec       q    Type
REMARK                         _______ _______ _______ _____ _____    ______ ____
ROOT
ATOM      1  C   UNL     1      -1.249  11.976  19.531  0.00  0.00    +0.000 A 
ATOM      2  C   UNL     1      -1.927  12.453  20.672  0.00  0.00    +0.000 A 
ATOM      3  C   UNL     1      -1.725  11.907  21.929  0.00  0.00    +0.000 A 
ATOM      4  C   UNL     1      -0.825  10.856  22.126  0.00  0.00    +0.000 A 
ATOM      5  C   UNL     1      -0.623  10.222  23.474  0.00  0.00    +0.000 C 
ATOM      6  C   UNL     1      -0.135  10.403  20.986  0.00  0.00    +0.000 A 
ATOM      7  S   UNL     1       1.032   9.156  20.958  0.00  0.00    +0.000 S 
ATOM      8  C   UNL     1       1.146   9.283  19.279  0.00  0.00    +0.000 A 
ATOM      9  N   UNL     1       1.968   8.420  18.589  0.00  0.00    +0.000 N 
ATOM     10  C   UNL     1       2.411   7.196  19.078  0.00  0.00    +0.000 C 
ATOM     11  O   UNL     1       2.123   6.666  20.145  0.00  0.00    +0.000 OA
ATOM     12  N   UNL     1       0.479  10.273  18.724  0.00  0.00    +0.000 NA
ATOM     13  C   UNL     1      -0.309  10.916  19.700  0.00  0.00    +0.000 A 
ATOM     14  H   UNL     1       2.090   8.662  17.617  0.00  0.00    +0.000 HD
ENDROOT
BRANCH  10  15
ATOM     15  C   UNL     1       3.285   6.429  18.166  0.00  0.00    +0.000 A 
ATOM     16  C   UNL     1       3.291   5.032  18.170  0.00  0.00    +0.000 A 
ATOM     17  C   UNL     1       4.173   4.343  17.340  0.00  0.00    +0.000 A 
ATOM     18  C   UNL     1       5.031   5.052  16.487  0.00  0.00    +0.000 A 
ATOM     19  C   UNL     1       4.990   6.448  16.449  0.00  0.00    +0.000 A 
ATOM     20  C   UNL     1       4.111   7.137  17.284  0.00  0.00    +0.000 A 
BRANCH  18  21
ATOM     21  S   UNL     1       6.333   4.175  15.630  0.00  0.00    +0.000 S 
ATOM     22  O   UNL     1       7.573   4.762  16.075  0.00  0.00    +0.000 OA
ATOM     23  O   UNL     1       6.074   2.760  15.799  0.00  0.00    +0.000 OA
BRANCH  21  24
ATOM     24  N   UNL     1       6.129   4.534  14.006  0.00  0.00    +0.000 NA
ATOM     25  C   UNL     1       5.094   3.874  13.204  0.00  0.00    +0.000 C 
ATOM     26  C   UNL     1       5.874   3.134  12.134  0.00  0.00    +0.000 C 
ATOM     27  C   UNL     1       7.098   4.001  11.885  0.00  0.00    +0.000 C 
ATOM     28  C   UNL     1       7.292   4.829  13.154  0.00  0.00    +0.000 C 
ENDBRANCH  21  24
ENDBRANCH  18  21
ENDBRANCH  10  15
BRANCH   1  30
ATOM     29  C   UNL     1      -2.337  11.757  17.419  0.00  0.00    +0.000 C 
ATOM     30  O   UNL     1      -1.459  12.492  18.268  0.00  0.00    +0.000 OA
ENDBRANCH   1  30
TORSDOF 4
ENDMDL
MODEL 2
REMARK VINA RESULT:      -7.9      3.373     11.073
REMARK  Name = 
REMARK  6 active torsions:
REMARK  status: ('A' for Active; 'I' for Inactive)
REMARK    1  A    between atoms: C_1  and  O_2
REMARK    2  A    between atoms: O_2  and  C_3
REMARK    3  A    between atoms: C_6  and  C_7
REMARK    4  A    between atoms: C_12  and  C_14
REMARK    5  A    between atoms: C_17  and  S_18
REMARK    6  A    between atoms: S_18  and  N_21
REMARK                            x       y       z     vdW  Elec       q    Type
REMARK                         _______ _______ _______ _____ _____    ______ ____
ROOT
ATOM      1  C   UNL     1       3.350   3.683  19.473  0.00  0.00    +0.000 A 
ATOM      2  C   UNL     1       4.165   3.165  18.445  0.00  0.00    +0.000 A 
ATOM      3  C   UNL     1       4.639   3.959  17.413  0.00  0.00    +0.000 A 
ATOM      4  C   UNL     1       4.338   5.322  17.351  0.00  0.00    +0.000 A 
ATOM      5  C   UNL     1       4.808   6.191  16.218  0.00  0.00    +0.000 C 
ATOM      6  C   UNL     1       3.545   5.834  18.394  0.00  0.00    +0.000 A 
ATOM      7  S   UNL     1       3.057   7.462  18.568  0.00  0.00    +0.000 S 
ATOM      8  C   UNL     1       2.133   7.055  19.921  0.00  0.00    +0.000 A 
ATOM      9  N   UNL     1       1.381   8.025  20.544  0.00  0.00    +0.000 N 
ATOM     10  C   UNL     1       0.984   9.217  19.947  0.00  0.00    +0.000 C 
ATOM     11  O   UNL     1       1.182   9.580  18.793  0.00  0.00    +0.000 OA
ATOM     12  N   UNL     1       2.249   5.817  20.351  0.00  0.00    +0.000 NA
ATOM     13  C   UNL     1       3.039   5.075  19.450  0.00  0.00    +0.000 A 
ATOM     14  H   UNL     1       0.983   7.731  21.424  0.00  0.00    +0.000 HD
ENDROOT
BRANCH  10  15
ATOM     15  C   UNL     1       0.178  10.114  20.801  0.00  0.00    +0.000 A 
ATOM     16  C   UNL     1      -0.094   9.797  22.134  0.00  0.00    +0.000 A 
ATOM     17  C   UNL     1      -0.910  10.636  22.891  0.00  0.00    +0.000 A 
ATOM     18  C   UNL     1      -1.432  11.806  22.321  0.00  0.00    +0.000 A 
ATOM     19  C   UNL     1      -1.120  12.146  21.002  0.00  0.00    +0.000 A 
ATOM     20  C   UNL     1      -0.308  11.303  20.243  0.00  0.00    +0.000 A 
BRANCH  18  21
ATOM     21  S   UNL     1      -2.681  12.729  23.208  0.00  0.00    +0.000 S 
ATOM     22  O   UNL     1      -3.491  11.752  23.892  0.00  0.00    +0.000 OA
ATOM     23  O   UNL     1      -1.997  13.775  23.939  0.00  0.00    +0.000 OA
BRANCH  21  24
ATOM     24  N   UNL     1      -3.620  13.467  22.032  0.00  0.00    +0.000 NA
ATOM     25  C   UNL     1      -3.902  14.905  22.075  0.00  0.00    +0.000 C 
ATOM     26  C   UNL     1      -5.412  14.980  22.210  0.00  0.00    +0.000 C 
ATOM     27  C   UNL     1      -5.923  13.762  21.457  0.00  0.00    +0.000 C 
ATOM     28  C   UNL     1      -4.769  12.762  21.442  0.00  0.00    +0.000 C 
ENDBRANCH  21  24
ENDBRANCH  18  21
ENDBRANCH  10  15
BRANCH   1  30
ATOM     29  C   UNL     1       1.541   2.364  20.299  0.00  0.00    +0.000 C 
ATOM     30  O   UNL     1       2.848   2.899  20.493  0.00  0.00    +0.000 OA
ENDBRANCH   1  30
TORSDOF 4
ENDMDL
MODEL 3
REMARK VINA RESULT:      -7.9      3.175     10.826
REMARK  Name = 
REMARK  6 active torsions:
REMARK  status: ('A' for Active; 'I' for Inactive)
REMARK    1  A    between atoms: C_1  and  O_2
REMARK    2  A    between atoms: O_2  and  C_3
REMARK    3  A    between atoms: C_6  and  C_7
REMARK    4  A    between atoms: C_12  and  C_14
REMARK    5  A    between atoms: C_17  and  S_18
REMARK    6  A    between atoms: S_18  and  N_21
REMARK                            x       y       z     vdW  Elec       q    Type
REMARK                         _______ _______ _______ _____ _____    ______ ____
ROOT
ATOM      1  C   UNL     1       3.259   3.856  19.001  0.00  0.00    +0.000 A 
ATOM      2  C   UNL     1       4.099   3.144  18.121  0.00  0.00    +0.000 A 
ATOM      3  C   UNL     1       4.747   3.761  17.062  0.00  0.00    +0.000 A 
ATOM      4  C   UNL     1       4.603   5.131  16.824  0.00  0.00    +0.000 A 
ATOM      5  C   UNL     1       5.263   5.811  15.658  0.00  0.00    +0.000 C 
ATOM      6  C   UNL     1       3.782   5.837  17.723  0.00  0.00    +0.000 A 
ATOM      7  S   UNL     1       3.462   7.515  17.672  0.00  0.00    +0.000 S 
ATOM      8  C   UNL     1       2.384   7.361  18.962  0.00  0.00    +0.000 A 
ATOM      9  N   UNL     1       1.691   8.468  19.399  0.00  0.00    +0.000 N 
ATOM     10  C   UNL     1       1.480   9.614  18.642  0.00  0.00    +0.000 C 
ATOM     11  O   UNL     1       1.818   9.819  17.481  0.00  0.00    +0.000 OA
ATOM     12  N   UNL     1       2.325   6.176  19.531  0.00  0.00    +0.000 NA
ATOM     13  C   UNL     1       3.105   5.260  18.798  0.00  0.00    +0.000 A 
ATOM     14  H   UNL     1       1.187   8.319  20.261  0.00  0.00    +0.000 HD
ENDROOT
BRANCH  10  15
ATOM     15  C   UNL     1       0.705  10.680  19.310  0.00  0.00    +0.000 A 
ATOM     16  C   UNL     1       1.334  11.803  19.854  0.00  0.00    +0.000 A 
ATOM     17  C   UNL     1       0.577  12.758  20.531  0.00  0.00    +0.000 A 
ATOM     18  C   UNL     1      -0.812  12.602  20.641  0.00  0.00    +0.000 A 
ATOM     19  C   UNL     1      -1.445  11.503  20.054  0.00  0.00    +0.000 A 
ATOM     20  C   UNL     1      -0.687  10.545  19.382  0.00  0.00    +0.000 A 
BRANCH  18  21
ATOM     21  S   UNL     1      -1.730  13.684  21.730  0.00  0.00    +0.000 S 
ATOM     22  O   UNL     1      -0.850  13.984  22.832  0.00  0.00    +0.000 OA
ATOM     23  O   UNL     1      -2.285  14.740  20.909  0.00  0.00    +0.000 OA
BRANCH  21  24
ATOM     24  N   UNL     1      -3.009  12.768  22.306  0.00  0.00    +0.000 NA
ATOM     25  C   UNL     1      -4.400  13.156  22.051  0.00  0.00    +0.000 C 
ATOM     26  C   UNL     1      -4.974  13.396  23.435  0.00  0.00    +0.000 C 
ATOM     27  C   UNL     1      -4.233  12.417  24.331  0.00  0.00    +0.000 C 
ATOM     28  C   UNL     1      -2.921  12.103  23.616  0.00  0.00    +0.000 C 
ENDBRANCH  21  24
ENDBRANCH  18  21
ENDBRANCH  10  15
BRANCH   1  30
ATOM     29  C   UNL     1       1.267   2.790  19.766  0.00  0.00    +0.000 C 
ATOM     30  O   UNL     1       2.587   3.251  20.043  0.00  0.00    +0.000 OA
ENDBRANCH   1  30
TORSDOF 4
ENDMDL
MODEL 4
REMARK VINA RESULT:      -7.9      3.010      3.726
REMARK  Name = 
REMARK  6 active torsions:
REMARK  status: ('A' for Active; 'I' for Inactive)
REMARK    1  A    between atoms: C_1  and  O_2
REMARK    2  A    between atoms: O_2  and  C_3
REMARK    3  A    between atoms: C_6  and  C_7
REMARK    4  A    between atoms: C_12  and  C_14
REMARK    5  A    between atoms: C_17  and  S_18
REMARK    6  A    between atoms: S_18  and  N_21
REMARK                            x       y       z     vdW  Elec       q    Type
REMARK                         _______ _______ _______ _____ _____    ______ ____
ROOT
ATOM      1  C   UNL     1      -3.497  12.195  19.240  0.00  0.00    +0.000 A 
ATOM      2  C   UNL     1      -4.110  13.105  20.126  0.00  0.00    +0.000 A 
ATOM      3  C   UNL     1      -3.575  13.390  21.372  0.00  0.00    +0.000 A 
ATOM      4  C   UNL     1      -2.388  12.791  21.806  0.00  0.00    +0.000 A 
ATOM      5  C   UNL     1      -1.814  13.055  23.169  0.00  0.00    +0.000 C 
ATOM      6  C   UNL     1      -1.772  11.904  20.904  0.00  0.00    +0.000 A 
ATOM      7  S   UNL     1      -0.308  11.065  21.175  0.00  0.00    +0.000 S 
ATOM      8  C   UNL     1      -0.485  10.256  19.704  0.00  0.00    +0.000 A 
ATOM      9  N   UNL     1       0.443   9.306  19.339  0.00  0.00    +0.000 N 
ATOM     10  C   UNL     1       1.291   8.652  20.227  0.00  0.00    +0.000 C 
ATOM     11  O   UNL     1       1.330   8.765  21.447  0.00  0.00    +0.000 OA
ATOM     12  N   UNL     1      -1.485  10.645  18.944  0.00  0.00    +0.000 NA
ATOM     13  C   UNL     1      -2.274  11.581  19.643  0.00  0.00    +0.000 A 
ATOM     14  H   UNL     1       0.345   8.984  18.388  0.00  0.00    +0.000 HD
ENDROOT
BRANCH  10  15
ATOM     15  C   UNL     1       2.207   7.666  19.617  0.00  0.00    +0.000 A 
ATOM     16  C   UNL     1       2.737   7.862  18.339  0.00  0.00    +0.000 A 
ATOM     17  C   UNL     1       3.548   6.880  17.771  0.00  0.00    +0.000 A 
ATOM     18  C   UNL     1       3.849   5.716  18.493  0.00  0.00    +0.000 A 
ATOM     19  C   UNL     1       3.358   5.545  19.789  0.00  0.00    +0.000 A 
ATOM     20  C   UNL     1       2.541   6.524  20.355  0.00  0.00    +0.000 A 
BRANCH  18  21
ATOM     21  S   UNL     1       4.664   4.358  17.661  0.00  0.00    +0.000 S 
ATOM     22  O   UNL     1       4.887   4.795  16.305  0.00  0.00    +0.000 OA
ATOM     23  O   UNL     1       5.768   3.946  18.503  0.00  0.00    +0.000 OA
BRANCH  21  24
ATOM     24  N   UNL     1       3.550   3.106  17.639  0.00  0.00    +0.000 NA
ATOM     25  C   UNL     1       2.169   3.323  17.198  0.00  0.00    +0.000 C 
ATOM     26  C   UNL     1       1.336   2.995  18.422  0.00  0.00    +0.000 C 
ATOM     27  C   UNL     1       2.123   1.910  19.140  0.00  0.00    +0.000 C 
ATOM     28  C   UNL     1       3.572   2.069  18.684  0.00  0.00    +0.000 C 
ENDBRANCH  21  24
ENDBRANCH  18  21
ENDBRANCH  10  15
BRANCH   1  30
ATOM     29  C   UNL     1      -5.186  11.045  18.008  0.00  0.00    +0.000 C 
ATOM     30  O   UNL     1      -4.032  11.881  18.006  0.00  0.00    +0.000 OA
ENDBRANCH   1  30
TORSDOF 4
ENDMDL
MODEL 5
REMARK VINA RESULT:      -7.9      3.427     10.939
REMARK  Name = 
REMARK  6 active torsions:
REMARK  status: ('A' for Active; 'I' for Inactive)
REMARK    1  A    between atoms: C_1  and  O_2
REMARK    2  A    between atoms: O_2  and  C_3
REMARK    3  A    between atoms: C_6  and  C_7
REMARK    4  A    between atoms: C_12  and  C_14
REMARK    5  A    between atoms: C_17  and  S_18
REMARK    6  A    between atoms: S_18  and  N_21
REMARK                            x       y       z     vdW  Elec       q    Type
REMARK                         _______ _______ _______ _____ _____    ______ ____
ROOT
ATOM      1  C   UNL     1       2.660   3.203  19.305  0.00  0.00    +0.000 A 
ATOM      2  C   UNL     1       3.425   2.524  18.334  0.00  0.00    +0.000 A 
ATOM      3  C   UNL     1       4.124   3.198  17.346  0.00  0.00    +0.000 A 
ATOM      4  C   UNL     1       4.112   4.594  17.274  0.00  0.00    +0.000 A 
ATOM      5  C   UNL     1       4.830   5.343  16.186  0.00  0.00    +0.000 C 
ATOM      6  C   UNL     1       3.366   5.263  18.261  0.00  0.00    +0.000 A 
ATOM      7  S   UNL     1       3.208   6.958  18.413  0.00  0.00    +0.000 S 
ATOM      8  C   UNL     1       2.124   6.755  19.692  0.00  0.00    +0.000 A 
ATOM      9  N   UNL     1       1.542   7.862  20.267  0.00  0.00    +0.000 N 
ATOM     10  C   UNL     1       1.439   9.106  19.654  0.00  0.00    +0.000 C 
ATOM     11  O   UNL     1       1.791   9.414  18.520  0.00  0.00    +0.000 OA
ATOM     12  N   UNL     1       1.954   5.522  20.119  0.00  0.00    +0.000 NA
ATOM     13  C   UNL     1       2.640   4.629  19.270  0.00  0.00    +0.000 A 
ATOM     14  H   UNL     1       1.030   7.661  21.113  0.00  0.00    +0.000 HD
ENDROOT
BRANCH  10  15
ATOM     15  C   UNL     1       0.772  10.153  20.454  0.00  0.00    +0.000 A 
ATOM     16  C   UNL     1       0.046   9.836  21.604  0.00  0.00    +0.000 A 
ATOM     17  C   UNL     1      -0.622  10.843  22.299  0.00  0.00    +0.000 A 
ATOM     18  C   UNL     1      -0.540  12.171  21.857  0.00  0.00    +0.000 A 
ATOM     19  C   UNL     1       0.227  12.494  20.735  0.00  0.00    +0.000 A 
ATOM     20  C   UNL     1       0.890  11.485  20.036  0.00  0.00    +0.000 A 
BRANCH  18  21
ATOM     21  S   UNL     1      -1.607  13.405  22.593  0.00  0.00    +0.000 S 
ATOM     22  O   UNL     1      -1.044  13.700  23.888  0.00  0.00    +0.000 OA
ATOM     23  O   UNL     1      -1.793  14.447  21.605  0.00  0.00    +0.000 OA
BRANCH  21  24
ATOM     24  N   UNL     1      -3.086  12.650  22.817  0.00  0.00    +0.000 NA
ATOM     25  C   UNL     1      -4.171  12.797  21.842  0.00  0.00    +0.000 C 
ATOM     26  C   UNL     1      -5.282  13.469  22.626  0.00  0.00    +0.000 C 
ATOM     27  C   UNL     1      -5.117  12.947  24.045  0.00  0.00    +0.000 C 
ATOM     28  C   UNL     1      -3.658  12.512  24.166  0.00  0.00    +0.000 C 
ENDBRANCH  21  24
ENDBRANCH  18  21
ENDBRANCH  10  15
BRANCH   1  30
ATOM     29  C   UNL     1       2.498   2.531  21.588  0.00  0.00    +0.000 C 
ATOM     30  O   UNL     1       1.936   2.545  20.278  0.00  0.00    +0.000 OA
ENDBRANCH   1  30
TORSDOF 4
ENDMDL
MODEL 6
REMARK VINA RESULT:      -7.9      3.070     11.105
REMARK  Name = 
REMARK  6 active torsions:
REMARK  status: ('A' for Active; 'I' for Inactive)
REMARK    1  A    between atoms: C_1  and  O_2
REMARK    2  A    between atoms: O_2  and  C_3
REMARK    3  A    between atoms: C_6  and  C_7
REMARK    4  A    between atoms: C_12  and  C_14
REMARK    5  A    between atoms: C_17  and  S_18
REMARK    6  A    between atoms: S_18  and  N_21
REMARK                            x       y       z     vdW  Elec       q    Type
REMARK                         _______ _______ _______ _____ _____    ______ ____
ROOT
ATOM      1  C   UNL     1       3.840   3.922  18.881  0.00  0.00    +0.000 A 
ATOM      2  C   UNL     1       4.719   3.423  17.897  0.00  0.00    +0.000 A 
ATOM      3  C   UNL     1       5.171   4.208  16.849  0.00  0.00    +0.000 A 
ATOM      4  C   UNL     1       4.782   5.546  16.726  0.00  0.00    +0.000 A 
ATOM      5  C   UNL     1       5.228   6.402  15.574  0.00  0.00    +0.000 C 
ATOM      6  C   UNL     1       3.925   6.041  17.725  0.00  0.00    +0.000 A 
ATOM      7  S   UNL     1       3.325   7.638  17.822  0.00  0.00    +0.000 S 
ATOM      8  C   UNL     1       2.389   7.219  19.163  0.00  0.00    +0.000 A 
ATOM      9  N   UNL     1       1.555   8.159  19.726  0.00  0.00    +0.000 N 
ATOM     10  C   UNL     1       1.098   9.298  19.073  0.00  0.00    +0.000 C 
ATOM     11  O   UNL     1       1.308   9.631  17.911  0.00  0.00    +0.000 OA
ATOM     12  N   UNL     1       2.573   6.008  19.644  0.00  0.00    +0.000 NA
ATOM     13  C   UNL     1       3.438   5.288  18.795  0.00  0.00    +0.000 A 
ATOM     14  H   UNL     1       1.151   7.871  20.605  0.00  0.00    +0.000 HD
ENDROOT
BRANCH  10  15
ATOM     15  C   UNL     1       0.209  10.169  19.867  0.00  0.00    +0.000 A 
ATOM     16  C   UNL     1      -0.749  10.981  19.254  0.00  0.00    +0.000 A 
ATOM     17  C   UNL     1      -1.529  11.837  20.030  0.00  0.00    +0.000 A 
ATOM     18  C   UNL     1      -1.368  11.860  21.423  0.00  0.00    +0.000 A 
ATOM     19  C   UNL     1      -0.444  11.012  22.039  0.00  0.00    +0.000 A 
ATOM     20  C   UNL     1       0.340  10.161  21.261  0.00  0.00    +0.000 A 
BRANCH  18  21
ATOM     21  S   UNL     1      -2.177  13.140  22.376  0.00  0.00    +0.000 S 
ATOM     22  O   UNL     1      -1.407  13.285  23.587  0.00  0.00    +0.000 OA
ATOM     23  O   UNL     1      -2.386  14.263  21.486  0.00  0.00    +0.000 OA
BRANCH  21  24
ATOM     24  N   UNL     1      -3.684  12.524  22.775  0.00  0.00    +0.000 NA
ATOM     25  C   UNL     1      -4.828  12.666  21.871  0.00  0.00    +0.000 C 
ATOM     26  C   UNL     1      -5.825  13.489  22.666  0.00  0.00    +0.000 C 
ATOM     27  C   UNL     1      -5.586  13.085  24.111  0.00  0.00    +0.000 C 
ATOM     28  C   UNL     1      -4.156  12.551  24.169  0.00  0.00    +0.000 C 
ENDBRANCH  21  24
ENDBRANCH  18  21
ENDBRANCH  10  15
BRANCH   1  30
ATOM     29  C   UNL     1       4.246   2.155  20.431  0.00  0.00    +0.000 C 
ATOM     30  O   UNL     1       3.360   3.145  19.915  0.00  0.00    +0.000 OA
ENDBRANCH   1  30
TORSDOF 4
ENDMDL
MODEL 7
REMARK VINA RESULT:      -7.8      2.902     10.528
REMARK  Name = 
REMARK  6 active torsions:
REMARK  status: ('A' for Active; 'I' for Inactive)
REMARK    1  A    between atoms: C_1  and  O_2
REMARK    2  A    between atoms: O_2  and  C_3
REMARK    3  A    between atoms: C_6  and  C_7
REMARK    4  A    between atoms: C_12  and  C_14
REMARK    5  A    between atoms: C_17  and  S_18
REMARK    6  A    between atoms: S_18  and  N_21
REMARK                            x       y       z     vdW  Elec       q    Type
REMARK                         _______ _______ _______ _____ _____    ______ ____
ROOT
ATOM      1  C   UNL     1       5.240   5.958  16.676  0.00  0.00    +0.000 A 
ATOM      2  C   UNL     1       5.517   4.638  16.266  0.00  0.00    +0.000 A 
ATOM      3  C   UNL     1       4.747   3.563  16.680  0.00  0.00    +0.000 A 
ATOM      4  C   UNL     1       3.644   3.742  17.521  0.00  0.00    +0.000 A 
ATOM      5  C   UNL     1       2.822   2.585  18.014  0.00  0.00    +0.000 C 
ATOM      6  C   UNL     1       3.362   5.066  17.904  0.00  0.00    +0.000 A 
ATOM      7  S   UNL     1       2.064   5.559  18.900  0.00  0.00    +0.000 S 
ATOM      8  C   UNL     1       2.624   7.151  18.863  0.00  0.00    +0.000 A 
ATOM      9  N   UNL     1       1.966   8.116  19.593  0.00  0.00    +0.000 N 
ATOM     10  C   UNL     1       1.131   7.854  20.673  0.00  0.00    +0.000 C 
ATOM     11  O   UNL     1       0.878   6.765  21.178  0.00  0.00    +0.000 OA
ATOM     12  N   UNL     1       3.638   7.392  18.060  0.00  0.00    +0.000 NA
ATOM     13  C   UNL     1       4.111   6.179  17.520  0.00  0.00    +0.000 A 
ATOM     14  H   UNL     1       2.274   9.057  19.396  0.00  0.00    +0.000 HD
ENDROOT
BRANCH  10  15
ATOM     15  C   UNL     1       0.531   9.042  21.313  0.00  0.00    +0.000 A 
ATOM     16  C   UNL     1      -0.150   8.946  22.530  0.00  0.00    +0.000 A 
ATOM     17  C   UNL     1      -0.757  10.077  23.073  0.00  0.00    +0.000 A 
ATOM     18  C   UNL     1      -0.659  11.310  22.412  0.00  0.00    +0.000 A 
ATOM     19  C   UNL     1       0.064  11.414  21.221  0.00  0.00    +0.000 A 
ATOM     20  C   UNL     1       0.666  10.281  20.674  0.00  0.00    +0.000 A 
BRANCH  18  21
ATOM     21  S   UNL     1      -1.655  12.685  22.974  0.00  0.00    +0.000 S 
ATOM     22  O   UNL     1      -2.746  12.110  23.723  0.00  0.00    +0.000 OA
ATOM     23  O   UNL     1      -0.754  13.641  23.584  0.00  0.00    +0.000 OA
BRANCH  21  24
ATOM     24  N   UNL     1      -2.277  13.391  21.588  0.00  0.00    +0.000 NA
ATOM     25  C   UNL     1      -2.505  14.837  21.506  0.00  0.00    +0.000 C 
ATOM     26  C   UNL     1      -4.003  14.961  21.294  0.00  0.00    +0.000 C 
ATOM     27  C   UNL     1      -4.379  13.723  20.497  0.00  0.00    +0.000 C 
ATOM     28  C   UNL     1      -3.291  12.691  20.783  0.00  0.00    +0.000 C 
ENDBRANCH  21  24
ENDBRANCH  18  21
ENDBRANCH  10  15
BRANCH   1  30
ATOM     29  C   UNL     1       7.097   7.378  17.155  0.00  0.00    +0.000 C 
ATOM     30  O   UNL     1       6.013   7.036  16.294  0.00  0.00    +0.000 OA
ENDBRANCH   1  30
TORSDOF 4
ENDMDL
MODEL 8
REMARK VINA RESULT:      -7.8      2.135      2.745
REMARK  Name = 
REMARK  6 active torsions:
REMARK  status: ('A' for Active; 'I' for Inactive)
REMARK    1  A    between atoms: C_1  and  O_2
REMARK    2  A    between atoms: O_2  and  C_3
REMARK    3  A    between atoms: C_6  and  C_7
REMARK    4  A    between atoms: C_12  and  C_14
REMARK    5  A    between atoms: C_17  and  S_18
REMARK    6  A    between atoms: S_18  and  N_21
REMARK                            x       y       z     vdW  Elec       q    Type
REMARK                         _______ _______ _______ _____ _____    ______ ____
ROOT
ATOM      1  C   UNL     1      -3.339  12.517  19.774  0.00  0.00    +0.000 A 
ATOM      2  C   UNL     1      -3.750  13.563  20.626  0.00  0.00    +0.000 A 
ATOM      3  C   UNL     1      -3.033  13.913  21.758  0.00  0.00    +0.000 A 
ATOM      4  C   UNL     1      -1.853  13.247  22.103  0.00  0.00    +0.000 A 
ATOM      5  C   UNL     1      -1.083  13.583  23.350  0.00  0.00    +0.000 C 
ATOM      6  C   UNL     1      -1.439  12.221  21.234  0.00  0.00    +0.000 A 
ATOM      7  S   UNL     1      -0.028  11.274  21.411  0.00  0.00    +0.000 S 
ATOM      8  C   UNL     1      -0.465  10.348  20.069  0.00  0.00    +0.000 A 
ATOM      9  N   UNL     1       0.323   9.282  19.696  0.00  0.00    +0.000 N 
ATOM     10  C   UNL     1       1.223   8.638  20.537  0.00  0.00    +0.000 C 
ATOM     11  O   UNL     1       1.433   8.862  21.724  0.00  0.00    +0.000 OA
ATOM     12  N   UNL     1      -1.522  10.758  19.400  0.00  0.00    +0.000 NA
ATOM     13  C   UNL     1      -2.130  11.828  20.087  0.00  0.00    +0.000 A 
ATOM     14  H   UNL     1       0.072   8.881  18.804  0.00  0.00    +0.000 HD
ENDROOT
BRANCH  10  15
ATOM     15  C   UNL     1       1.964   7.513  19.929  0.00  0.00    +0.000 A 
ATOM     16  C   UNL     1       2.077   6.282  20.579  0.00  0.00    +0.000 A 
ATOM     17  C   UNL     1       2.836   5.264  20.004  0.00  0.00    +0.000 A 
ATOM     18  C   UNL     1       3.459   5.470  18.765  0.00  0.00    +0.000 A 
ATOM     19  C   UNL     1       3.305   6.685  18.093  0.00  0.00    +0.000 A 
ATOM     20  C   UNL     1       2.550   7.706  18.672  0.00  0.00    +0.000 A 
BRANCH  18  21
ATOM     21  S   UNL     1       4.637   4.264  18.167  0.00  0.00    +0.000 S 
ATOM     22  O   UNL     1       5.662   4.170  19.178  0.00  0.00    +0.000 OA
ATOM     23  O   UNL     1       3.881   3.098  17.760  0.00  0.00    +0.000 OA
BRANCH  21  24
ATOM     24  N   UNL     1       5.313   4.934  16.788  0.00  0.00    +0.000 NA
ATOM     25  C   UNL     1       4.934   4.468  15.451  0.00  0.00    +0.000 C 
ATOM     26  C   UNL     1       6.227   3.928  14.870  0.00  0.00    +0.000 C 
ATOM     27  C   UNL     1       7.313   4.795  15.485  0.00  0.00    +0.000 C 
ATOM     28  C   UNL     1       6.722   5.358  16.776  0.00  0.00    +0.000 C 
ENDBRANCH  21  24
ENDBRANCH  18  21
ENDBRANCH  10  15
BRANCH   1  30
ATOM     29  C   UNL     1      -5.466  11.998  18.825  0.00  0.00    +0.000 C 
ATOM     30  O   UNL     1      -4.058  12.139  18.657  0.00  0.00    +0.000 OA
ENDBRANCH   1  30
TORSDOF 4
ENDMDL
MODEL 9
REMARK VINA RESULT:      -7.8      3.297      4.118
REMARK  Name = 
REMARK  6 active torsions:
REMARK  status: ('A' for Active; 'I' for Inactive)
REMARK    1  A    between atoms: C_1  and  O_2
REMARK    2  A    between atoms: O_2  and  C_3
REMARK    3  A    between atoms: C_6  and  C_7
REMARK    4  A    between atoms: C_12  and  C_14
REMARK    5  A    between atoms: C_17  and  S_18
REMARK    6  A    between atoms: S_18  and  N_21
REMARK                            x       y       z     vdW  Elec       q    Type
REMARK                         _______ _______ _______ _____ _____    ______ ____
ROOT
ATOM      1  C   UNL     1      -0.712  15.044  19.794  0.00  0.00    +0.000 A 
ATOM      2  C   UNL     1      -1.561  15.809  20.620  0.00  0.00    +0.000 A 
ATOM      3  C   UNL     1      -2.089  15.306  21.798  0.00  0.00    +0.000 A 
ATOM      4  C   UNL     1      -1.792  14.009  22.229  0.00  0.00    +0.000 A 
ATOM      5  C   UNL     1      -2.388  13.430  23.482  0.00  0.00    +0.000 C 
ATOM      6  C   UNL     1      -0.926  13.263  21.410  0.00  0.00    +0.000 A 
ATOM      7  S   UNL     1      -0.386  11.671  21.720  0.00  0.00    +0.000 S 
ATOM      8  C   UNL     1       0.421  11.643  20.238  0.00  0.00    +0.000 A 
ATOM      9  N   UNL     1       1.072  10.495  19.844  0.00  0.00    +0.000 N 
ATOM     10  C   UNL     1       0.804   9.226  20.347  0.00  0.00    +0.000 C 
ATOM     11  O   UNL     1      -0.055   8.909  21.162  0.00  0.00    +0.000 OA
ATOM     12  N   UNL     1       0.440  12.773  19.565  0.00  0.00    +0.000 NA
ATOM     13  C   UNL     1      -0.375  13.723  20.214  0.00  0.00    +0.000 A 
ATOM     14  H   UNL     1       1.648  10.613  19.024  0.00  0.00    +0.000 HD
ENDROOT
BRANCH  10  15
ATOM     15  C   UNL     1       1.621   8.135  19.779  0.00  0.00    +0.000 A 
ATOM     16  C   UNL     1       1.844   6.951  20.487  0.00  0.00    +0.000 A 
ATOM     17  C   UNL     1       2.671   5.968  19.946  0.00  0.00    +0.000 A 
ATOM     18  C   UNL     1       3.254   6.159  18.685  0.00  0.00    +0.000 A 
ATOM     19  C   UNL     1       2.991   7.323  17.957  0.00  0.00    +0.000 A 
ATOM     20  C   UNL     1       2.168   8.308  18.501  0.00  0.00    +0.000 A 
BRANCH  18  21
ATOM     21  S   UNL     1       4.514   5.021  18.122  0.00  0.00    +0.000 S 
ATOM     22  O   UNL     1       4.867   5.443  16.788  0.00  0.00    +0.000 OA
ATOM     23  O   UNL     1       5.512   4.941  19.168  0.00  0.00    +0.000 OA
BRANCH  21  24
ATOM     24  N   UNL     1       3.764   3.526  18.024  0.00  0.00    +0.000 NA
ATOM     25  C   UNL     1       2.527   3.342  17.258  0.00  0.00    +0.000 C 
ATOM     26  C   UNL     1       1.512   2.906  18.298  0.00  0.00    +0.000 C 
ATOM     27  C   UNL     1       2.323   2.121  19.317  0.00  0.00    +0.000 C 
ATOM     28  C   UNL     1       3.762   2.615  19.180  0.00  0.00    +0.000 C 
ENDBRANCH  21  24
ENDBRANCH  18  21
ENDBRANCH  10  15
BRANCH   1  30
ATOM     29  C   UNL     1      -0.465  16.891  18.303  0.00  0.00    +0.000 C 
ATOM     30  O   UNL     1      -0.201  15.522  18.605  0.00  0.00    +0.000 OA
ENDBRANCH   1  30
TORSDOF 4
ENDMDL
