MODEL 1
REMARK VINA RESULT:      -5.5      0.000      0.000
REMARK  Name = 
REMARK  2 active torsions:
REMARK  status: ('A' for Active; 'I' for Inactive)
REMARK    1  A    between atoms: C_1  and  S_2
REMARK    2  A    between atoms: S_2  and  C_5
REMARK                            x       y       z     vdW  Elec       q    Type
REMARK                         _______ _______ _______ _____ _____    ______ ____
ROOT
ATOM      1  C   UNL     1       5.704   4.799  17.818  0.00  0.00    +0.000 A 
ATOM      2  C   UNL     1       5.085   4.912  19.076  0.00  0.00    +0.000 A 
ATOM      3  C   UNL     1       3.756   4.521  19.256  0.00  0.00    +0.000 A 
ATOM      4  C   UNL     1       3.032   4.016  18.184  0.00  0.00    +0.000 A 
ATOM      5  C   UNL     1       3.631   3.916  16.928  0.00  0.00    +0.000 A 
ATOM      6  C   UNL     1       4.962   4.316  16.732  0.00  0.00    +0.000 A 
ATOM      7 BR   UNL     1       5.599   4.163  14.950  0.00  0.00    +0.000 Br
ENDROOT
BRANCH   1   9
ATOM      8  C   UNL     1       7.868   5.844  19.313  0.00  0.00    +0.000 C 
ATOM      9  S   UNL     1       7.404   5.330  17.671  0.00  0.00    +0.000 S 
ATOM     10  N   UNL     1       7.412   6.624  16.825  0.00  0.00    +0.000 NA
ATOM     11  O   UNL     1       8.190   4.168  17.310  0.00  0.00    +0.000 OA
ATOM     12  H   UNL     1       8.370   6.930  16.644  0.00  0.00    +0.000 HD
ENDBRANCH   1   9
TORSDOF 1
ENDMDL
MODEL 2
REMARK VINA RESULT:      -5.3      1.415      1.415
REMARK  Name = 
REMARK  2 active torsions:
REMARK  status: ('A' for Active; 'I' for Inactive)
REMARK    1  A    between atoms: C_1  and  S_2
REMARK    2  A    between atoms: S_2  and  C_5
REMARK                            x       y       z     vdW  Elec       q    Type
REMARK                         _______ _______ _______ _____ _____    ______ ____
ROOT
ATOM      1  C   UNL     1       5.519   4.758  18.232  0.00  0.00    +0.000 A 
ATOM      2  C   UNL     1       4.638   4.915  19.318  0.00  0.00    +0.000 A 
ATOM      3  C   UNL     1       3.287   4.586  19.196  0.00  0.00    +0.000 A 
ATOM      4  C   UNL     1       2.799   4.100  17.990  0.00  0.00    +0.000 A 
ATOM      5  C   UNL     1       3.660   3.957  16.902  0.00  0.00    +0.000 A 
ATOM      6  C   UNL     1       5.018   4.294  17.009  0.00  0.00    +0.000 A 
ATOM      7 BR   UNL     1       6.032   4.090  15.416  0.00  0.00    +0.000 Br
ENDROOT
BRANCH   1   9
ATOM      8  C   UNL     1       7.426   6.747  17.589  0.00  0.00    +0.000 C 
ATOM      9  S   UNL     1       7.231   5.211  18.471  0.00  0.00    +0.000 S 
ATOM     10  N   UNL     1       8.092   4.186  17.696  0.00  0.00    +0.000 NA
ATOM     11  O   UNL     1       7.418   5.462  19.885  0.00  0.00    +0.000 OA
ATOM     12  H   UNL     1       9.086   4.354  17.861  0.00  0.00    +0.000 HD
ENDBRANCH   1   9
TORSDOF 1
ENDMDL
MODEL 3
REMARK VINA RESULT:      -5.2      3.563      4.152
REMARK  Name = 
REMARK  2 active torsions:
REMARK  status: ('A' for Active; 'I' for Inactive)
REMARK    1  A    between atoms: C_1  and  S_2
REMARK    2  A    between atoms: S_2  and  C_5
REMARK                            x       y       z     vdW  Elec       q    Type
REMARK                         _______ _______ _______ _____ _____    ______ ____
ROOT
ATOM      1  C   UNL     1       3.129   4.432  19.260  0.00  0.00    +0.000 A 
ATOM      2  C   UNL     1       2.462   5.270  20.172  0.00  0.00    +0.000 A 
ATOM      3  C   UNL     1       2.248   6.619  19.879  0.00  0.00    +0.000 A 
ATOM      4  C   UNL     1       2.699   7.145  18.675  0.00  0.00    +0.000 A 
ATOM      5  C   UNL     1       3.376   6.326  17.771  0.00  0.00    +0.000 A 
ATOM      6  C   UNL     1       3.607   4.972  18.059  0.00  0.00    +0.000 A 
ATOM      7 BR   UNL     1       4.592   4.020  16.744  0.00  0.00    +0.000 Br
ENDROOT
BRANCH   1   9
ATOM      8  C   UNL     1       2.710   2.590  21.368  0.00  0.00    +0.000 C 
ATOM      9  S   UNL     1       3.369   2.721  19.717  0.00  0.00    +0.000 S 
ATOM     10  N   UNL     1       4.891   2.493  19.870  0.00  0.00    +0.000 NA
ATOM     11  O   UNL     1       2.554   1.918  18.828  0.00  0.00    +0.000 OA
ATOM     12  H   UNL     1       5.090   1.509  20.056  0.00  0.00    +0.000 HD
ENDBRANCH   1   9
TORSDOF 1
ENDMDL
MODEL 4
REMARK VINA RESULT:      -5.1      2.819      3.979
REMARK  Name = 
REMARK  2 active torsions:
REMARK  status: ('A' for Active; 'I' for Inactive)
REMARK    1  A    between atoms: C_1  and  S_2
REMARK    2  A    between atoms: S_2  and  C_5
REMARK                            x       y       z     vdW  Elec       q    Type
REMARK                         _______ _______ _______ _____ _____    ______ ____
ROOT
ATOM      1  C   UNL     1       5.360   4.454  17.555  0.00  0.00    +0.000 A 
ATOM      2  C   UNL     1       4.755   4.096  16.337  0.00  0.00    +0.000 A 
ATOM      3  C   UNL     1       5.406   4.318  15.122  0.00  0.00    +0.000 A 
ATOM      4  C   UNL     1       6.667   4.901  15.110  0.00  0.00    +0.000 A 
ATOM      5  C   UNL     1       7.269   5.275  16.311  0.00  0.00    +0.000 A 
ATOM      6  C   UNL     1       6.619   5.067  17.538  0.00  0.00    +0.000 A 
ATOM      7 BR   UNL     1       7.559   5.687  19.067  0.00  0.00    +0.000 Br
ENDROOT
BRANCH   1   9
ATOM      8  C   UNL     1       2.887   3.483  18.530  0.00  0.00    +0.000 C 
ATOM      9  S   UNL     1       4.453   4.143  19.064  0.00  0.00    +0.000 S 
ATOM     10  N   UNL     1       4.121   5.516  19.693  0.00  0.00    +0.000 NA
ATOM     11  O   UNL     1       5.166   3.114  19.791  0.00  0.00    +0.000 OA
ATOM     12  H   UNL     1       3.668   5.396  20.600  0.00  0.00    +0.000 HD
ENDBRANCH   1   9
TORSDOF 1
ENDMDL
MODEL 5
REMARK VINA RESULT:      -5.1      2.708      2.927
REMARK  Name = 
REMARK  2 active torsions:
REMARK  status: ('A' for Active; 'I' for Inactive)
REMARK    1  A    between atoms: C_1  and  S_2
REMARK    2  A    between atoms: S_2  and  C_5
REMARK                            x       y       z     vdW  Elec       q    Type
REMARK                         _______ _______ _______ _____ _____    ______ ____
ROOT
ATOM      1  C   UNL     1       4.230   5.045  17.141  0.00  0.00    +0.000 A 
ATOM      2  C   UNL     1       4.202   3.641  17.068  0.00  0.00    +0.000 A 
ATOM      3  C   UNL     1       3.089   2.924  17.513  0.00  0.00    +0.000 A 
ATOM      4  C   UNL     1       1.995   3.601  18.038  0.00  0.00    +0.000 A 
ATOM      5  C   UNL     1       2.021   4.992  18.131  0.00  0.00    +0.000 A 
ATOM      6  C   UNL     1       3.138   5.723  17.697  0.00  0.00    +0.000 A 
ATOM      7 BR   UNL     1       3.025   7.601  17.949  0.00  0.00    +0.000 Br
ENDROOT
BRANCH   1   9
ATOM      8  C   UNL     1       6.753   4.588  15.943  0.00  0.00    +0.000 C 
ATOM      9  S   UNL     1       5.697   5.884  16.558  0.00  0.00    +0.000 S 
ATOM     10  N   UNL     1       6.429   6.449  17.798  0.00  0.00    +0.000 NA
ATOM     11  O   UNL     1       5.300   6.725  15.447  0.00  0.00    +0.000 OA
ATOM     12  H   UNL     1       7.237   7.006  17.515  0.00  0.00    +0.000 HD
ENDBRANCH   1   9
TORSDOF 1
ENDMDL
MODEL 6
REMARK VINA RESULT:      -5.1      3.840      4.530
REMARK  Name = 
REMARK  2 active torsions:
REMARK  status: ('A' for Active; 'I' for Inactive)
REMARK    1  A    between atoms: C_1  and  S_2
REMARK    2  A    between atoms: S_2  and  C_5
REMARK                            x       y       z     vdW  Elec       q    Type
REMARK                         _______ _______ _______ _____ _____    ______ ____
ROOT
ATOM      1  C   UNL     1       3.932   4.457  17.472  0.00  0.00    +0.000 A 
ATOM      2  C   UNL     1       4.848   3.782  16.645  0.00  0.00    +0.000 A 
ATOM      3  C   UNL     1       5.740   4.491  15.839  0.00  0.00    +0.000 A 
ATOM      4  C   UNL     1       5.725   5.880  15.846  0.00  0.00    +0.000 A 
ATOM      5  C   UNL     1       4.809   6.559  16.649  0.00  0.00    +0.000 A 
ATOM      6  C   UNL     1       3.900   5.857  17.456  0.00  0.00    +0.000 A 
ATOM      7 BR   UNL     1       2.688   6.939  18.440  0.00  0.00    +0.000 Br
ENDROOT
BRANCH   1   9
ATOM      8  C   UNL     1       3.333   1.789  18.200  0.00  0.00    +0.000 C 
ATOM      9  S   UNL     1       2.819   3.474  18.466  0.00  0.00    +0.000 S 
ATOM     10  N   UNL     1       1.415   3.575  17.825  0.00  0.00    +0.000 NA
ATOM     11  O   UNL     1       3.060   3.818  19.852  0.00  0.00    +0.000 OA
ATOM     12  H   UNL     1       0.722   3.091  18.399  0.00  0.00    +0.000 HD
ENDBRANCH   1   9
TORSDOF 1
ENDMDL
MODEL 7
REMARK VINA RESULT:      -5.1      3.545      4.154
REMARK  Name = 
REMARK  2 active torsions:
REMARK  status: ('A' for Active; 'I' for Inactive)
REMARK    1  A    between atoms: C_1  and  S_2
REMARK    2  A    between atoms: S_2  and  C_5
REMARK                            x       y       z     vdW  Elec       q    Type
REMARK                         _______ _______ _______ _____ _____    ______ ____
ROOT
ATOM      1  C   UNL     1       4.327   3.938  18.763  0.00  0.00    +0.000 A 
ATOM      2  C   UNL     1       5.666   4.360  18.852  0.00  0.00    +0.000 A 
ATOM      3  C   UNL     1       6.075   5.566  18.279  0.00  0.00    +0.000 A 
ATOM      4  C   UNL     1       5.154   6.361  17.609  0.00  0.00    +0.000 A 
ATOM      5  C   UNL     1       3.828   5.944  17.500  0.00  0.00    +0.000 A 
ATOM      6  C   UNL     1       3.407   4.729  18.062  0.00  0.00    +0.000 A 
ATOM      7 BR   UNL     1       1.582   4.291  17.771  0.00  0.00    +0.000 Br
ENDROOT
BRANCH   1   9
ATOM      8  C   UNL     1       2.749   2.802  20.820  0.00  0.00    +0.000 C 
ATOM      9  S   UNL     1       3.889   2.378  19.517  0.00  0.00    +0.000 S 
ATOM     10  N   UNL     1       5.148   1.844  20.238  0.00  0.00    +0.000 NA
ATOM     11  O   UNL     1       3.183   1.600  18.520  0.00  0.00    +0.000 OA
ATOM     12  H   UNL     1       4.975   0.914  20.623  0.00  0.00    +0.000 HD
ENDBRANCH   1   9
TORSDOF 1
ENDMDL
MODEL 8
REMARK VINA RESULT:      -5.1      2.473      2.638
REMARK  Name = 
REMARK  2 active torsions:
REMARK  status: ('A' for Active; 'I' for Inactive)
REMARK    1  A    between atoms: C_1  and  S_2
REMARK    2  A    between atoms: S_2  and  C_5
REMARK                            x       y       z     vdW  Elec       q    Type
REMARK                         _______ _______ _______ _____ _____    ______ ____
ROOT
ATOM      1  C   UNL     1       5.014   5.688  18.361  0.00  0.00    +0.000 A 
ATOM      2  C   UNL     1       4.597   6.903  17.786  0.00  0.00    +0.000 A 
ATOM      3  C   UNL     1       3.239   7.204  17.658  0.00  0.00    +0.000 A 
ATOM      4  C   UNL     1       2.285   6.296  18.099  0.00  0.00    +0.000 A 
ATOM      5  C   UNL     1       2.688   5.081  18.653  0.00  0.00    +0.000 A 
ATOM      6  C   UNL     1       4.049   4.763  18.778  0.00  0.00    +0.000 A 
ATOM      7 BR   UNL     1       4.416   3.046  19.502  0.00  0.00    +0.000 Br
ENDROOT
BRANCH   1   9
ATOM      8  C   UNL     1       7.541   6.847  17.828  0.00  0.00    +0.000 C 
ATOM      9  S   UNL     1       6.770   5.378  18.479  0.00  0.00    +0.000 S 
ATOM     10  N   UNL     1       7.110   4.259  17.466  0.00  0.00    +0.000 NA
ATOM     11  O   UNL     1       7.095   5.269  19.886  0.00  0.00    +0.000 OA
ATOM     12  H   UNL     1       8.092   3.988  17.547  0.00  0.00    +0.000 HD
ENDBRANCH   1   9
TORSDOF 1
ENDMDL
MODEL 9
REMARK VINA RESULT:      -5.0      2.808      3.474
REMARK  Name = 
REMARK  2 active torsions:
REMARK  status: ('A' for Active; 'I' for Inactive)
REMARK    1  A    between atoms: C_1  and  S_2
REMARK    2  A    between atoms: S_2  and  C_5
REMARK                            x       y       z     vdW  Elec       q    Type
REMARK                         _______ _______ _______ _____ _____    ______ ____
ROOT
ATOM      1  C   UNL     1       3.475   4.465  19.126  0.00  0.00    +0.000 A 
ATOM      2  C   UNL     1       2.868   5.567  19.755  0.00  0.00    +0.000 A 
ATOM      3  C   UNL     1       1.706   5.407  20.513  0.00  0.00    +0.000 A 
ATOM      4  C   UNL     1       1.137   4.146  20.649  0.00  0.00    +0.000 A 
ATOM      5  C   UNL     1       1.721   3.050  20.015  0.00  0.00    +0.000 A 
ATOM      6  C   UNL     1       2.883   3.201  19.242  0.00  0.00    +0.000 A 
ATOM      7 BR   UNL     1       3.510   1.615  18.406  0.00  0.00    +0.000 Br
ENDROOT
BRANCH   1   9
ATOM      8  C   UNL     1       4.583   4.126  16.544  0.00  0.00    +0.000 C 
ATOM      9  S   UNL     1       4.955   4.759  18.168  0.00  0.00    +0.000 S 
ATOM     10  N   UNL     1       6.057   3.827  18.723  0.00  0.00    +0.000 NA
ATOM     11  O   UNL     1       5.131   6.193  18.077  0.00  0.00    +0.000 OA
ATOM     12  H   UNL     1       6.949   4.010  18.260  0.00  0.00    +0.000 HD
ENDBRANCH   1   9
TORSDOF 1
ENDMDL
