MODEL 1
REMARK VINA RESULT:      -9.2      0.000      0.000
REMARK  Name = 
REMARK  7 active torsions:
REMARK  status: ('A' for Active; 'I' for Inactive)
REMARK    1  A    between atoms: C_1  and  C_2
REMARK    2  A    between atoms: C_5  and  C_6
REMARK    3  A    between atoms: C_6  and  N_7
REMARK    4  A    between atoms: N_7  and  C_8
REMARK    5  A    between atoms: C_13  and  O_14
REMARK    6  A    between atoms: C_15  and  C_16
REMARK    7  A    between atoms: N_23  and  C_24
REMARK                            x       y       z     vdW  Elec       q    Type
REMARK                         _______ _______ _______ _____ _____    ______ ____
ROOT
ATOM      1  C   UNL     1       1.687   8.346  19.588  0.00  0.00    +0.000 A 
ATOM      2  C   UNL     1       1.604   7.189  20.413  0.00  0.00    +0.000 A 
ATOM      3  C   UNL     1       2.122   5.915  20.033  0.00  0.00    +0.000 A 
ATOM      4  C   UNL     1       2.716   5.861  18.715  0.00  0.00    +0.000 A 
ATOM      5  C   UNL     1       2.720   6.985  17.872  0.00  0.00    +0.000 A 
ATOM      6  C   UNL     1       2.204   8.194  18.293  0.00  0.00    +0.000 A 
ATOM      7  C   UNL     1       3.449   4.635  18.097  0.00  0.00    +0.000 C 
ATOM      8  C   UNL     1       2.940   3.498  18.944  0.00  0.00    +0.000 C 
ATOM      9  N   UNL     1       3.038   2.474  19.948  0.00  0.00    +0.000 NA
ATOM     10  C   UNL     1       4.412   1.979  20.053  0.00  0.00    +0.000 C 
ATOM     11  C   UNL     1       2.500   3.158  21.185  0.00  0.00    +0.000 C 
ATOM     12  C   UNL     1       1.930   4.740  21.110  0.00  0.00    +0.000 C 
ENDROOT
BRANCH   7  13
ATOM     13  C   UNL     1       4.969   4.788  18.065  0.00  0.00    +0.000 A 
ATOM     14  C   UNL     1       5.733   4.422  16.938  0.00  0.00    +0.000 A 
ATOM     15  C   UNL     1       7.111   4.599  16.921  0.00  0.00    +0.000 A 
ATOM     16  C   UNL     1       7.756   5.134  18.031  0.00  0.00    +0.000 A 
ATOM     17  C   UNL     1       7.015   5.509  19.156  0.00  0.00    +0.000 A 
ATOM     18  C   UNL     1       5.629   5.339  19.172  0.00  0.00    +0.000 A 
ENDBRANCH   7  13
BRANCH   1  19
ATOM     19  N   UNL     1       1.141   9.564  20.080  0.00  0.00    +0.000 N 
ATOM     20  H   UNL     1       1.852  10.285  19.953  0.00  0.00    +0.000 HD
BRANCH  19  21
ATOM     21  C   UNL     1       0.757   9.552  21.503  0.00  0.00    +0.000 C 
BRANCH  21  26
ATOM     22  C   UNL     1      -3.564  13.310  22.568  0.00  0.00    +0.000 C 
ATOM     23  C   UNL     1      -2.444  12.352  22.295  0.00  0.00    +0.000 A 
ATOM     24  C   UNL     1      -1.831  12.305  21.038  0.00  0.00    +0.000 A 
ATOM     25  C   UNL     1      -0.780  11.422  20.795  0.00  0.00    +0.000 A 
ATOM     26  C   UNL     1      -0.320  10.567  21.803  0.00  0.00    +0.000 A 
ATOM     27  C   UNL     1      -0.952  10.596  23.056  0.00  0.00    +0.000 A 
ATOM     28  C   UNL     1      -2.003  11.484  23.300  0.00  0.00    +0.000 A 
ENDBRANCH  21  26
ENDBRANCH  19  21
ENDBRANCH   1  19
BRANCH   6  29
ATOM     29  O   UNL     1       2.222   9.232  17.400  0.00  0.00    +0.000 OA
ATOM     30  H   UNL     1       1.431   9.176  16.839  0.00  0.00    +0.000 HD
ENDBRANCH   6  29
TORSDOF 5
ENDMDL
MODEL 2
REMARK VINA RESULT:      -9.2      0.915      1.329
REMARK  Name = 
REMARK  7 active torsions:
REMARK  status: ('A' for Active; 'I' for Inactive)
REMARK    1  A    between atoms: C_1  and  C_2
REMARK    2  A    between atoms: C_5  and  C_6
REMARK    3  A    between atoms: C_6  and  N_7
REMARK    4  A    between atoms: N_7  and  C_8
REMARK    5  A    between atoms: C_13  and  O_14
REMARK    6  A    between atoms: C_15  and  C_16
REMARK    7  A    between atoms: N_23  and  C_24
REMARK                            x       y       z     vdW  Elec       q    Type
REMARK                         _______ _______ _______ _____ _____    ______ ____
ROOT
ATOM      1  C   UNL     1       1.820   7.843  20.196  0.00  0.00    +0.000 A 
ATOM      2  C   UNL     1       1.669   6.512  20.675  0.00  0.00    +0.000 A 
ATOM      3  C   UNL     1       1.968   5.357  19.893  0.00  0.00    +0.000 A 
ATOM      4  C   UNL     1       2.408   5.627  18.542  0.00  0.00    +0.000 A 
ATOM      5  C   UNL     1       2.475   6.940  18.047  0.00  0.00    +0.000 A 
ATOM      6  C   UNL     1       2.174   8.021  18.851  0.00  0.00    +0.000 A 
ATOM      7  C   UNL     1       2.900   4.565  17.516  0.00  0.00    +0.000 C 
ATOM      8  C   UNL     1       2.334   3.288  18.081  0.00  0.00    +0.000 C 
ATOM      9  N   UNL     1       2.398   2.013  18.742  0.00  0.00    +0.000 NA
ATOM     10  C   UNL     1       3.696   1.375  18.517  0.00  0.00    +0.000 C 
ATOM     11  C   UNL     1       2.090   2.361  20.182  0.00  0.00    +0.000 C 
ATOM     12  C   UNL     1       1.734   3.946  20.623  0.00  0.00    +0.000 C 
ENDROOT
BRANCH   7  13
ATOM     13  C   UNL     1       4.415   4.568  17.317  0.00  0.00    +0.000 A 
ATOM     14  C   UNL     1       5.308   4.806  18.383  0.00  0.00    +0.000 A 
ATOM     15  C   UNL     1       6.682   4.774  18.185  0.00  0.00    +0.000 A 
ATOM     16  C   UNL     1       7.195   4.515  16.919  0.00  0.00    +0.000 A 
ATOM     17  C   UNL     1       6.327   4.270  15.850  0.00  0.00    +0.000 A 
ATOM     18  C   UNL     1       4.945   4.295  16.049  0.00  0.00    +0.000 A 
ENDBRANCH   7  13
BRANCH   1  19
ATOM     19  N   UNL     1       1.498   8.916  21.074  0.00  0.00    +0.000 N 
ATOM     20  H   UNL     1       2.212   8.931  21.803  0.00  0.00    +0.000 HD
BRANCH  19  21
ATOM     21  C   UNL     1       0.182   8.817  21.730  0.00  0.00    +0.000 C 
BRANCH  21  26
ATOM     22  C   UNL     1      -2.662  13.892  22.031  0.00  0.00    +0.000 C 
ATOM     23  C   UNL     1      -1.920  12.592  21.954  0.00  0.00    +0.000 A 
ATOM     24  C   UNL     1      -1.426  12.121  20.732  0.00  0.00    +0.000 A 
ATOM     25  C   UNL     1      -0.724  10.918  20.668  0.00  0.00    +0.000 A 
ATOM     26  C   UNL     1      -0.500  10.162  21.823  0.00  0.00    +0.000 A 
ATOM     27  C   UNL     1      -1.017  10.622  23.045  0.00  0.00    +0.000 A 
ATOM     28  C   UNL     1      -1.718  11.829  23.109  0.00  0.00    +0.000 A 
ENDBRANCH  21  26
ENDBRANCH  19  21
ENDBRANCH   1  19
BRANCH   6  29
ATOM     29  O   UNL     1       2.238   9.265  18.283  0.00  0.00    +0.000 OA
ATOM     30  H   UNL     1       2.823   9.226  17.508  0.00  0.00    +0.000 HD
ENDBRANCH   6  29
TORSDOF 5
ENDMDL
MODEL 3
REMARK VINA RESULT:      -9.2      0.135      1.296
REMARK  Name = 
REMARK  7 active torsions:
REMARK  status: ('A' for Active; 'I' for Inactive)
REMARK    1  A    between atoms: C_1  and  C_2
REMARK    2  A    between atoms: C_5  and  C_6
REMARK    3  A    between atoms: C_6  and  N_7
REMARK    4  A    between atoms: N_7  and  C_8
REMARK    5  A    between atoms: C_13  and  O_14
REMARK    6  A    between atoms: C_15  and  C_16
REMARK    7  A    between atoms: N_23  and  C_24
REMARK                            x       y       z     vdW  Elec       q    Type
REMARK                         _______ _______ _______ _____ _____    ______ ____
ROOT
ATOM      1  C   UNL     1       1.670   8.457  19.623  0.00  0.00    +0.000 A 
ATOM      2  C   UNL     1       1.586   7.289  20.432  0.00  0.00    +0.000 A 
ATOM      3  C   UNL     1       2.091   6.017  20.029  0.00  0.00    +0.000 A 
ATOM      4  C   UNL     1       2.671   5.976  18.705  0.00  0.00    +0.000 A 
ATOM      5  C   UNL     1       2.675   7.111  17.877  0.00  0.00    +0.000 A 
ATOM      6  C   UNL     1       2.172   8.318  18.320  0.00  0.00    +0.000 A 
ATOM      7  C   UNL     1       3.388   4.753  18.062  0.00  0.00    +0.000 C 
ATOM      8  C   UNL     1       2.879   3.608  18.899  0.00  0.00    +0.000 C 
ATOM      9  N   UNL     1       2.980   2.570  19.888  0.00  0.00    +0.000 NA
ATOM     10  C   UNL     1       4.351   2.063  19.973  0.00  0.00    +0.000 C 
ATOM     11  C   UNL     1       2.460   3.242  21.140  0.00  0.00    +0.000 C 
ATOM     12  C   UNL     1       1.901   4.829  21.093  0.00  0.00    +0.000 C 
ENDROOT
BRANCH   7  13
ATOM     13  C   UNL     1       4.909   4.895  18.017  0.00  0.00    +0.000 A 
ATOM     14  C   UNL     1       5.641   5.425  19.100  0.00  0.00    +0.000 A 
ATOM     15  C   UNL     1       7.026   5.515  19.048  0.00  0.00    +0.000 A 
ATOM     16  C   UNL     1       7.708   5.091  17.913  0.00  0.00    +0.000 A 
ATOM     17  C   UNL     1       7.000   4.557  16.831  0.00  0.00    +0.000 A 
ATOM     18  C   UNL     1       5.608   4.458  16.884  0.00  0.00    +0.000 A 
ENDBRANCH   7  13
BRANCH   1  19
ATOM     19  N   UNL     1       1.138   9.672  20.137  0.00  0.00    +0.000 N 
ATOM     20  H   UNL     1       1.885  10.366  20.099  0.00  0.00    +0.000 HD
BRANCH  19  21
ATOM     21  C   UNL     1       0.651   9.607  21.526  0.00  0.00    +0.000 C 
BRANCH  21  26
ATOM     22  C   UNL     1      -3.609  13.454  22.518  0.00  0.00    +0.000 C 
ATOM     23  C   UNL     1      -2.521  12.456  22.262  0.00  0.00    +0.000 A 
ATOM     24  C   UNL     1      -2.039  11.642  23.293  0.00  0.00    +0.000 A 
ATOM     25  C   UNL     1      -1.037  10.705  23.046  0.00  0.00    +0.000 A 
ATOM     26  C   UNL     1      -0.496  10.560  21.763  0.00  0.00    +0.000 A 
ATOM     27  C   UNL     1      -0.963  11.394  20.735  0.00  0.00    +0.000 A 
ATOM     28  C   UNL     1      -1.969  12.331  20.982  0.00  0.00    +0.000 A 
ENDBRANCH  21  26
ENDBRANCH  19  21
ENDBRANCH   1  19
BRANCH   6  29
ATOM     29  O   UNL     1       2.189   9.368  17.441  0.00  0.00    +0.000 OA
ATOM     30  H   UNL     1       1.527  10.022  17.722  0.00  0.00    +0.000 HD
ENDBRANCH   6  29
TORSDOF 5
ENDMDL
MODEL 4
REMARK VINA RESULT:      -9.1      1.827      2.514
REMARK  Name = 
REMARK  7 active torsions:
REMARK  status: ('A' for Active; 'I' for Inactive)
REMARK    1  A    between atoms: C_1  and  C_2
REMARK    2  A    between atoms: C_5  and  C_6
REMARK    3  A    between atoms: C_6  and  N_7
REMARK    4  A    between atoms: N_7  and  C_8
REMARK    5  A    between atoms: C_13  and  O_14
REMARK    6  A    between atoms: C_15  and  C_16
REMARK    7  A    between atoms: N_23  and  C_24
REMARK                            x       y       z     vdW  Elec       q    Type
REMARK                         _______ _______ _______ _____ _____    ______ ____
ROOT
ATOM      1  C   UNL     1       1.702   8.714  19.438  0.00  0.00    +0.000 A 
ATOM      2  C   UNL     1       1.593   7.579  20.291  0.00  0.00    +0.000 A 
ATOM      3  C   UNL     1       2.054   6.278  19.930  0.00  0.00    +0.000 A 
ATOM      4  C   UNL     1       2.616   6.172  18.602  0.00  0.00    +0.000 A 
ATOM      5  C   UNL     1       2.645   7.275  17.733  0.00  0.00    +0.000 A 
ATOM      6  C   UNL     1       2.185   8.512  18.137  0.00  0.00    +0.000 A 
ATOM      7  C   UNL     1       3.289   4.905  17.997  0.00  0.00    +0.000 C 
ATOM      8  C   UNL     1       2.755   3.807  18.881  0.00  0.00    +0.000 C 
ATOM      9  N   UNL     1       2.836   2.803  19.906  0.00  0.00    +0.000 NA
ATOM     10  C   UNL     1       4.192   2.258  19.994  0.00  0.00    +0.000 C 
ATOM     11  C   UNL     1       2.352   3.535  21.138  0.00  0.00    +0.000 C 
ATOM     12  C   UNL     1       1.841   5.136  21.039  0.00  0.00    +0.000 C 
ENDROOT
BRANCH   7  13
ATOM     13  C   UNL     1       4.812   4.998  17.930  0.00  0.00    +0.000 A 
ATOM     14  C   UNL     1       5.578   5.488  19.009  0.00  0.00    +0.000 A 
ATOM     15  C   UNL     1       6.964   5.535  18.936  0.00  0.00    +0.000 A 
ATOM     16  C   UNL     1       7.615   5.105  17.785  0.00  0.00    +0.000 A 
ATOM     17  C   UNL     1       6.874   4.610  16.707  0.00  0.00    +0.000 A 
ATOM     18  C   UNL     1       5.480   4.556  16.780  0.00  0.00    +0.000 A 
ENDBRANCH   7  13
BRANCH   1  19
ATOM     19  N   UNL     1       1.214   9.962  19.913  0.00  0.00    +0.000 N 
ATOM     20  H   UNL     1       1.798  10.232  20.704  0.00  0.00    +0.000 HD
BRANCH  19  21
ATOM     21  C   UNL     1      -0.189   9.958  20.366  0.00  0.00    +0.000 C 
BRANCH  21  26
ATOM     22  C   UNL     1      -4.001  11.461  16.226  0.00  0.00    +0.000 C 
ATOM     23  C   UNL     1      -3.012  11.080  17.285  0.00  0.00    +0.000 A 
ATOM     24  C   UNL     1      -2.168   9.976  17.113  0.00  0.00    +0.000 A 
ATOM     25  C   UNL     1      -1.240   9.635  18.096  0.00  0.00    +0.000 A 
ATOM     26  C   UNL     1      -1.134  10.389  19.269  0.00  0.00    +0.000 A 
ATOM     27  C   UNL     1      -1.997  11.481  19.452  0.00  0.00    +0.000 A 
ATOM     28  C   UNL     1      -2.925  11.825  18.466  0.00  0.00    +0.000 A 
ENDBRANCH  21  26
ENDBRANCH  19  21
ENDBRANCH   1  19
BRANCH   6  29
ATOM     29  O   UNL     1       2.222   9.528  17.220  0.00  0.00    +0.000 OA
ATOM     30  H   UNL     1       1.393  10.031  17.275  0.00  0.00    +0.000 HD
ENDBRANCH   6  29
TORSDOF 5
ENDMDL
MODEL 5
REMARK VINA RESULT:      -9.1      1.111      1.491
REMARK  Name = 
REMARK  7 active torsions:
REMARK  status: ('A' for Active; 'I' for Inactive)
REMARK    1  A    between atoms: C_1  and  C_2
REMARK    2  A    between atoms: C_5  and  C_6
REMARK    3  A    between atoms: C_6  and  N_7
REMARK    4  A    between atoms: N_7  and  C_8
REMARK    5  A    between atoms: C_13  and  O_14
REMARK    6  A    between atoms: C_15  and  C_16
REMARK    7  A    between atoms: N_23  and  C_24
REMARK                            x       y       z     vdW  Elec       q    Type
REMARK                         _______ _______ _______ _____ _____    ______ ____
ROOT
ATOM      1  C   UNL     1       1.798   7.608  20.389  0.00  0.00    +0.000 A 
ATOM      2  C   UNL     1       1.660   6.251  20.796  0.00  0.00    +0.000 A 
ATOM      3  C   UNL     1       1.961   5.143  19.950  0.00  0.00    +0.000 A 
ATOM      4  C   UNL     1       2.389   5.489  18.612  0.00  0.00    +0.000 A 
ATOM      5  C   UNL     1       2.444   6.827  18.189  0.00  0.00    +0.000 A 
ATOM      6  C   UNL     1       2.141   7.861  19.052  0.00  0.00    +0.000 A 
ATOM      7  C   UNL     1       2.882   4.487  17.526  0.00  0.00    +0.000 C 
ATOM      8  C   UNL     1       2.329   3.178  18.026  0.00  0.00    +0.000 C 
ATOM      9  N   UNL     1       2.407   1.869  18.616  0.00  0.00    +0.000 NA
ATOM     10  C   UNL     1       3.708   1.254  18.347  0.00  0.00    +0.000 C 
ATOM     11  C   UNL     1       2.107   2.137  20.074  0.00  0.00    +0.000 C 
ATOM     12  C   UNL     1       1.742   3.693  20.604  0.00  0.00    +0.000 C 
ENDROOT
BRANCH   7  13
ATOM     13  C   UNL     1       4.395   4.513  17.318  0.00  0.00    +0.000 A 
ATOM     14  C   UNL     1       4.978   4.308  16.049  0.00  0.00    +0.000 A 
ATOM     15  C   UNL     1       6.355   4.367  15.879  0.00  0.00    +0.000 A 
ATOM     16  C   UNL     1       7.180   4.619  16.969  0.00  0.00    +0.000 A 
ATOM     17  C   UNL     1       6.622   4.831  18.233  0.00  0.00    +0.000 A 
ATOM     18  C   UNL     1       5.237   4.780  18.406  0.00  0.00    +0.000 A 
ENDBRANCH   7  13
BRANCH   1  19
ATOM     19  N   UNL     1       1.475   8.629  21.325  0.00  0.00    +0.000 N 
ATOM     20  H   UNL     1       2.009   8.438  22.173  0.00  0.00    +0.000 HD
BRANCH  19  21
ATOM     21  C   UNL     1       0.051   8.714  21.696  0.00  0.00    +0.000 C 
BRANCH  21  26
ATOM     22  C   UNL     1      -1.588  14.296  21.983  0.00  0.00    +0.000 C 
ATOM     23  C   UNL     1      -1.177  12.857  21.907  0.00  0.00    +0.000 A 
ATOM     24  C   UNL     1      -1.304  12.017  23.020  0.00  0.00    +0.000 A 
ATOM     25  C   UNL     1      -0.934  10.675  22.939  0.00  0.00    +0.000 A 
ATOM     26  C   UNL     1      -0.431  10.144  21.746  0.00  0.00    +0.000 A 
ATOM     27  C   UNL     1      -0.281  10.993  20.638  0.00  0.00    +0.000 A 
ATOM     28  C   UNL     1      -0.655  12.336  20.718  0.00  0.00    +0.000 A 
ENDBRANCH  21  26
ENDBRANCH  19  21
ENDBRANCH   1  19
BRANCH   6  29
ATOM     29  O   UNL     1       2.191   9.134  18.552  0.00  0.00    +0.000 OA
ATOM     30  H   UNL     1       2.911   9.616  18.993  0.00  0.00    +0.000 HD
ENDBRANCH   6  29
TORSDOF 5
ENDMDL
MODEL 6
REMARK VINA RESULT:      -9.0      0.577      1.127
REMARK  Name = 
REMARK  7 active torsions:
REMARK  status: ('A' for Active; 'I' for Inactive)
REMARK    1  A    between atoms: C_1  and  C_2
REMARK    2  A    between atoms: C_5  and  C_6
REMARK    3  A    between atoms: C_6  and  N_7
REMARK    4  A    between atoms: N_7  and  C_8
REMARK    5  A    between atoms: C_13  and  O_14
REMARK    6  A    between atoms: C_15  and  C_16
REMARK    7  A    between atoms: N_23  and  C_24
REMARK                            x       y       z     vdW  Elec       q    Type
REMARK                         _______ _______ _______ _____ _____    ______ ____
ROOT
ATOM      1  C   UNL     1       1.748   8.468  19.639  0.00  0.00    +0.000 A 
ATOM      2  C   UNL     1       1.680   7.300  20.449  0.00  0.00    +0.000 A 
ATOM      3  C   UNL     1       2.118   6.015  20.013  0.00  0.00    +0.000 A 
ATOM      4  C   UNL     1       2.612   5.962  18.654  0.00  0.00    +0.000 A 
ATOM      5  C   UNL     1       2.600   7.100  17.831  0.00  0.00    +0.000 A 
ATOM      6  C   UNL     1       2.164   8.320  18.307  0.00  0.00    +0.000 A 
ATOM      7  C   UNL     1       3.250   4.720  17.965  0.00  0.00    +0.000 C 
ATOM      8  C   UNL     1       2.759   3.588  18.830  0.00  0.00    +0.000 C 
ATOM      9  N   UNL     1       2.889   2.542  19.808  0.00  0.00    +0.000 NA
ATOM     10  C   UNL     1       4.247   1.994  19.806  0.00  0.00    +0.000 C 
ATOM     11  C   UNL     1       2.470   3.225  21.092  0.00  0.00    +0.000 C 
ATOM     12  C   UNL     1       1.959   4.829  21.083  0.00  0.00    +0.000 C 
ENDROOT
BRANCH   7  13
ATOM     13  C   UNL     1       4.769   4.815  17.826  0.00  0.00    +0.000 A 
ATOM     14  C   UNL     1       5.586   5.295  18.870  0.00  0.00    +0.000 A 
ATOM     15  C   UNL     1       6.967   5.343  18.731  0.00  0.00    +0.000 A 
ATOM     16  C   UNL     1       7.561   4.926  17.545  0.00  0.00    +0.000 A 
ATOM     17  C   UNL     1       6.768   4.441  16.500  0.00  0.00    +0.000 A 
ATOM     18  C   UNL     1       5.380   4.384  16.640  0.00  0.00    +0.000 A 
ENDBRANCH   7  13
BRANCH   1  19
ATOM     19  N   UNL     1       1.288   9.697  20.188  0.00  0.00    +0.000 N 
ATOM     20  H   UNL     1       1.236   9.573  21.199  0.00  0.00    +0.000 HD
BRANCH  19  21
ATOM     21  C   UNL     1      -0.037  10.139  19.716  0.00  0.00    +0.000 C 
BRANCH  21  26
ATOM     22  C   UNL     1      -3.105  12.965  23.783  0.00  0.00    +0.000 C 
ATOM     23  C   UNL     1      -2.308  12.247  22.736  0.00  0.00    +0.000 A 
ATOM     24  C   UNL     1      -2.427  12.589  21.384  0.00  0.00    +0.000 A 
ATOM     25  C   UNL     1      -1.672  11.927  20.417  0.00  0.00    +0.000 A 
ATOM     26  C   UNL     1      -0.782  10.911  20.780  0.00  0.00    +0.000 A 
ATOM     27  C   UNL     1      -0.680  10.551  22.133  0.00  0.00    +0.000 A 
ATOM     28  C   UNL     1      -1.435  11.216  23.102  0.00  0.00    +0.000 A 
ENDBRANCH  21  26
ENDBRANCH  19  21
ENDBRANCH   1  19
BRANCH   6  29
ATOM     29  O   UNL     1       2.158   9.372  17.431  0.00  0.00    +0.000 OA
ATOM     30  H   UNL     1       1.405   9.950  17.641  0.00  0.00    +0.000 HD
ENDBRANCH   6  29
TORSDOF 5
ENDMDL
MODEL 7
REMARK VINA RESULT:      -9.0      1.710      2.013
REMARK  Name = 
REMARK  7 active torsions:
REMARK  status: ('A' for Active; 'I' for Inactive)
REMARK    1  A    between atoms: C_1  and  C_2
REMARK    2  A    between atoms: C_5  and  C_6
REMARK    3  A    between atoms: C_6  and  N_7
REMARK    4  A    between atoms: N_7  and  C_8
REMARK    5  A    between atoms: C_13  and  O_14
REMARK    6  A    between atoms: C_15  and  C_16
REMARK    7  A    between atoms: N_23  and  C_24
REMARK                            x       y       z     vdW  Elec       q    Type
REMARK                         _______ _______ _______ _____ _____    ______ ____
ROOT
ATOM      1  C   UNL     1       1.816   7.583  20.357  0.00  0.00    +0.000 A 
ATOM      2  C   UNL     1       1.661   6.224  20.749  0.00  0.00    +0.000 A 
ATOM      3  C   UNL     1       1.974   5.121  19.900  0.00  0.00    +0.000 A 
ATOM      4  C   UNL     1       2.433   5.476  18.574  0.00  0.00    +0.000 A 
ATOM      5  C   UNL     1       2.505   6.818  18.165  0.00  0.00    +0.000 A 
ATOM      6  C   UNL     1       2.189   7.846  19.031  0.00  0.00    +0.000 A 
ATOM      7  C   UNL     1       2.943   4.482  17.491  0.00  0.00    +0.000 C 
ATOM      8  C   UNL     1       2.372   3.171  17.966  0.00  0.00    +0.000 C 
ATOM      9  N   UNL     1       2.429   1.857  18.546  0.00  0.00    +0.000 NA
ATOM     10  C   UNL     1       3.732   1.236  18.300  0.00  0.00    +0.000 C 
ATOM     11  C   UNL     1       2.099   2.114  20.000  0.00  0.00    +0.000 C 
ATOM     12  C   UNL     1       1.732   3.667  20.535  0.00  0.00    +0.000 C 
ENDROOT
BRANCH   7  13
ATOM     13  C   UNL     1       4.461   4.500  17.316  0.00  0.00    +0.000 A 
ATOM     14  C   UNL     1       5.069   4.326  16.055  0.00  0.00    +0.000 A 
ATOM     15  C   UNL     1       6.450   4.377  15.915  0.00  0.00    +0.000 A 
ATOM     16  C   UNL     1       7.253   4.591  17.030  0.00  0.00    +0.000 A 
ATOM     17  C   UNL     1       6.670   4.772  18.288  0.00  0.00    +0.000 A 
ATOM     18  C   UNL     1       5.281   4.728  18.429  0.00  0.00    +0.000 A 
ENDBRANCH   7  13
BRANCH   1  19
ATOM     19  N   UNL     1       1.479   8.597  21.296  0.00  0.00    +0.000 N 
ATOM     20  H   UNL     1       1.682   8.227  22.224  0.00  0.00    +0.000 HD
BRANCH  19  21
ATOM     21  C   UNL     1       0.069   9.027  21.277  0.00  0.00    +0.000 C 
BRANCH  21  26
ATOM     22  C   UNL     1      -0.353  14.219  18.671  0.00  0.00    +0.000 C 
ATOM     23  C   UNL     1      -0.253  12.886  19.349  0.00  0.00    +0.000 A 
ATOM     24  C   UNL     1       0.454  12.744  20.548  0.00  0.00    +0.000 A 
ATOM     25  C   UNL     1       0.532  11.504  21.182  0.00  0.00    +0.000 A 
ATOM     26  C   UNL     1      -0.097  10.382  20.632  0.00  0.00    +0.000 A 
ATOM     27  C   UNL     1      -0.786  10.520  19.416  0.00  0.00    +0.000 A 
ATOM     28  C   UNL     1      -0.866  11.762  18.783  0.00  0.00    +0.000 A 
ENDBRANCH  21  26
ENDBRANCH  19  21
ENDBRANCH   1  19
BRANCH   6  29
ATOM     29  O   UNL     1       2.259   9.123  18.543  0.00  0.00    +0.000 OA
ATOM     30  H   UNL     1       2.226   9.091  17.573  0.00  0.00    +0.000 HD
ENDBRANCH   6  29
TORSDOF 5
ENDMDL
MODEL 8
REMARK VINA RESULT:      -8.9      1.971      2.533
REMARK  Name = 
REMARK  7 active torsions:
REMARK  status: ('A' for Active; 'I' for Inactive)
REMARK    1  A    between atoms: C_1  and  C_2
REMARK    2  A    between atoms: C_5  and  C_6
REMARK    3  A    between atoms: C_6  and  N_7
REMARK    4  A    between atoms: N_7  and  C_8
REMARK    5  A    between atoms: C_13  and  O_14
REMARK    6  A    between atoms: C_15  and  C_16
REMARK    7  A    between atoms: N_23  and  C_24
REMARK                            x       y       z     vdW  Elec       q    Type
REMARK                         _______ _______ _______ _____ _____    ______ ____
ROOT
ATOM      1  C   UNL     1       1.630   8.767  19.564  0.00  0.00    +0.000 A 
ATOM      2  C   UNL     1       1.591   7.600  20.377  0.00  0.00    +0.000 A 
ATOM      3  C   UNL     1       2.004   6.312  19.923  0.00  0.00    +0.000 A 
ATOM      4  C   UNL     1       2.438   6.256  18.544  0.00  0.00    +0.000 A 
ATOM      5  C   UNL     1       2.395   7.394  17.721  0.00  0.00    +0.000 A 
ATOM      6  C   UNL     1       1.986   8.616  18.216  0.00  0.00    +0.000 A 
ATOM      7  C   UNL     1       3.039   5.011  17.829  0.00  0.00    +0.000 C 
ATOM      8  C   UNL     1       2.581   3.882  18.715  0.00  0.00    +0.000 C 
ATOM      9  N   UNL     1       2.750   2.836  19.687  0.00  0.00    +0.000 NA
ATOM     10  C   UNL     1       4.103   2.281  19.625  0.00  0.00    +0.000 C 
ATOM     11  C   UNL     1       2.391   3.521  20.987  0.00  0.00    +0.000 C 
ATOM     12  C   UNL     1       1.887   5.127  21.000  0.00  0.00    +0.000 C 
ENDROOT
BRANCH   7  13
ATOM     13  C   UNL     1       4.550   5.100  17.622  0.00  0.00    +0.000 A 
ATOM     14  C   UNL     1       5.150   4.829  16.374  0.00  0.00    +0.000 A 
ATOM     15  C   UNL     1       6.523   4.946  16.203  0.00  0.00    +0.000 A 
ATOM     16  C   UNL     1       7.328   5.323  17.272  0.00  0.00    +0.000 A 
ATOM     17  C   UNL     1       6.752   5.603  18.515  0.00  0.00    +0.000 A 
ATOM     18  C   UNL     1       5.370   5.493  18.688  0.00  0.00    +0.000 A 
ENDBRANCH   7  13
BRANCH   1  19
ATOM     19  N   UNL     1       1.200   9.998  20.132  0.00  0.00    +0.000 N 
ATOM     20  H   UNL     1       1.716  10.123  21.004  0.00  0.00    +0.000 HD
BRANCH  19  21
ATOM     21  C   UNL     1      -0.239  10.079  20.442  0.00  0.00    +0.000 C 
BRANCH  21  26
ATOM     22  C   UNL     1      -3.205  11.296  15.578  0.00  0.00    +0.000 C 
ATOM     23  C   UNL     1      -2.450  10.988  16.836  0.00  0.00    +0.000 A 
ATOM     24  C   UNL     1      -1.627  11.951  17.431  0.00  0.00    +0.000 A 
ATOM     25  C   UNL     1      -0.938  11.664  18.609  0.00  0.00    +0.000 A 
ATOM     26  C   UNL     1      -1.059  10.410  19.217  0.00  0.00    +0.000 A 
ATOM     27  C   UNL     1      -1.865   9.436  18.607  0.00  0.00    +0.000 A 
ATOM     28  C   UNL     1      -2.557   9.725  17.428  0.00  0.00    +0.000 A 
ENDBRANCH  21  26
ENDBRANCH  19  21
ENDBRANCH   1  19
BRANCH   6  29
ATOM     29  O   UNL     1       1.946   9.668  17.340  0.00  0.00    +0.000 OA
ATOM     30  H   UNL     1       1.941  10.497  17.847  0.00  0.00    +0.000 HD
ENDBRANCH   6  29
TORSDOF 5
ENDMDL
MODEL 9
REMARK VINA RESULT:      -8.9      1.739      2.457
REMARK  Name = 
REMARK  7 active torsions:
REMARK  status: ('A' for Active; 'I' for Inactive)
REMARK    1  A    between atoms: C_1  and  C_2
REMARK    2  A    between atoms: C_5  and  C_6
REMARK    3  A    between atoms: C_6  and  N_7
REMARK    4  A    between atoms: N_7  and  C_8
REMARK    5  A    between atoms: C_13  and  O_14
REMARK    6  A    between atoms: C_15  and  C_16
REMARK    7  A    between atoms: N_23  and  C_24
REMARK                            x       y       z     vdW  Elec       q    Type
REMARK                         _______ _______ _______ _____ _____    ______ ____
ROOT
ATOM      1  C   UNL     1       1.647   8.459  19.560  0.00  0.00    +0.000 A 
ATOM      2  C   UNL     1       1.548   7.296  20.375  0.00  0.00    +0.000 A 
ATOM      3  C   UNL     1       2.076   6.026  19.998  0.00  0.00    +0.000 A 
ATOM      4  C   UNL     1       2.700   5.981  18.694  0.00  0.00    +0.000 A 
ATOM      5  C   UNL     1       2.722   7.110  17.859  0.00  0.00    +0.000 A 
ATOM      6  C   UNL     1       2.194   8.316  18.276  0.00  0.00    +0.000 A 
ATOM      7  C   UNL     1       3.449   4.760  18.084  0.00  0.00    +0.000 C 
ATOM      8  C   UNL     1       2.923   3.617  18.912  0.00  0.00    +0.000 C 
ATOM      9  N   UNL     1       3.001   2.586  19.912  0.00  0.00    +0.000 NA
ATOM     10  C   UNL     1       4.373   2.093  20.045  0.00  0.00    +0.000 C 
ATOM     11  C   UNL     1       2.434   3.262  21.141  0.00  0.00    +0.000 C 
ATOM     12  C   UNL     1       1.862   4.843  21.064  0.00  0.00    +0.000 C 
ENDROOT
BRANCH   7  13
ATOM     13  C   UNL     1       4.970   4.916  18.088  0.00  0.00    +0.000 A 
ATOM     14  C   UNL     1       5.666   5.416  19.209  0.00  0.00    +0.000 A 
ATOM     15  C   UNL     1       7.050   5.520  19.200  0.00  0.00    +0.000 A 
ATOM     16  C   UNL     1       7.769   5.138  18.073  0.00  0.00    +0.000 A 
ATOM     17  C   UNL     1       7.098   4.634  16.954  0.00  0.00    +0.000 A 
ATOM     18  C   UNL     1       5.706   4.522  16.963  0.00  0.00    +0.000 A 
ENDBRANCH   7  13
BRANCH   1  19
ATOM     19  N   UNL     1       1.088   9.672  20.047  0.00  0.00    +0.000 N 
ATOM     20  H   UNL     1       0.211   9.434  20.510  0.00  0.00    +0.000 HD
BRANCH  19  21
ATOM     21  C   UNL     1       0.797  10.688  19.019  0.00  0.00    +0.000 C 
BRANCH  21  26
ATOM     22  C   UNL     1      -4.836  11.109  17.598  0.00  0.00    +0.000 C 
ATOM     23  C   UNL     1      -3.390  10.994  17.973  0.00  0.00    +0.000 A 
ATOM     24  C   UNL     1      -2.834  11.831  18.948  0.00  0.00    +0.000 A 
ATOM     25  C   UNL     1      -1.491  11.710  19.303  0.00  0.00    +0.000 A 
ATOM     26  C   UNL     1      -0.676  10.750  18.693  0.00  0.00    +0.000 A 
ATOM     27  C   UNL     1      -1.227   9.928  17.698  0.00  0.00    +0.000 A 
ATOM     28  C   UNL     1      -2.574  10.047  17.345  0.00  0.00    +0.000 A 
ENDBRANCH  21  26
ENDBRANCH  19  21
ENDBRANCH   1  19
BRANCH   6  29
ATOM     29  O   UNL     1       2.230   9.359  17.391  0.00  0.00    +0.000 OA
ATOM     30  H   UNL     1       3.115   9.401  16.992  0.00  0.00    +0.000 HD
ENDBRANCH   6  29
TORSDOF 5
ENDMDL
