MODEL 1
REMARK VINA RESULT:      -7.1      0.000      0.000
REMARK  Name = 
REMARK  7 active torsions:
REMARK  status: ('A' for Active; 'I' for Inactive)
REMARK    1  A    between atoms: C_1  and  C_2
REMARK    2  A    between atoms: N_4  and  C_5
REMARK    3  A    between atoms: C_9  and  N_10
REMARK    4  A    between atoms: C_16  and  N_17
REMARK    5  A    between atoms: C_21  and  O_22
REMARK    6  A    between atoms: C_23  and  C_24
REMARK    7  A    between atoms: C_23  and  C_25
REMARK                            x       y       z     vdW  Elec       q    Type
REMARK                         _______ _______ _______ _____ _____    ______ ____
ROOT
ATOM      1  C   UNL     1       4.181   6.185  17.033  0.00  0.00    +0.000 A 
ATOM      2  C   UNL     1       3.788   7.513  17.073  0.00  0.00    +0.000 A 
ATOM      3  C   UNL     1       2.897   7.966  18.040  0.00  0.00    +0.000 A 
ATOM      4  C   UNL     1       2.402   7.114  19.056  0.00  0.00    +0.000 A 
ATOM      5  C   UNL     1       2.673   5.701  19.024  0.00  0.00    +0.000 A 
ATOM      6  C   UNL     1       3.563   5.295  17.964  0.00  0.00    +0.000 A 
ATOM      7  C   UNL     1       1.591   7.793  20.139  0.00  0.00    +0.000 C 
ATOM      8  C   UNL     1       1.617   9.312  20.104  0.00  0.00    +0.000 C 
ATOM      9  C   UNL     1       1.448   9.773  18.648  0.00  0.00    +0.000 C 
ATOM     10  C   UNL     1       0.143   9.318  17.958  0.00  0.00    +0.000 C 
ATOM     11  C   UNL     1       1.480  11.307  18.607  0.00  0.00    +0.000 C 
ATOM     12  O   UNL     1       2.573   9.298  17.892  0.00  0.00    +0.000 OA
ENDROOT
BRANCH   5  13
ATOM     13  N   UNL     1       2.081   4.790  19.921  0.00  0.00    +0.000 N 
ATOM     14  C   UNL     1       2.492   4.671  21.339  0.00  0.00    +0.000 C 
ATOM     15  C   UNL     1       2.564   3.185  21.727  0.00  0.00    +0.000 C 
ATOM     16  C   UNL     1       1.232   2.477  21.497  0.00  0.00    +0.000 C 
ATOM     17  C   UNL     1       0.755   2.699  20.075  0.00  0.00    +0.000 C 
ATOM     18  C   UNL     1       0.762   4.171  19.698  0.00  0.00    +0.000 C 
ENDBRANCH   5  13
BRANCH   1  22
ATOM     19  C   UNL     1       7.218   5.102  15.023  0.00  0.00    +0.000 C 
ATOM     20  C   UNL     1       6.495   5.535  16.275  0.00  0.00    +0.000 C 
ATOM     21  O   UNL     1       7.112   5.676  17.327  0.00  0.00    +0.000 OA
ATOM     22  N   UNL     1       5.141   5.737  16.070  0.00  0.00    +0.000 N 
ATOM     23  H   UNL     1       4.777   5.376  15.191  0.00  0.00    +0.000 HD
ENDBRANCH   1  22
BRANCH   6  24
ATOM     24  N   UNL     1       3.783   3.885  17.691  0.00  0.00    +0.000 N 
ATOM     25  O   UNL     1       2.996   3.330  16.905  0.00  0.00    +0.000 OA
ATOM     26  O   UNL     1       4.668   3.302  18.333  0.00  0.00    +0.000 OA
ENDBRANCH   6  24
BRANCH   8  27
ATOM     27  O   UNL     1       0.604   9.825  20.973  0.00  0.00    +0.000 OA
ATOM     28  H   UNL     1       0.965   9.883  21.874  0.00  0.00    +0.000 HD
ENDBRANCH   8  27
TORSDOF 4
ENDMDL
MODEL 2
REMARK VINA RESULT:      -6.1      1.767      5.464
REMARK  Name = 
REMARK  7 active torsions:
REMARK  status: ('A' for Active; 'I' for Inactive)
REMARK    1  A    between atoms: C_1  and  C_2
REMARK    2  A    between atoms: N_4  and  C_5
REMARK    3  A    between atoms: C_9  and  N_10
REMARK    4  A    between atoms: C_16  and  N_17
REMARK    5  A    between atoms: C_21  and  O_22
REMARK    6  A    between atoms: C_23  and  C_24
REMARK    7  A    between atoms: C_23  and  C_25
REMARK                            x       y       z     vdW  Elec       q    Type
REMARK                         _______ _______ _______ _____ _____    ______ ____
ROOT
ATOM      1  C   UNL     1       2.962   7.929  18.225  0.00  0.00    +0.000 A 
ATOM      2  C   UNL     1       3.939   7.745  17.259  0.00  0.00    +0.000 A 
ATOM      3  C   UNL     1       4.437   6.477  16.978  0.00  0.00    +0.000 A 
ATOM      4  C   UNL     1       3.931   5.319  17.616  0.00  0.00    +0.000 A 
ATOM      5  C   UNL     1       2.996   5.430  18.704  0.00  0.00    +0.000 A 
ATOM      6  C   UNL     1       2.562   6.780  18.973  0.00  0.00    +0.000 A 
ATOM      7  C   UNL     1       4.440   4.000  17.074  0.00  0.00    +0.000 C 
ATOM      8  C   UNL     1       5.239   4.101  15.786  0.00  0.00    +0.000 C 
ATOM      9  C   UNL     1       6.213   5.284  15.902  0.00  0.00    +0.000 C 
ATOM     10  C   UNL     1       7.224   5.196  17.066  0.00  0.00    +0.000 C 
ATOM     11  C   UNL     1       7.018   5.394  14.600  0.00  0.00    +0.000 C 
ATOM     12  O   UNL     1       5.443   6.489  16.036  0.00  0.00    +0.000 OA
ENDROOT
BRANCH   5  13
ATOM     13  N   UNL     1       2.580   4.323  19.470  0.00  0.00    +0.000 N 
ATOM     14  C   UNL     1       1.646   3.294  18.958  0.00  0.00    +0.000 C 
ATOM     15  C   UNL     1       0.630   2.936  20.055  0.00  0.00    +0.000 C 
ATOM     16  C   UNL     1       1.320   2.446  21.325  0.00  0.00    +0.000 C 
ATOM     17  C   UNL     1       2.359   3.450  21.781  0.00  0.00    +0.000 C 
ATOM     18  C   UNL     1       3.306   3.838  20.657  0.00  0.00    +0.000 C 
ENDBRANCH   5  13
BRANCH   1  22
ATOM     19  C   UNL     1       0.944  11.139  18.459  0.00  0.00    +0.000 C 
ATOM     20  C   UNL     1       1.177   9.701  18.067  0.00  0.00    +0.000 C 
ATOM     21  O   UNL     1       0.313   9.079  17.453  0.00  0.00    +0.000 OA
ATOM     22  N   UNL     1       2.414   9.229  18.468  0.00  0.00    +0.000 N 
ATOM     23  H   UNL     1       2.906   9.817  19.138  0.00  0.00    +0.000 HD
ENDBRANCH   1  22
BRANCH   6  24
ATOM     24  N   UNL     1       1.767   7.073  20.153  0.00  0.00    +0.000 N 
ATOM     25  O   UNL     1       2.171   7.982  20.899  0.00  0.00    +0.000 OA
ATOM     26  O   UNL     1       0.800   6.337  20.397  0.00  0.00    +0.000 OA
ENDBRANCH   6  24
BRANCH   8  27
ATOM     27  O   UNL     1       5.900   2.858  15.537  0.00  0.00    +0.000 OA
ATOM     28  H   UNL     1       6.568   2.714  16.229  0.00  0.00    +0.000 HD
ENDBRANCH   8  27
TORSDOF 4
ENDMDL
MODEL 3
REMARK VINA RESULT:      -6.0      1.798      5.341
REMARK  Name = 
REMARK  7 active torsions:
REMARK  status: ('A' for Active; 'I' for Inactive)
REMARK    1  A    between atoms: C_1  and  C_2
REMARK    2  A    between atoms: N_4  and  C_5
REMARK    3  A    between atoms: C_9  and  N_10
REMARK    4  A    between atoms: C_16  and  N_17
REMARK    5  A    between atoms: C_21  and  O_22
REMARK    6  A    between atoms: C_23  and  C_24
REMARK    7  A    between atoms: C_23  and  C_25
REMARK                            x       y       z     vdW  Elec       q    Type
REMARK                         _______ _______ _______ _____ _____    ______ ____
ROOT
ATOM      1  C   UNL     1       2.239   8.452  18.776  0.00  0.00    +0.000 A 
ATOM      2  C   UNL     1       3.179   8.215  17.785  0.00  0.00    +0.000 A 
ATOM      3  C   UNL     1       3.678   6.935  17.567  0.00  0.00    +0.000 A 
ATOM      4  C   UNL     1       3.211   5.817  18.298  0.00  0.00    +0.000 A 
ATOM      5  C   UNL     1       2.318   5.991  19.414  0.00  0.00    +0.000 A 
ATOM      6  C   UNL     1       1.882   7.352  19.613  0.00  0.00    +0.000 A 
ATOM      7  C   UNL     1       3.712   4.470  17.822  0.00  0.00    +0.000 C 
ATOM      8  C   UNL     1       4.458   4.493  16.499  0.00  0.00    +0.000 C 
ATOM      9  C   UNL     1       5.422   5.690  16.499  0.00  0.00    +0.000 C 
ATOM     10  C   UNL     1       6.480   5.685  17.624  0.00  0.00    +0.000 C 
ATOM     11  C   UNL     1       6.174   5.721  15.161  0.00  0.00    +0.000 C 
ATOM     12  O   UNL     1       4.645   6.895  16.586  0.00  0.00    +0.000 OA
ENDROOT
BRANCH   5  13
ATOM     13  N   UNL     1       1.945   4.933  20.266  0.00  0.00    +0.000 N 
ATOM     14  C   UNL     1       2.632   4.648  21.547  0.00  0.00    +0.000 C 
ATOM     15  C   UNL     1       2.828   3.130  21.694  0.00  0.00    +0.000 C 
ATOM     16  C   UNL     1       1.501   2.380  21.623  0.00  0.00    +0.000 C 
ATOM     17  C   UNL     1       0.747   2.763  20.366  0.00  0.00    +0.000 C 
ATOM     18  C   UNL     1       0.630   4.271  20.211  0.00  0.00    +0.000 C 
ENDBRANCH   5  13
BRANCH   1  22
ATOM     19  C   UNL     1       0.254  11.692  18.789  0.00  0.00    +0.000 C 
ATOM     20  C   UNL     1       0.506  10.249  18.427  0.00  0.00    +0.000 C 
ATOM     21  O   UNL     1      -0.297   9.638  17.727  0.00  0.00    +0.000 OA
ATOM     22  N   UNL     1       1.687   9.761  18.958  0.00  0.00    +0.000 N 
ATOM     23  H   UNL     1       2.114  10.345  19.674  0.00  0.00    +0.000 HD
ENDBRANCH   1  22
BRANCH   6  24
ATOM     24  N   UNL     1       1.131   7.714  20.803  0.00  0.00    +0.000 N 
ATOM     25  O   UNL     1      -0.103   7.565  20.763  0.00  0.00    +0.000 OA
ATOM     26  O   UNL     1       1.748   8.243  21.738  0.00  0.00    +0.000 OA
ENDBRANCH   6  24
BRANCH   8  27
ATOM     27  O   UNL     1       5.121   3.242  16.304  0.00  0.00    +0.000 OA
ATOM     28  H   UNL     1       4.651   2.556  16.809  0.00  0.00    +0.000 HD
ENDBRANCH   8  27
TORSDOF 4
ENDMDL
MODEL 4
REMARK VINA RESULT:      -6.0      0.672      1.325
REMARK  Name = 
REMARK  7 active torsions:
REMARK  status: ('A' for Active; 'I' for Inactive)
REMARK    1  A    between atoms: C_1  and  C_2
REMARK    2  A    between atoms: N_4  and  C_5
REMARK    3  A    between atoms: C_9  and  N_10
REMARK    4  A    between atoms: C_16  and  N_17
REMARK    5  A    between atoms: C_21  and  O_22
REMARK    6  A    between atoms: C_23  and  C_24
REMARK    7  A    between atoms: C_23  and  C_25
REMARK                            x       y       z     vdW  Elec       q    Type
REMARK                         _______ _______ _______ _____ _____    ______ ____
ROOT
ATOM      1  C   UNL     1       4.535   6.189  16.626  0.00  0.00    +0.000 A 
ATOM      2  C   UNL     1       4.055   7.482  16.766  0.00  0.00    +0.000 A 
ATOM      3  C   UNL     1       3.141   7.800  17.765  0.00  0.00    +0.000 A 
ATOM      4  C   UNL     1       2.708   6.842  18.713  0.00  0.00    +0.000 A 
ATOM      5  C   UNL     1       3.073   5.457  18.575  0.00  0.00    +0.000 A 
ATOM      6  C   UNL     1       3.983   5.192  17.486  0.00  0.00    +0.000 A 
ATOM      7  C   UNL     1       1.859   7.381  19.845  0.00  0.00    +0.000 C 
ATOM      8  C   UNL     1       1.784   8.897  19.925  0.00  0.00    +0.000 C 
ATOM      9  C   UNL     1       1.577   9.455  18.508  0.00  0.00    +0.000 C 
ATOM     10  C   UNL     1       0.302   8.967  17.785  0.00  0.00    +0.000 C 
ATOM     11  C   UNL     1       1.506  10.986  18.584  0.00  0.00    +0.000 C 
ATOM     12  O   UNL     1       2.728   9.114  17.718  0.00  0.00    +0.000 OA
ENDROOT
BRANCH   5  13
ATOM     13  N   UNL     1       2.547   4.443  19.399  0.00  0.00    +0.000 N 
ATOM     14  C   UNL     1       1.435   3.558  18.980  0.00  0.00    +0.000 C 
ATOM     15  C   UNL     1       0.453   3.383  20.150  0.00  0.00    +0.000 C 
ATOM     16  C   UNL     1       1.146   2.820  21.388  0.00  0.00    +0.000 C 
ATOM     17  C   UNL     1       2.353   3.662  21.746  0.00  0.00    +0.000 C 
ATOM     18  C   UNL     1       3.269   3.877  20.553  0.00  0.00    +0.000 C 
ENDBRANCH   5  13
BRANCH   1  22
ATOM     19  C   UNL     1       7.620   5.398  14.554  0.00  0.00    +0.000 C 
ATOM     20  C   UNL     1       6.868   5.651  15.837  0.00  0.00    +0.000 C 
ATOM     21  O   UNL     1       7.460   5.642  16.913  0.00  0.00    +0.000 OA
ATOM     22  N   UNL     1       5.519   5.881  15.632  0.00  0.00    +0.000 N 
ATOM     23  H   UNL     1       5.176   5.647  14.702  0.00  0.00    +0.000 HD
ENDBRANCH   1  22
BRANCH   6  24
ATOM     24  N   UNL     1       4.294   3.824  17.108  0.00  0.00    +0.000 N 
ATOM     25  O   UNL     1       5.248   3.278  17.689  0.00  0.00    +0.000 OA
ATOM     26  O   UNL     1       3.664   3.327  16.164  0.00  0.00    +0.000 OA
ENDBRANCH   6  24
BRANCH   8  27
ATOM     27  O   UNL     1       0.743   9.274  20.830  0.00  0.00    +0.000 OA
ATOM     28  H   UNL     1       1.028   9.069  21.737  0.00  0.00    +0.000 HD
ENDBRANCH   8  27
TORSDOF 4
ENDMDL
MODEL 5
REMARK VINA RESULT:      -6.0      1.059      1.463
REMARK  Name = 
REMARK  7 active torsions:
REMARK  status: ('A' for Active; 'I' for Inactive)
REMARK    1  A    between atoms: C_1  and  C_2
REMARK    2  A    between atoms: N_4  and  C_5
REMARK    3  A    between atoms: C_9  and  N_10
REMARK    4  A    between atoms: C_16  and  N_17
REMARK    5  A    between atoms: C_21  and  O_22
REMARK    6  A    between atoms: C_23  and  C_24
REMARK    7  A    between atoms: C_23  and  C_25
REMARK                            x       y       z     vdW  Elec       q    Type
REMARK                         _______ _______ _______ _____ _____    ______ ____
ROOT
ATOM      1  C   UNL     1       4.876   6.227  16.891  0.00  0.00    +0.000 A 
ATOM      2  C   UNL     1       4.327   7.498  16.951  0.00  0.00    +0.000 A 
ATOM      3  C   UNL     1       3.286   7.786  17.826  0.00  0.00    +0.000 A 
ATOM      4  C   UNL     1       2.782   6.820  18.731  0.00  0.00    +0.000 A 
ATOM      5  C   UNL     1       3.220   5.451  18.660  0.00  0.00    +0.000 A 
ATOM      6  C   UNL     1       4.266   5.216  17.694  0.00  0.00    +0.000 A 
ATOM      7  C   UNL     1       1.780   7.333  19.742  0.00  0.00    +0.000 C 
ATOM      8  C   UNL     1       1.630   8.845  19.788  0.00  0.00    +0.000 C 
ATOM      9  C   UNL     1       1.574   9.377  18.348  0.00  0.00    +0.000 C 
ATOM     10  C   UNL     1       0.418   8.826  17.484  0.00  0.00    +0.000 C 
ATOM     11  C   UNL     1       1.428  10.905  18.389  0.00  0.00    +0.000 C 
ATOM     12  O   UNL     1       2.825   9.080  17.709  0.00  0.00    +0.000 OA
ENDROOT
BRANCH   5  13
ATOM     13  N   UNL     1       2.642   4.424  19.431  0.00  0.00    +0.000 N 
ATOM     14  C   UNL     1       1.455   3.655  18.990  0.00  0.00    +0.000 C 
ATOM     15  C   UNL     1       0.495   3.472  20.177  0.00  0.00    +0.000 C 
ATOM     16  C   UNL     1       1.177   2.774  21.351  0.00  0.00    +0.000 C 
ATOM     17  C   UNL     1       2.455   3.498  21.725  0.00  0.00    +0.000 C 
ATOM     18  C   UNL     1       3.351   3.727  20.519  0.00  0.00    +0.000 C 
ENDBRANCH   5  13
BRANCH   1  22
ATOM     19  C   UNL     1       7.328   5.112  14.211  0.00  0.00    +0.000 C 
ATOM     20  C   UNL     1       5.962   5.249  14.837  0.00  0.00    +0.000 C 
ATOM     21  O   UNL     1       4.978   4.758  14.289  0.00  0.00    +0.000 OA
ATOM     22  N   UNL     1       5.986   5.952  16.029  0.00  0.00    +0.000 N 
ATOM     23  H   UNL     1       6.851   6.455  16.218  0.00  0.00    +0.000 HD
ENDBRANCH   1  22
BRANCH   6  24
ATOM     24  N   UNL     1       4.681   3.859  17.378  0.00  0.00    +0.000 N 
ATOM     25  O   UNL     1       3.863   3.143  16.776  0.00  0.00    +0.000 OA
ATOM     26  O   UNL     1       5.772   3.470  17.817  0.00  0.00    +0.000 OA
ENDBRANCH   6  24
BRANCH   8  27
ATOM     27  O   UNL     1       0.471   9.185  20.554  0.00  0.00    +0.000 OA
ATOM     28  H   UNL     1      -0.187   9.589  19.963  0.00  0.00    +0.000 HD
ENDBRANCH   8  27
TORSDOF 4
ENDMDL
MODEL 6
REMARK VINA RESULT:      -5.9      8.890     11.143
REMARK  Name = 
REMARK  7 active torsions:
REMARK  status: ('A' for Active; 'I' for Inactive)
REMARK    1  A    between atoms: C_1  and  C_2
REMARK    2  A    between atoms: N_4  and  C_5
REMARK    3  A    between atoms: C_9  and  N_10
REMARK    4  A    between atoms: C_16  and  N_17
REMARK    5  A    between atoms: C_21  and  O_22
REMARK    6  A    between atoms: C_23  and  C_24
REMARK    7  A    between atoms: C_23  and  C_25
REMARK                            x       y       z     vdW  Elec       q    Type
REMARK                         _______ _______ _______ _____ _____    ______ ____
ROOT
ATOM      1  C   UNL     1       8.121  13.490  22.578  0.00  0.00    +0.000 A 
ATOM      2  C   UNL     1       9.195  12.885  21.944  0.00  0.00    +0.000 A 
ATOM      3  C   UNL     1       9.407  13.054  20.580  0.00  0.00    +0.000 A 
ATOM      4  C   UNL     1       8.580  13.891  19.794  0.00  0.00    +0.000 A 
ATOM      5  C   UNL     1       7.384  14.470  20.348  0.00  0.00    +0.000 A 
ATOM      6  C   UNL     1       7.202  14.210  21.756  0.00  0.00    +0.000 A 
ATOM      7  C   UNL     1       9.045  14.119  18.371  0.00  0.00    +0.000 C 
ATOM      8  C   UNL     1      10.440  13.604  18.062  0.00  0.00    +0.000 C 
ATOM      9  C   UNL     1      10.598  12.207  18.683  0.00  0.00    +0.000 C 
ATOM     10  C   UNL     1       9.594  11.145  18.183  0.00  0.00    +0.000 C 
ATOM     11  C   UNL     1      12.009  11.686  18.377  0.00  0.00    +0.000 C 
ATOM     12  O   UNL     1      10.483  12.333  20.109  0.00  0.00    +0.000 OA
ENDROOT
BRANCH   5  13
ATOM     13  N   UNL     1       6.450  15.183  19.572  0.00  0.00    +0.000 N 
ATOM     14  C   UNL     1       6.404  16.662  19.522  0.00  0.00    +0.000 C 
ATOM     15  C   UNL     1       4.941  17.130  19.576  0.00  0.00    +0.000 C 
ATOM     16  C   UNL     1       4.116  16.533  18.440  0.00  0.00    +0.000 C 
ATOM     17  C   UNL     1       4.257  15.024  18.422  0.00  0.00    +0.000 C 
ATOM     18  C   UNL     1       5.715  14.591  18.440  0.00  0.00    +0.000 C 
ENDBRANCH   5  13
BRANCH   1  22
ATOM     19  C   UNL     1       7.403  12.462  26.164  0.00  0.00    +0.000 C 
ATOM     20  C   UNL     1       7.526  12.231  24.679  0.00  0.00    +0.000 C 
ATOM     21  O   UNL     1       7.263  11.131  24.200  0.00  0.00    +0.000 OA
ATOM     22  N   UNL     1       7.942  13.358  23.992  0.00  0.00    +0.000 N 
ATOM     23  H   UNL     1       8.306  14.110  24.574  0.00  0.00    +0.000 HD
ENDBRANCH   1  22
BRANCH   6  24
ATOM     24  N   UNL     1       5.956  14.570  22.412  0.00  0.00    +0.000 N 
ATOM     25  O   UNL     1       5.913  15.673  22.982  0.00  0.00    +0.000 OA
ATOM     26  O   UNL     1       5.057  13.718  22.452  0.00  0.00    +0.000 OA
ENDBRANCH   6  24
BRANCH   8  27
ATOM     27  O   UNL     1      10.648  13.613  16.647  0.00  0.00    +0.000 OA
ATOM     28  H   UNL     1      11.091  14.442  16.401  0.00  0.00    +0.000 HD
ENDBRANCH   8  27
TORSDOF 4
ENDMDL
MODEL 7
REMARK VINA RESULT:      -5.9      6.127      9.255
REMARK  Name = 
REMARK  7 active torsions:
REMARK  status: ('A' for Active; 'I' for Inactive)
REMARK    1  A    between atoms: C_1  and  C_2
REMARK    2  A    between atoms: N_4  and  C_5
REMARK    3  A    between atoms: C_9  and  N_10
REMARK    4  A    between atoms: C_16  and  N_17
REMARK    5  A    between atoms: C_21  and  O_22
REMARK    6  A    between atoms: C_23  and  C_24
REMARK    7  A    between atoms: C_23  and  C_25
REMARK                            x       y       z     vdW  Elec       q    Type
REMARK                         _______ _______ _______ _____ _____    ______ ____
ROOT
ATOM      1  C   UNL     1      -1.402  11.109  19.396  0.00  0.00    +0.000 A 
ATOM      2  C   UNL     1      -2.515  11.236  18.579  0.00  0.00    +0.000 A 
ATOM      3  C   UNL     1      -3.626  11.961  18.993  0.00  0.00    +0.000 A 
ATOM      4  C   UNL     1      -3.651  12.648  20.230  0.00  0.00    +0.000 A 
ATOM      5  C   UNL     1      -2.584  12.482  21.182  0.00  0.00    +0.000 A 
ATOM      6  C   UNL     1      -1.488  11.675  20.704  0.00  0.00    +0.000 A 
ATOM      7  C   UNL     1      -4.852  13.542  20.457  0.00  0.00    +0.000 C 
ATOM      8  C   UNL     1      -5.739  13.747  19.241  0.00  0.00    +0.000 C 
ATOM      9  C   UNL     1      -5.939  12.392  18.543  0.00  0.00    +0.000 C 
ATOM     10  C   UNL     1      -6.593  11.294  19.410  0.00  0.00    +0.000 C 
ATOM     11  C   UNL     1      -6.829  12.597  17.310  0.00  0.00    +0.000 C 
ATOM     12  O   UNL     1      -4.660  11.931  18.081  0.00  0.00    +0.000 OA
ENDROOT
BRANCH   5  13
ATOM     13  N   UNL     1      -2.632  13.019  22.484  0.00  0.00    +0.000 N 
ATOM     14  C   UNL     1      -3.119  12.254  23.655  0.00  0.00    +0.000 C 
ATOM     15  C   UNL     1      -4.008  13.159  24.523  0.00  0.00    +0.000 C 
ATOM     16  C   UNL     1      -3.264  14.412  24.976  0.00  0.00    +0.000 C 
ATOM     17  C   UNL     1      -2.667  15.132  23.784  0.00  0.00    +0.000 C 
ATOM     18  C   UNL     1      -1.852  14.196  22.906  0.00  0.00    +0.000 C 
ENDBRANCH   5  13
BRANCH   1  22
ATOM     19  C   UNL     1       1.948   9.927  18.049  0.00  0.00    +0.000 C 
ATOM     20  C   UNL     1       0.948  10.964  18.498  0.00  0.00    +0.000 C 
ATOM     21  O   UNL     1       1.229  12.159  18.442  0.00  0.00    +0.000 OA
ATOM     22  N   UNL     1      -0.239  10.409  18.940  0.00  0.00    +0.000 N 
ATOM     23  H   UNL     1      -0.213   9.405  19.105  0.00  0.00    +0.000 HD
ENDBRANCH   1  22
BRANCH   6  24
ATOM     24  N   UNL     1      -0.429  11.266  21.612  0.00  0.00    +0.000 N 
ATOM     25  O   UNL     1       0.558  12.015  21.705  0.00  0.00    +0.000 OA
ATOM     26  O   UNL     1      -0.527  10.156  22.152  0.00  0.00    +0.000 OA
ENDBRANCH   6  24
BRANCH   8  27
ATOM     27  O   UNL     1      -6.969  14.353  19.645  0.00  0.00    +0.000 OA
ATOM     28  H   UNL     1      -7.342  14.838  18.889  0.00  0.00    +0.000 HD
ENDBRANCH   8  27
TORSDOF 4
ENDMDL
MODEL 8
REMARK VINA RESULT:      -5.9      8.872     11.199
REMARK  Name = 
REMARK  7 active torsions:
REMARK  status: ('A' for Active; 'I' for Inactive)
REMARK    1  A    between atoms: C_1  and  C_2
REMARK    2  A    between atoms: N_4  and  C_5
REMARK    3  A    between atoms: C_9  and  N_10
REMARK    4  A    between atoms: C_16  and  N_17
REMARK    5  A    between atoms: C_21  and  O_22
REMARK    6  A    between atoms: C_23  and  C_24
REMARK    7  A    between atoms: C_23  and  C_25
REMARK                            x       y       z     vdW  Elec       q    Type
REMARK                         _______ _______ _______ _____ _____    ______ ____
ROOT
ATOM      1  C   UNL     1       8.072  13.319  23.162  0.00  0.00    +0.000 A 
ATOM      2  C   UNL     1       9.090  12.725  22.434  0.00  0.00    +0.000 A 
ATOM      3  C   UNL     1       9.220  12.956  21.069  0.00  0.00    +0.000 A 
ATOM      4  C   UNL     1       8.364  13.847  20.377  0.00  0.00    +0.000 A 
ATOM      5  C   UNL     1       7.219  14.420  21.033  0.00  0.00    +0.000 A 
ATOM      6  C   UNL     1       7.119  14.096  22.436  0.00  0.00    +0.000 A 
ATOM      7  C   UNL     1       8.745  14.134  18.941  0.00  0.00    +0.000 C 
ATOM      8  C   UNL     1      10.107  13.608  18.519  0.00  0.00    +0.000 C 
ATOM      9  C   UNL     1      10.271  12.180  19.062  0.00  0.00    +0.000 C 
ATOM     10  C   UNL     1       9.214  11.163  18.578  0.00  0.00    +0.000 C 
ATOM     11  C   UNL     1      11.649  11.646  18.644  0.00  0.00    +0.000 C 
ATOM     12  O   UNL     1      10.248  12.238  20.497  0.00  0.00    +0.000 OA
ENDROOT
BRANCH   5  13
ATOM     13  N   UNL     1       6.254  15.188  20.352  0.00  0.00    +0.000 N 
ATOM     14  C   UNL     1       4.937  14.649  19.942  0.00  0.00    +0.000 C 
ATOM     15  C   UNL     1       4.607  15.134  18.521  0.00  0.00    +0.000 C 
ATOM     16  C   UNL     1       4.612  16.657  18.429  0.00  0.00    +0.000 C 
ATOM     17  C   UNL     1       5.919  17.213  18.958  0.00  0.00    +0.000 C 
ATOM     18  C   UNL     1       6.253  16.662  20.335  0.00  0.00    +0.000 C 
ENDBRANCH   5  13
BRANCH   1  22
ATOM     19  C   UNL     1       7.428  12.198  26.735  0.00  0.00    +0.000 C 
ATOM     20  C   UNL     1       7.383  12.059  25.234  0.00  0.00    +0.000 C 
ATOM     21  O   UNL     1       6.854  11.077  24.720  0.00  0.00    +0.000 OA
ATOM     22  N   UNL     1       7.977  13.122  24.578  0.00  0.00    +0.000 N 
ATOM     23  H   UNL     1       8.539  13.735  25.166  0.00  0.00    +0.000 HD
ENDBRANCH   1  22
BRANCH   6  24
ATOM     24  N   UNL     1       5.925  14.447  23.186  0.00  0.00    +0.000 N 
ATOM     25  O   UNL     1       5.941  15.524  23.806  0.00  0.00    +0.000 OA
ATOM     26  O   UNL     1       5.012  13.611  23.245  0.00  0.00    +0.000 OA
ENDBRANCH   6  24
BRANCH   8  27
ATOM     27  O   UNL     1      10.226  13.681  17.097  0.00  0.00    +0.000 OA
ATOM     28  H   UNL     1      10.305  14.615  16.837  0.00  0.00    +0.000 HD
ENDBRANCH   8  27
TORSDOF 4
ENDMDL
MODEL 9
REMARK VINA RESULT:      -5.8      9.001     10.957
REMARK  Name = 
REMARK  7 active torsions:
REMARK  status: ('A' for Active; 'I' for Inactive)
REMARK    1  A    between atoms: C_1  and  C_2
REMARK    2  A    between atoms: N_4  and  C_5
REMARK    3  A    between atoms: C_9  and  N_10
REMARK    4  A    between atoms: C_16  and  N_17
REMARK    5  A    between atoms: C_21  and  O_22
REMARK    6  A    between atoms: C_23  and  C_24
REMARK    7  A    between atoms: C_23  and  C_25
REMARK                            x       y       z     vdW  Elec       q    Type
REMARK                         _______ _______ _______ _____ _____    ______ ____
ROOT
ATOM      1  C   UNL     1       6.951  15.130  19.216  0.00  0.00    +0.000 A 
ATOM      2  C   UNL     1       8.011  14.910  18.350  0.00  0.00    +0.000 A 
ATOM      3  C   UNL     1       9.100  14.137  18.736  0.00  0.00    +0.000 A 
ATOM      4  C   UNL     1       9.151  13.495  19.997  0.00  0.00    +0.000 A 
ATOM      5  C   UNL     1       8.146  13.757  20.994  0.00  0.00    +0.000 A 
ATOM      6  C   UNL     1       7.073  14.608  20.540  0.00  0.00    +0.000 A 
ATOM      7  C   UNL     1      10.310  12.542  20.199  0.00  0.00    +0.000 C 
ATOM      8  C   UNL     1      11.120  12.242  18.948  0.00  0.00    +0.000 C 
ATOM      9  C   UNL     1      11.359  13.557  18.189  0.00  0.00    +0.000 C 
ATOM     10  C   UNL     1      12.117  14.646  18.979  0.00  0.00    +0.000 C 
ATOM     11  C   UNL     1      12.171  13.257  16.922  0.00  0.00    +0.000 C 
ATOM     12  O   UNL     1      10.085  14.075  17.774  0.00  0.00    +0.000 OA
ENDROOT
BRANCH   5  13
ATOM     13  N   UNL     1       8.231  13.265  22.311  0.00  0.00    +0.000 N 
ATOM     14  C   UNL     1       8.003  11.843  22.658  0.00  0.00    +0.000 C 
ATOM     15  C   UNL     1       7.159  11.759  23.940  0.00  0.00    +0.000 C 
ATOM     16  C   UNL     1       7.826  12.491  25.102  0.00  0.00    +0.000 C 
ATOM     17  C   UNL     1       8.164  13.914  24.705  0.00  0.00    +0.000 C 
ATOM     18  C   UNL     1       8.937  13.969  23.397  0.00  0.00    +0.000 C 
ENDBRANCH   5  13
BRANCH   1  22
ATOM     19  C   UNL     1       3.653  16.461  17.880  0.00  0.00    +0.000 C 
ATOM     20  C   UNL     1       4.633  15.378  18.259  0.00  0.00    +0.000 C 
ATOM     21  O   UNL     1       4.349  14.196  18.079  0.00  0.00    +0.000 OA
ATOM     22  N   UNL     1       5.807  15.879  18.792  0.00  0.00    +0.000 N 
ATOM     23  H   UNL     1       5.780  16.863  19.052  0.00  0.00    +0.000 HD
ENDBRANCH   1  22
BRANCH   6  24
ATOM     24  N   UNL     1       6.087  15.110  21.482  0.00  0.00    +0.000 N 
ATOM     25  O   UNL     1       5.062  14.427  21.647  0.00  0.00    +0.000 OA
ATOM     26  O   UNL     1       6.279  16.228  21.980  0.00  0.00    +0.000 OA
ENDBRANCH   6  24
BRANCH   8  27
ATOM     27  O   UNL     1      12.333  11.581  19.314  0.00  0.00    +0.000 OA
ATOM     28  H   UNL     1      12.989  12.251  19.572  0.00  0.00    +0.000 HD
ENDBRANCH   8  27
TORSDOF 4
ENDMDL
